@<TRIPOS>MOLECULE
3R8
117   119    1
SMALL
USER_CHARGES


@<TRIPOS>ATOM
      1 CA         19.5911  -24.7437  -51.1813 C.3       0 UNK        -0.2013 
      2 C          19.2515  -25.1677  -49.7598 C.2       0 UNK         0.4866 
      3 O          18.2489  -24.7080  -49.2122 O.2       0 UNK        -0.5176 
      4 N          20.0772  -26.0443  -49.1698 N.am      1 UNK        -0.4884 
      5 CA         19.9794  -26.5527  -47.7938 C.3       1 UNK         0.0853 
      6 C6         18.6354  -27.2982  -47.5240 C.3       10 UNK        -0.0849 
      7 S7         18.7397  -28.5460  -46.1904 S.3       10 UNK        -0.2776 
      8 C8         17.0489  -28.4781  -45.5041 C.3       10 UNK         0.0316 
      9 C9         16.9698  -29.0811  -44.1060 C.ar      10 UNK        -0.0863 
     10 C10        17.3970  -30.3916  -43.8704 C.ar      10 UNK        -0.1009 
     11 C11        17.3578  -30.9310  -42.5817 C.ar      10 UNK        -0.0712 
     12 C12        16.8670  -30.1598  -41.5247 C.ar      10 UNK        -0.0894 
     13 C13        16.4369  -28.8474  -41.7447 C.ar      10 UNK        -0.0745 
     14 C14        16.4749  -28.3214  -43.0402 C.ar      10 UNK        -0.0972 
     15 C15        15.9746  -27.9851  -40.5770 C.3       10 UNK         0.0209 
     16 S16        17.3139  -27.6861  -39.3722 S.3       10 UNK        -0.2568 
     17 C17        18.4036  -26.5044  -40.2455 C.3       10 UNK        -0.0983 
     18 CA         19.3920  -27.1668  -41.2458 C.3       3 UNK         0.0876 
     19 N          19.9950  -26.2258  -42.1825 N.am      3 UNK        -0.4424 
     20 C          19.3904  -25.6265  -43.2101 C.2       2 UNK         0.4918 
     21 O          18.1721  -25.6170  -43.3830 O.2       2 UNK        -0.4875 
     22 CA         20.2911  -24.9932  -44.2791 C.3       2 UNK         0.0481 
     23 CB         21.7904  -24.9225  -43.9088 C.3       2 UNK        -0.1831 
     24 N          20.0989  -25.8073  -45.4712 N.am      2 UNK        -0.4498 
     25 C          20.3222  -25.4663  -46.7411 C.2       1 UNK         0.5027 
     26 O          20.8056  -24.3824  -47.0806 O.2       1 UNK        -0.4969 
     27 C          20.5484  -27.9522  -40.6018 C.2       3 UNK         0.5005 
     28 O          21.7134  -27.6519  -40.8839 O.2       3 UNK        -0.5279 
     29 N          20.2211  -28.9577  -39.7814 N.am      4 UNK        -0.4463 
     30 CA         21.1091  -29.9958  -39.2348 C.3       4 UNK         0.0283 
     31 CB         20.2715  -30.9418  -38.3584 C.3       4 UNK        -0.1875 
     32 C          22.3619  -29.5202  -38.4694 C.2       4 UNK         0.4949 
     33 O          23.2589  -30.3280  -38.2291 O.2       4 UNK        -0.5039 
     34 N          22.4232  -28.2319  -38.1106 N.am      5 UNK        -0.4663 
     35 CA         23.6195  -27.5737  -37.5816 C.3       5 UNK         0.0242 
     36 CB         23.2154  -26.2206  -36.9737 C.3       5 UNK        -0.1982 
     37 C          24.7281  -27.3784  -38.6373 C.2       5 UNK         0.5017 
     38 O          25.8910  -27.2465  -38.2531 O.2       5 UNK        -0.5012 
     39 N          24.3598  -27.3462  -39.9268 N.am      6 UNK        -0.4439 
     40 CA         25.2677  -27.1395  -41.0596 C.3       6 UNK         0.0297 
     41 CB         25.1078  -25.7011  -41.5803 C.3       6 UNK        -0.2006 
     42 C          25.0517  -28.1517  -42.1979 C.2       6 UNK         0.4892 
     43 O          26.0186  -28.4835  -42.8856 O.2       6 UNK        -0.5089 
     44 N          23.8099  -28.6151  -42.3977 N.am      7 UNK        -0.4243 
     45 CA         23.4380  -29.6155  -43.4006 C.3       7 UNK         0.0196 
     46 CB         21.9112  -29.5857  -43.5942 C.3       7 UNK        -0.2007 
     47 C          23.9079  -31.0270  -43.0078 C.2       7 UNK         0.5020 
     48 O          24.1835  -31.2896  -41.8352 O.2       7 UNK        -0.5147 
     49 N          23.9506  -31.9282  -43.9991 N.am      8 UNK        -0.4734 
     50 CA         24.4164  -33.3176  -43.8700 C.3       8 UNK         0.0238 
     51 CB         24.4341  -33.9729  -45.2609 C.3       8 UNK        -0.1912 
     52 C          23.6184  -34.1868  -42.8782 C.2       8 UNK         0.5038 
     53 O          24.1560  -35.1790  -42.3844 O.2       8 UNK        -0.5046 
     54 N          22.3694  -33.7972  -42.5974 N.am      9 UNK        -0.4200 
     55 CA         21.5221  -34.3633  -41.5387 C.3       9 UNK         0.0839 
     56 C          21.9555  -33.9944  -40.0874 C.2       9 UNK         0.5513 
     57 N          22.8931  -33.0777  -39.8787 N.am      9 UNK        -0.7519 
     58 O          21.4341  -34.5639  -39.1321 O.2       9 UNK        -0.4960 
     59 C59        20.0221  -34.0611  -41.7958 C.3       10 UNK        -0.0876 
     60 S60        19.6614  -32.2805  -41.9640 S.3       10 UNK        -0.2414 
     61 C61        17.8834  -32.3328  -42.3274 C.3       10 UNK         0.0169 
     62 H62        19.7513  -23.6667  -51.2225 H         1 UNK         0.0903 
     63 H63        20.4912  -25.2345  -51.5510 H         1 UNK         0.0903 
     64 H64        18.7699  -24.9920  -51.8532 H         1 UNK         0.0903 
     65 H65        20.8957  -26.3531  -49.6767 H         1 UNK         0.3096 
     66 H66        20.7833  -27.2871  -47.7164 H         1 UNK         0.1121 
     67 H67        17.8385  -26.5826  -47.3139 H         1 UNK         0.0849 
     68 H68        18.3213  -27.8308  -48.4232 H         1 UNK         0.0849 
     69 H69        16.7114  -27.4407  -45.4796 H         1 UNK         0.0865 
     70 H70        16.3673  -29.0113  -46.1682 H         1 UNK         0.0865 
     71 H71        17.7886  -30.9826  -44.6872 H         1 UNK         0.1346 
     72 H72        16.8507  -30.5690  -40.5237 H         1 UNK         0.1412 
     73 H73        16.1513  -27.3036  -43.2114 H         1 UNK         0.1426 
     74 H74        15.1526  -28.4916  -40.0695 H         1 UNK         0.0716 
     75 H75        15.5791  -27.0290  -40.9235 H         1 UNK         0.0716 
     76 H76        18.9499  -25.9192  -39.5038 H         1 UNK         0.0695 
     77 H77        17.7591  -25.7923  -40.7620 H         1 UNK         0.0695 
     78 H78        18.8628  -27.8938  -41.8579 H         1 UNK         0.0983 
     79 H79        21.0056  -26.2131  -42.1167 H         1 UNK         0.3095 
     80 H80        19.9200  -23.9839  -44.4670 H         1 UNK         0.0454 
     81 H81        22.3603  -24.4118  -44.6851 H         1 UNK         0.0851 
     82 H82        22.2316  -25.9120  -43.7811 H         1 UNK         0.0851 
     83 H83        21.9435  -24.3606  -42.9865 H         1 UNK         0.0851 
     84 H84        19.6565  -26.7054  -45.3064 H         1 UNK         0.2976 
     85 H85        19.2358  -29.0751  -39.5819 H         1 UNK         0.3116 
     86 H86        21.4781  -30.5663  -40.0893 H         1 UNK         0.0646 
     87 H87        19.8280  -30.4183  -37.5108 H         1 UNK         0.0847 
     88 H88        20.8825  -31.7522  -37.9584 H         1 UNK         0.0847 
     89 H89        19.4666  -31.4047  -38.9296 H         1 UNK         0.0847 
     90 H90        21.6414  -27.6393  -38.3490 H         1 UNK         0.3040 
     91 H91        24.0327  -28.1991  -36.7869 H         1 UNK         0.1015 
     92 H92        22.7870  -25.5531  -37.7226 H         1 UNK         0.0786 
     93 H93        24.0795  -25.7136  -36.5416 H         1 UNK         0.0786 
     94 H94        22.4835  -26.3462  -36.1756 H         1 UNK         0.0786 
     95 H95        23.3741  -27.4707  -40.1472 H         1 UNK         0.3172 
     96 H96        26.3015  -27.2664  -40.7315 H         1 UNK         0.0595 
     97 H97        24.0847  -25.5000  -41.8985 H         1 UNK         0.0839 
     98 H98        25.7597  -25.5183  -42.4357 H         1 UNK         0.0839 
     99 H99        25.3688  -24.9722  -40.8130 H         1 UNK         0.0839 
    100 H100       23.0582  -28.2968  -41.7914 H         1 UNK         0.2998 
    101 H101       23.9155  -29.3441  -44.3446 H         1 UNK         0.0822 
    102 H102       21.5977  -30.2587  -44.3932 H         1 UNK         0.0787 
    103 H103       21.3869  -29.8939  -42.6897 H         1 UNK         0.0787 
    104 H104       21.5610  -28.5883  -43.8608 H         1 UNK         0.0787 
    105 H105       23.6873  -31.6318  -44.9285 H         1 UNK         0.3055 
    106 H106       25.4421  -33.2813  -43.4958 H         1 UNK         0.1106 
    107 H107       23.4373  -34.0103  -45.7023 H         1 UNK         0.0828 
    108 H108       25.0873  -33.4338  -45.9473 H         1 UNK         0.0828 
    109 H109       24.8038  -34.9980  -45.2059 H         1 UNK         0.0828 
    110 H110       22.0172  -32.9600  -43.0369 H         1 UNK         0.2931 
    111 H111       21.6313  -35.4479  -41.5992 H         1 UNK         0.0412 
    112 H112       23.1500  -32.8349  -38.9350 H         1 UNK         0.3472 
    113 H113       23.3190  -32.5738  -40.6502 H         1 UNK         0.3472 
    114 H114       19.3994  -34.4795  -41.0026 H         1 UNK         0.0970 
    115 H115       19.7065  -34.5605  -42.7131 H         1 UNK         0.0970 
    116 H116       17.3534  -32.7926  -41.4918 H         1 UNK         0.0612 
    117 H117       17.7061  -32.9650  -43.1989 H         1 UNK         0.0612 
@<TRIPOS>BOND
     1    1    2 1    
     2    1   62 1    
     3    1   63 1    
     4    1   64 1    
     5    2    3 2    
     6    2    4 am   BACKBONE|DICT|INTERRES
     7    4    5 1    
     8    4   65 1    
     9    5    6 1    
    10    5   25 1    
    11    5   66 1    
    12    6    7 1    
    13    6   67 1    
    14    6   68 1    
    15    7    8 1    
    16    8    9 1    
    17    8   69 1    
    18    8   70 1    
    19    9   10 ar   
    20    9   14 ar   
    21   10   11 ar   
    22   10   71 1    
    23   11   12 ar   
    24   11   61 1    
    25   12   13 ar   
    26   12   72 1    
    27   13   14 ar   
    28   13   15 1    
    29   14   73 1    
    30   15   16 1    
    31   15   74 1    
    32   15   75 1    
    33   16   17 1    
    34   17   18 1    
    35   17   76 1    
    36   17   77 1    
    37   18   19 1    
    38   18   27 1    
    39   18   78 1    
    40   19   20 am   BACKBONE|DICT|INTERRES
    41   19   79 1    
    42   20   21 2    
    43   20   22 1    
    44   22   23 1    
    45   22   24 1    
    46   22   80 1    
    47   23   81 1    
    48   23   82 1    
    49   23   83 1    
    50   24   25 am   BACKBONE|DICT|INTERRES
    51   24   84 1    
    52   25   26 2    
    53   27   28 2    
    54   27   29 am   BACKBONE|DICT|INTERRES
    55   29   30 1    
    56   29   85 1    
    57   30   31 1    
    58   30   32 1    
    59   30   86 1    
    60   31   87 1    
    61   31   88 1    
    62   31   89 1    
    63   32   33 2    
    64   32   34 am   BACKBONE|DICT|INTERRES
    65   34   35 1    
    66   34   90 1    
    67   35   36 1    
    68   35   37 1    
    69   35   91 1    
    70   36   92 1    
    71   36   93 1    
    72   36   94 1    
    73   37   38 2    
    74   37   39 am   BACKBONE|DICT|INTERRES
    75   39   40 1    
    76   39   95 1    
    77   40   41 1    
    78   40   42 1    
    79   40   96 1    
    80   41   97 1    
    81   41   98 1    
    82   41   99 1    
    83   42   43 2    
    84   42   44 am   BACKBONE|DICT|INTERRES
    85   44   45 1    
    86   44  100 1    
    87   45   46 1    
    88   45   47 1    
    89   45  101 1    
    90   46  102 1    
    91   46  103 1    
    92   46  104 1    
    93   47   48 2    
    94   47   49 am   BACKBONE|DICT|INTERRES
    95   49   50 1    
    96   49  105 1    
    97   50   51 1    
    98   50   52 1    
    99   50  106 1    
   100   51  107 1    
   101   51  108 1    
   102   51  109 1    
   103   52   53 2    
   104   52   54 am   BACKBONE|DICT|INTERRES
   105   54   55 1    
   106   54  110 1    
   107   55   56 1    
   108   55   59 1    
   109   55  111 1    
   110   56   57 am   BACKBONE|DICT|INTERRES
   111   56   58 2    
   112   57  112 1    
   113   57  113 1    
   114   59   60 1    
   115   59  114 1    
   116   59  115 1    
   117   60   61 1    
   118   61  116 1    
   119   61  117 1    
@<TRIPOS>SUBSTRUCTURE
     1 UNK         1 GROUP             0       ****    0 ROOT    
