@<TRIPOS>MOLECULE
3R8
117   119    1
SMALL
USER_CHARGES


@<TRIPOS>ATOM
      1 CA         18.0561  -28.4426  -42.1854 C.3       0 UNK        -0.2013 
      2 C          17.6966  -27.1946  -42.9721 C.2       0 UNK         0.4866 
      3 O          17.7663  -26.0901  -42.4329 O.2       0 UNK        -0.5176 
      4 N          17.3370  -27.3531  -44.2525 N.am      1 UNK        -0.4884 
      5 CA         16.9021  -26.2832  -45.1628 C.3       1 UNK         0.0853 
      6 C6         16.0472  -26.8301  -46.3376 C.3       10 UNK        -0.0849 
      7 S7         14.6830  -27.9155  -45.7897 S.3       10 UNK        -0.2776 
      8 C8         15.1225  -29.4991  -46.5806 C.3       10 UNK         0.0316 
      9 C9         16.3420  -30.1611  -45.9483 C.ar      10 UNK        -0.0863 
     10 C10        16.1916  -30.9964  -44.8361 C.ar      10 UNK        -0.1009 
     11 C11        17.2951  -31.6655  -44.2966 C.ar      10 UNK        -0.0712 
     12 C12        18.5613  -31.4695  -44.8564 C.ar      10 UNK        -0.0894 
     13 C13        18.7269  -30.6310  -45.9620 C.ar      10 UNK        -0.0745 
     14 C14        17.6125  -29.9880  -46.5088 C.ar      10 UNK        -0.0972 
     15 C15        20.0994  -30.4604  -46.5998 C.3       10 UNK         0.0209 
     16 S16        20.7788  -28.7910  -46.3502 S.3       10 UNK        -0.2568 
     17 C17        21.1657  -28.8200  -44.5695 C.3       10 UNK        -0.0983 
     18 CA         21.7530  -27.4764  -44.0679 C.3       3 UNK         0.0876 
     19 N          20.8535  -26.3585  -44.3664 N.am      3 UNK        -0.4424 
     20 C          21.2026  -25.0881  -44.6049 C.2       2 UNK         0.4918 
     21 O          22.3684  -24.6945  -44.6245 O.2       2 UNK        -0.4875 
     22 CA         20.0520  -24.0756  -44.8011 C.3       2 UNK         0.0481 
     23 CB         20.2467  -23.2029  -46.0583 C.3       2 UNK        -0.1831 
     24 N          18.7181  -24.6980  -44.7449 N.am      2 UNK        -0.4498 
     25 C          18.1264  -25.4829  -45.6587 C.2       1 UNK         0.5027 
     26 O          18.5596  -25.6601  -46.7975 O.2       1 UNK        -0.4969 
     27 C          22.0794  -27.5629  -42.5603 C.2       3 UNK         0.5005 
     28 O          22.8741  -28.4199  -42.1647 O.2       3 UNK        -0.5279 
     29 N          21.4525  -26.7058  -41.7380 N.am      4 UNK        -0.4463 
     30 CA         21.6591  -26.5858  -40.2935 C.3       4 UNK         0.0283 
     31 CB         20.7484  -25.4770  -39.7446 C.3       4 UNK        -0.1875 
     32 C          23.1293  -26.3011  -39.9481 C.2       4 UNK         0.4949 
     33 O          23.7691  -25.4979  -40.6298 O.2       4 UNK        -0.5039 
     34 N          23.6426  -27.0011  -38.9284 N.am      5 UNK        -0.4663 
     35 CA         25.0357  -27.0439  -38.4511 C.3       5 UNK         0.0242 
     36 CB         25.5183  -25.6578  -37.9797 C.3       5 UNK        -0.1982 
     37 C          26.0398  -27.6750  -39.4382 C.2       5 UNK         0.5017 
     38 O          26.9336  -28.3955  -38.9935 O.2       5 UNK        -0.5012 
     39 N          25.8799  -27.4107  -40.7419 N.am      6 UNK        -0.4439 
     40 CA         26.6851  -27.9604  -41.8352 C.3       6 UNK         0.0297 
     41 CB         26.3296  -27.2405  -43.1467 C.3       6 UNK        -0.2006 
     42 C          26.5206  -29.4821  -41.9843 C.2       6 UNK         0.4892 
     43 O          27.5221  -30.1907  -42.0946 O.2       6 UNK        -0.5089 
     44 N          25.2661  -29.9468  -41.9636 N.am      7 UNK        -0.4243 
     45 CA         24.8894  -31.3612  -41.9644 C.3       7 UNK         0.0196 
     46 CB         24.3018  -31.7414  -43.3331 C.3       7 UNK        -0.2007 
     47 C          23.8882  -31.6675  -40.8428 C.2       7 UNK         0.5020 
     48 O          23.9317  -32.7659  -40.2881 O.2       7 UNK        -0.5147 
     49 N          22.9994  -30.7077  -40.5331 N.am      8 UNK        -0.4734 
     50 CA         21.9910  -30.7428  -39.4615 C.3       8 UNK         0.0238 
     51 CB         22.6800  -30.6761  -38.0817 C.3       8 UNK        -0.1912 
     52 C          20.9968  -31.9183  -39.5655 C.2       8 UNK         0.5038 
     53 O          20.4804  -32.3728  -38.5430 O.2       8 UNK        -0.5046 
     54 N          20.7628  -32.3908  -40.7977 N.am      9 UNK        -0.4200 
     55 CA         19.9555  -33.5739  -41.1409 C.3       9 UNK         0.0839 
     56 C          20.5571  -34.9262  -40.6470 C.2       9 UNK         0.5513 
     57 N          21.8338  -34.9939  -40.2846 N.am      9 UNK        -0.7519 
     58 O          19.8675  -35.9426  -40.6234 O.2       9 UNK        -0.4960 
     59 C59        18.4460  -33.4146  -40.7903 C.3       10 UNK        -0.0876 
     60 S60        17.7055  -31.9410  -41.5722 S.3       10 UNK        -0.2414 
     61 C61        17.1227  -32.6437  -43.1445 C.3       10 UNK         0.0169 
     62 H62        19.0005  -28.3072  -41.6600 H         1 UNK         0.0903 
     63 H63        17.2837  -28.6557  -41.4471 H         1 UNK         0.0903 
     64 H64        18.1516  -29.3098  -42.8361 H         1 UNK         0.0903 
     65 H65        17.2883  -28.2859  -44.6435 H         1 UNK         0.3096 
     66 H66        16.2691  -25.5938  -44.5987 H         1 UNK         0.1121 
     67 H67        16.6646  -27.3671  -47.0575 H         1 UNK         0.0849 
     68 H68        15.6096  -25.9990  -46.8936 H         1 UNK         0.0849 
     69 H69        14.2669  -30.1723  -46.5072 H         1 UNK         0.0865 
     70 H70        15.2832  -29.3417  -47.6484 H         1 UNK         0.0865 
     71 H71        15.2093  -31.1489  -44.4093 H         1 UNK         0.1346 
     72 H72        19.4141  -31.9884  -44.4402 H         1 UNK         0.1412 
     73 H73        17.7407  -29.3640  -47.3826 H         1 UNK         0.1426 
     74 H74        20.0182  -30.6475  -47.6714 H         1 UNK         0.0716 
     75 H75        20.8058  -31.1979  -46.2153 H         1 UNK         0.0716 
     76 H76        21.8702  -29.6340  -44.3961 H         1 UNK         0.0695 
     77 H77        20.2585  -29.0753  -44.0214 H         1 UNK         0.0695 
     78 H78        22.7016  -27.3073  -44.5823 H         1 UNK         0.0983 
     79 H79        19.8734  -26.5885  -44.4237 H         1 UNK         0.3095 
     80 H80        20.0939  -23.4096  -43.9382 H         1 UNK         0.0454 
     81 H81        20.3457  -23.8025  -46.9633 H         1 UNK         0.0851 
     82 H82        21.1533  -22.6024  -45.9749 H         1 UNK         0.0851 
     83 H83        19.4144  -22.5136  -46.1984 H         1 UNK         0.0851 
     84 H84        18.2929  -24.7023  -43.8215 H         1 UNK         0.2976 
     85 H85        20.8348  -26.0271  -42.1562 H         1 UNK         0.3116 
     86 H86        21.3614  -27.5315  -39.8397 H         1 UNK         0.0646 
     87 H87        19.6981  -25.6846  -39.9518 H         1 UNK         0.0847 
     88 H88        20.9906  -24.5053  -40.1773 H         1 UNK         0.0847 
     89 H89        20.8523  -25.3856  -38.6625 H         1 UNK         0.0847 
     90 H90        23.0187  -27.6315  -38.4446 H         1 UNK         0.3040 
     91 H91        25.0235  -27.6954  -37.5752 H         1 UNK         0.1015 
     92 H92        25.5967  -24.9476  -38.8031 H         1 UNK         0.0786 
     93 H93        26.5053  -25.7271  -37.5204 H         1 UNK         0.0786 
     94 H94        24.8438  -25.2352  -37.2350 H         1 UNK         0.0786 
     95 H95        25.1296  -26.7699  -40.9880 H         1 UNK         0.3172 
     96 H96        27.7341  -27.7579  -41.6094 H         1 UNK         0.0595 
     97 H97        25.2792  -27.3699  -43.4103 H         1 UNK         0.0839 
     98 H98        26.9241  -27.6255  -43.9764 H         1 UNK         0.0839 
     99 H99        26.5266  -26.1705  -43.0774 H         1 UNK         0.0839 
    100 H100       24.5049  -29.2748  -41.9101 H         1 UNK         0.2998 
    101 H101       25.7684  -31.9832  -41.7815 H         1 UNK         0.0822 
    102 H102       25.0256  -31.5789  -44.1318 H         1 UNK         0.0787 
    103 H103       24.0205  -32.7952  -43.3588 H         1 UNK         0.0787 
    104 H104       23.4114  -31.1584  -43.5650 H         1 UNK         0.0787 
    105 H105       22.9887  -29.8641  -41.1044 H         1 UNK         0.3055 
    106 H106       21.3864  -29.8435  -39.5773 H         1 UNK         0.1106 
    107 H107       23.2180  -31.5981  -37.8578 H         1 UNK         0.0828 
    108 H108       21.9512  -30.5245  -37.2845 H         1 UNK         0.0828 
    109 H109       23.3944  -29.8557  -38.0289 H         1 UNK         0.0828 
    110 H110       21.2484  -31.9548  -41.5665 H         1 UNK         0.2931 
    111 H111       20.0177  -33.6433  -42.2275 H         1 UNK         0.0412 
    112 H112       22.2106  -35.8773  -39.9795 H         1 UNK         0.3472 
    113 H113       22.4285  -34.1725  -40.2980 H         1 UNK         0.3472 
    114 H114       18.3091  -33.3389  -39.7109 H         1 UNK         0.0970 
    115 H115       17.8776  -34.2946  -41.0966 H         1 UNK         0.0970 
    116 H116       16.0781  -32.9395  -43.0362 H         1 UNK         0.0612 
    117 H117       17.6759  -33.5549  -43.3769 H         1 UNK         0.0612 
@<TRIPOS>BOND
     1    1    2 1    
     2    1   62 1    
     3    1   63 1    
     4    1   64 1    
     5    2    3 2    
     6    2    4 am   BACKBONE|DICT|INTERRES
     7    4    5 1    
     8    4   65 1    
     9    5    6 1    
    10    5   25 1    
    11    5   66 1    
    12    6    7 1    
    13    6   67 1    
    14    6   68 1    
    15    7    8 1    
    16    8    9 1    
    17    8   69 1    
    18    8   70 1    
    19    9   10 ar   
    20    9   14 ar   
    21   10   11 ar   
    22   10   71 1    
    23   11   12 ar   
    24   11   61 1    
    25   12   13 ar   
    26   12   72 1    
    27   13   14 ar   
    28   13   15 1    
    29   14   73 1    
    30   15   16 1    
    31   15   74 1    
    32   15   75 1    
    33   16   17 1    
    34   17   18 1    
    35   17   76 1    
    36   17   77 1    
    37   18   19 1    
    38   18   27 1    
    39   18   78 1    
    40   19   20 am   BACKBONE|DICT|INTERRES
    41   19   79 1    
    42   20   21 2    
    43   20   22 1    
    44   22   23 1    
    45   22   24 1    
    46   22   80 1    
    47   23   81 1    
    48   23   82 1    
    49   23   83 1    
    50   24   25 am   BACKBONE|DICT|INTERRES
    51   24   84 1    
    52   25   26 2    
    53   27   28 2    
    54   27   29 am   BACKBONE|DICT|INTERRES
    55   29   30 1    
    56   29   85 1    
    57   30   31 1    
    58   30   32 1    
    59   30   86 1    
    60   31   87 1    
    61   31   88 1    
    62   31   89 1    
    63   32   33 2    
    64   32   34 am   BACKBONE|DICT|INTERRES
    65   34   35 1    
    66   34   90 1    
    67   35   36 1    
    68   35   37 1    
    69   35   91 1    
    70   36   92 1    
    71   36   93 1    
    72   36   94 1    
    73   37   38 2    
    74   37   39 am   BACKBONE|DICT|INTERRES
    75   39   40 1    
    76   39   95 1    
    77   40   41 1    
    78   40   42 1    
    79   40   96 1    
    80   41   97 1    
    81   41   98 1    
    82   41   99 1    
    83   42   43 2    
    84   42   44 am   BACKBONE|DICT|INTERRES
    85   44   45 1    
    86   44  100 1    
    87   45   46 1    
    88   45   47 1    
    89   45  101 1    
    90   46  102 1    
    91   46  103 1    
    92   46  104 1    
    93   47   48 2    
    94   47   49 am   BACKBONE|DICT|INTERRES
    95   49   50 1    
    96   49  105 1    
    97   50   51 1    
    98   50   52 1    
    99   50  106 1    
   100   51  107 1    
   101   51  108 1    
   102   51  109 1    
   103   52   53 2    
   104   52   54 am   BACKBONE|DICT|INTERRES
   105   54   55 1    
   106   54  110 1    
   107   55   56 1    
   108   55   59 1    
   109   55  111 1    
   110   56   57 am   BACKBONE|DICT|INTERRES
   111   56   58 2    
   112   57  112 1    
   113   57  113 1    
   114   59   60 1    
   115   59  114 1    
   116   59  115 1    
   117   60   61 1    
   118   61  116 1    
   119   61  117 1    
@<TRIPOS>SUBSTRUCTURE
     1 UNK         1 GROUP             0       ****    0 ROOT    
