@<TRIPOS>MOLECULE
3R8
117   119    1
SMALL
USER_CHARGES


@<TRIPOS>ATOM
      1 CA         15.7631  -27.3188  -40.8106 C.3       0 UNK        -0.2013 
      2 C          16.1153  -26.2639  -41.8483 C.2       0 UNK         0.4866 
      3 O          16.0931  -25.0713  -41.5453 O.2       0 UNK        -0.5176 
      4 N          16.4533  -26.6961  -43.0698 N.am      1 UNK        -0.4884 
      5 CA         16.8302  -25.8245  -44.1915 C.3       1 UNK         0.0853 
      6 C6         16.5620  -26.4988  -45.5579 C.3       10 UNK        -0.0849 
      7 S7         14.8214  -26.9858  -45.8695 S.3       10 UNK        -0.2776 
      8 C8         14.5202  -28.5569  -44.9651 C.3       10 UNK         0.0316 
      9 C9         15.7295  -29.4758  -44.8130 C.ar      10 UNK        -0.0863 
     10 C10        16.0103  -30.0557  -43.5712 C.ar      10 UNK        -0.1009 
     11 C11        17.1528  -30.8420  -43.3937 C.ar      10 UNK        -0.0712 
     12 C12        18.0321  -31.0278  -44.4669 C.ar      10 UNK        -0.0894 
     13 C13        17.7448  -30.4788  -45.7200 C.ar      10 UNK        -0.0745 
     14 C14        16.5698  -29.7459  -45.8964 C.ar      10 UNK        -0.0972 
     15 C15        18.7043  -30.6409  -46.8875 C.3       10 UNK         0.0209 
     16 S16        19.6964  -29.1310  -47.1319 S.3       10 UNK        -0.2568 
     17 C17        21.1356  -29.4746  -46.0714 C.3       10 UNK        -0.0983 
     18 CA         21.8677  -28.1864  -45.6143 C.3       3 UNK         0.0876 
     19 N          21.0675  -27.4156  -44.6529 N.am      3 UNK        -0.4424 
     20 C          21.4118  -26.2404  -44.1026 C.2       2 UNK         0.4918 
     21 O          22.4020  -25.5900  -44.4447 O.2       2 UNK        -0.4875 
     22 CA         20.5178  -25.7308  -42.9530 C.3       2 UNK         0.0481 
     23 CB         20.8000  -24.2624  -42.5672 C.3       2 UNK        -0.1831 
     24 N          19.0863  -25.9557  -43.1880 N.am      2 UNK        -0.4498 
     25 C          18.3102  -25.3780  -44.1203 C.2       1 UNK         0.5027 
     26 O          18.7178  -24.5381  -44.9238 O.2       1 UNK        -0.4969 
     27 C          23.2407  -28.5435  -45.0045 C.2       3 UNK         0.5005 
     28 O          23.3092  -29.4397  -44.1640 O.2       3 UNK        -0.5279 
     29 N          24.2923  -27.8177  -45.4131 N.am      4 UNK        -0.4463 
     30 CA         25.6529  -27.8641  -44.8589 C.3       4 UNK         0.0283 
     31 CB         26.3205  -29.2349  -45.1047 C.3       4 UNK        -0.1875 
     32 C          25.7148  -27.4063  -43.3853 C.2       4 UNK         0.4949 
     33 O          26.4880  -27.9543  -42.5969 O.2       4 UNK        -0.5039 
     34 N          24.9089  -26.3859  -43.0520 N.am      5 UNK        -0.4663 
     35 CA         24.8136  -25.7187  -41.7504 C.3       5 UNK         0.0242 
     36 CB         26.0967  -24.9030  -41.4660 C.3       5 UNK        -0.1982 
     37 C          24.4163  -26.6976  -40.6297 C.2       5 UNK         0.5017 
     38 O          23.3463  -27.3004  -40.7133 O.2       5 UNK        -0.5012 
     39 N          25.2721  -26.8433  -39.6092 N.am      6 UNK        -0.4439 
     40 CA         25.0597  -27.6875  -38.4293 C.3       6 UNK         0.0297 
     41 CB         26.1621  -27.3901  -37.3993 C.3       6 UNK        -0.2006 
     42 C          24.9889  -29.1997  -38.7181 C.2       6 UNK         0.4892 
     43 O          24.5015  -29.9425  -37.8654 O.2       6 UNK        -0.5089 
     44 N          25.4669  -29.6357  -39.8925 N.am      7 UNK        -0.4243 
     45 CA         25.4158  -31.0312  -40.3362 C.3       7 UNK         0.0196 
     46 CB         26.4723  -31.2450  -41.4319 C.3       7 UNK        -0.2007 
     47 C          24.0251  -31.4727  -40.8328 C.2       7 UNK         0.5020 
     48 O          23.8243  -32.6735  -41.0263 O.2       7 UNK        -0.5147 
     49 N          23.1042  -30.5200  -41.0496 N.am      8 UNK        -0.4734 
     50 CA         21.7605  -30.7328  -41.5947 C.3       8 UNK         0.0238 
     51 CB         21.0263  -29.3840  -41.6730 C.3       8 UNK        -0.1912 
     52 C          20.9426  -31.7483  -40.7825 C.2       8 UNK         0.5038 
     53 O          20.5890  -31.4637  -39.6361 O.2       8 UNK        -0.5046 
     54 N          20.6573  -32.9013  -41.4023 N.am      9 UNK        -0.4200 
     55 CA         19.9065  -34.0297  -40.8254 C.3       9 UNK         0.0839 
     56 C          20.6046  -34.7099  -39.6065 C.2       9 UNK         0.5513 
     57 N          21.9093  -34.5438  -39.4168 N.am      9 UNK        -0.7519 
     58 O          19.9669  -35.4279  -38.8401 O.2       9 UNK        -0.4960 
     59 C59        18.4063  -33.6899  -40.5742 C.3       10 UNK        -0.0876 
     60 S60        17.5261  -33.2781  -42.1216 S.3       10 UNK        -0.2414 
     61 C61        17.4554  -31.4607  -42.0357 C.3       10 UNK         0.0169 
     62 H62        16.1509  -27.0313  -39.8335 H         1 UNK         0.0903 
     63 H63        14.6813  -27.4210  -40.7307 H         1 UNK         0.0903 
     64 H64        16.1853  -28.2911  -41.0619 H         1 UNK         0.0903 
     65 H65        16.4378  -27.6852  -43.2795 H         1 UNK         0.3096 
     66 H66        16.2262  -24.9154  -44.1429 H         1 UNK         0.1121 
     67 H67        17.2433  -27.3325  -45.7101 H         1 UNK         0.0849 
     68 H68        16.8119  -25.7985  -46.3577 H         1 UNK         0.0849 
     69 H69        14.1159  -28.3008  -43.9845 H         1 UNK         0.0865 
     70 H70        13.7295  -29.1057  -45.4782 H         1 UNK         0.0865 
     71 H71        15.3408  -29.8916  -42.7377 H         1 UNK         0.1346 
     72 H72        18.9336  -31.6079  -44.3259 H         1 UNK         0.1412 
     73 H73        16.3495  -29.3175  -46.8651 H         1 UNK         0.1426 
     74 H74        18.1360  -30.8388  -47.7976 H         1 UNK         0.0716 
     75 H75        19.3574  -31.5032  -46.7436 H         1 UNK         0.0716 
     76 H76        21.8062  -30.1169  -46.6463 H         1 UNK         0.0695 
     77 H77        20.8200  -30.0609  -45.2063 H         1 UNK         0.0695 
     78 H78        22.0343  -27.5564  -46.4906 H         1 UNK         0.0983 
     79 H79        20.2267  -27.8670  -44.3285 H         1 UNK         0.3095 
     80 H80        20.7752  -26.3394  -42.0852 H         1 UNK         0.0454 
     81 H81        20.6548  -23.5836  -43.4078 H         1 UNK         0.0851 
     82 H82        21.8282  -24.1368  -42.2294 H         1 UNK         0.0851 
     83 H83        20.1528  -23.9339  -41.7542 H         1 UNK         0.0851 
     84 H84        18.6380  -26.6210  -42.5743 H         1 UNK         0.2976 
     85 H85        24.1260  -27.0835  -46.0887 H         1 UNK         0.3116 
     86 H86        26.2288  -27.1244  -45.4169 H         1 UNK         0.0646 
     87 H87        25.8195  -30.0372  -44.5641 H         1 UNK         0.0847 
     88 H88        27.3616  -29.2274  -44.7799 H         1 UNK         0.0847 
     89 H89        26.3154  -29.4928  -46.1635 H         1 UNK         0.0847 
     90 H90        24.2452  -26.0604  -43.7483 H         1 UNK         0.3040 
     91 H91        23.9889  -25.0102  -41.8298 H         1 UNK         0.1015 
     92 H92        26.9830  -25.5339  -41.3880 H         1 UNK         0.0786 
     93 H93        26.0074  -24.3318  -40.5408 H         1 UNK         0.0786 
     94 H94        26.2810  -24.1821  -42.2627 H         1 UNK         0.0786 
     95 H95        26.1386  -26.3258  -39.6448 H         1 UNK         0.3172 
     96 H96        24.1006  -27.4023  -37.9921 H         1 UNK         0.0595 
     97 H97        26.0152  -27.9740  -36.4894 H         1 UNK         0.0839 
     98 H98        26.1634  -26.3395  -37.1082 H         1 UNK         0.0839 
     99 H99        27.1524  -27.6351  -37.7855 H         1 UNK         0.0839 
    100 H100       25.8387  -28.9615  -40.5508 H         1 UNK         0.2998 
    101 H101       25.6734  -31.6727  -39.4906 H         1 UNK         0.0822 
    102 H102       26.5053  -32.2891  -41.7462 H         1 UNK         0.0787 
    103 H103       26.2564  -30.6459  -42.3160 H         1 UNK         0.0787 
    104 H104       27.4700  -30.9800  -41.0817 H         1 UNK         0.0787 
    105 H105       23.3580  -29.5576  -40.8625 H         1 UNK         0.3055 
    106 H106       21.8849  -31.1075  -42.6127 H         1 UNK         0.1106 
    107 H107       20.0661  -29.4837  -42.1785 H         1 UNK         0.0828 
    108 H108       20.8411  -28.9637  -40.6835 H         1 UNK         0.0828 
    109 H109       21.6128  -28.6580  -42.2316 H         1 UNK         0.0828 
    110 H110       21.0285  -33.0610  -42.3272 H         1 UNK         0.2931 
    111 H111       19.9274  -34.8015  -41.5958 H         1 UNK         0.0412 
    112 H112       22.4527  -33.9550  -40.0376 H         1 UNK         0.3472 
    113 H113       22.3555  -34.9970  -38.6352 H         1 UNK         0.3472 
    114 H114       18.3009  -32.8809  -39.8498 H         1 UNK         0.0970 
    115 H115       17.8890  -34.5468  -40.1392 H         1 UNK         0.0970 
    116 H116       18.4016  -31.0646  -41.6766 H         1 UNK         0.0612 
    117 H117       16.7045  -31.1753  -41.2975 H         1 UNK         0.0612 
@<TRIPOS>BOND
     1    1    2 1    
     2    1   62 1    
     3    1   63 1    
     4    1   64 1    
     5    2    3 2    
     6    2    4 am   BACKBONE|DICT|INTERRES
     7    4    5 1    
     8    4   65 1    
     9    5    6 1    
    10    5   25 1    
    11    5   66 1    
    12    6    7 1    
    13    6   67 1    
    14    6   68 1    
    15    7    8 1    
    16    8    9 1    
    17    8   69 1    
    18    8   70 1    
    19    9   10 ar   
    20    9   14 ar   
    21   10   11 ar   
    22   10   71 1    
    23   11   12 ar   
    24   11   61 1    
    25   12   13 ar   
    26   12   72 1    
    27   13   14 ar   
    28   13   15 1    
    29   14   73 1    
    30   15   16 1    
    31   15   74 1    
    32   15   75 1    
    33   16   17 1    
    34   17   18 1    
    35   17   76 1    
    36   17   77 1    
    37   18   19 1    
    38   18   27 1    
    39   18   78 1    
    40   19   20 am   BACKBONE|DICT|INTERRES
    41   19   79 1    
    42   20   21 2    
    43   20   22 1    
    44   22   23 1    
    45   22   24 1    
    46   22   80 1    
    47   23   81 1    
    48   23   82 1    
    49   23   83 1    
    50   24   25 am   BACKBONE|DICT|INTERRES
    51   24   84 1    
    52   25   26 2    
    53   27   28 2    
    54   27   29 am   BACKBONE|DICT|INTERRES
    55   29   30 1    
    56   29   85 1    
    57   30   31 1    
    58   30   32 1    
    59   30   86 1    
    60   31   87 1    
    61   31   88 1    
    62   31   89 1    
    63   32   33 2    
    64   32   34 am   BACKBONE|DICT|INTERRES
    65   34   35 1    
    66   34   90 1    
    67   35   36 1    
    68   35   37 1    
    69   35   91 1    
    70   36   92 1    
    71   36   93 1    
    72   36   94 1    
    73   37   38 2    
    74   37   39 am   BACKBONE|DICT|INTERRES
    75   39   40 1    
    76   39   95 1    
    77   40   41 1    
    78   40   42 1    
    79   40   96 1    
    80   41   97 1    
    81   41   98 1    
    82   41   99 1    
    83   42   43 2    
    84   42   44 am   BACKBONE|DICT|INTERRES
    85   44   45 1    
    86   44  100 1    
    87   45   46 1    
    88   45   47 1    
    89   45  101 1    
    90   46  102 1    
    91   46  103 1    
    92   46  104 1    
    93   47   48 2    
    94   47   49 am   BACKBONE|DICT|INTERRES
    95   49   50 1    
    96   49  105 1    
    97   50   51 1    
    98   50   52 1    
    99   50  106 1    
   100   51  107 1    
   101   51  108 1    
   102   51  109 1    
   103   52   53 2    
   104   52   54 am   BACKBONE|DICT|INTERRES
   105   54   55 1    
   106   54  110 1    
   107   55   56 1    
   108   55   59 1    
   109   55  111 1    
   110   56   57 am   BACKBONE|DICT|INTERRES
   111   56   58 2    
   112   57  112 1    
   113   57  113 1    
   114   59   60 1    
   115   59  114 1    
   116   59  115 1    
   117   60   61 1    
   118   61  116 1    
   119   61  117 1    
@<TRIPOS>SUBSTRUCTURE
     1 UNK         1 GROUP             0       ****    0 ROOT    
