@<TRIPOS>MOLECULE
3R8
117   119    1
SMALL
USER_CHARGES


@<TRIPOS>ATOM
      1 CA         20.0617  -33.0181  -46.8667 C.3       0 UNK        -0.2013 
      2 C          19.1208  -31.8845  -46.4882 C.2       0 UNK         0.4866 
      3 O          18.1569  -32.1085  -45.7567 O.2       0 UNK        -0.5176 
      4 N          19.3858  -30.6721  -46.9889 N.am      1 UNK        -0.4884 
      5 CA         18.5639  -29.4800  -46.7612 C.3       1 UNK         0.0853 
      6 C6         17.3363  -29.4355  -47.7117 C.3       10 UNK        -0.0849 
      7 S7         15.9942  -28.3166  -47.1818 S.3       10 UNK        -0.2776 
      8 C8         15.2634  -29.2046  -45.7667 C.3       10 UNK         0.0316 
      9 C9         15.8643  -28.7544  -44.4407 C.ar      10 UNK        -0.0863 
     10 C10        16.5654  -29.6548  -43.6318 C.ar      10 UNK        -0.1009 
     11 C11        17.0978  -29.2391  -42.4082 C.ar      10 UNK        -0.0712 
     12 C12        16.9018  -27.9233  -41.9821 C.ar      10 UNK        -0.0894 
     13 C13        16.2352  -27.0019  -42.7956 C.ar      10 UNK        -0.0745 
     14 C14        15.7066  -27.4307  -44.0166 C.ar      10 UNK        -0.0972 
     15 C15        16.0720  -25.5445  -42.3711 C.3       10 UNK         0.0209 
     16 S16        17.5879  -24.7965  -41.6757 S.3       10 UNK        -0.2568 
     17 C17        18.8160  -25.0441  -43.0076 C.3       10 UNK        -0.0983 
     18 CA         19.8872  -26.1159  -42.6419 C.3       3 UNK         0.0876 
     19 N          20.4139  -26.8126  -43.8182 N.am      3 UNK        -0.4424 
     20 C          21.1454  -26.2761  -44.8057 C.2       2 UNK         0.4918 
     21 O          21.4699  -25.0895  -44.8606 O.2       2 UNK        -0.4875 
     22 CA         21.5717  -27.2224  -45.9451 C.3       2 UNK         0.0481 
     23 CB         22.9780  -27.7859  -45.6944 C.3       2 UNK        -0.1831 
     24 N          20.6328  -28.3318  -46.1396 N.am      2 UNK        -0.4498 
     25 C          19.4528  -28.2204  -46.7681 C.2       1 UNK         0.5027 
     26 O          19.0860  -27.1924  -47.3389 O.2       1 UNK        -0.4969 
     27 C          21.0127  -25.6244  -41.6998 C.2       3 UNK         0.5005 
     28 O          22.0821  -26.2401  -41.6531 O.2       3 UNK        -0.5279 
     29 N          20.7384  -24.5588  -40.9309 N.am      4 UNK        -0.4463 
     30 CA         21.5894  -23.9647  -39.8948 C.3       4 UNK         0.0283 
     31 CB         22.8102  -23.2600  -40.5314 C.3       4 UNK        -0.1875 
     32 C          21.9445  -25.0091  -38.8190 C.2       4 UNK         0.4949 
     33 O          21.0537  -25.4343  -38.0817 O.2       4 UNK        -0.5039 
     34 N          23.2131  -25.4265  -38.7751 N.am      5 UNK        -0.4663 
     35 CA         23.7114  -26.5343  -37.9613 C.3       5 UNK         0.0242 
     36 CB         24.4075  -25.9758  -36.7043 C.3       5 UNK        -0.1982 
     37 C          24.6271  -27.4387  -38.8057 C.2       5 UNK         0.5017 
     38 O          25.5970  -27.9856  -38.2769 O.2       5 UNK        -0.5012 
     39 N          24.3322  -27.5576  -40.1102 N.am      6 UNK        -0.4439 
     40 CA         25.0927  -28.3706  -41.0609 C.3       6 UNK         0.0297 
     41 CB         24.6193  -28.0484  -42.4853 C.3       6 UNK        -0.2006 
     42 C          24.9446  -29.8762  -40.7908 C.2       6 UNK         0.4892 
     43 O          23.8672  -30.3299  -40.3970 O.2       6 UNK        -0.5089 
     44 N          26.0163  -30.6282  -41.0784 N.am      7 UNK        -0.4243 
     45 CA         26.0982  -32.0860  -40.9221 C.3       7 UNK         0.0196 
     46 CB         27.5363  -32.5456  -41.2108 C.3       7 UNK        -0.2007 
     47 C          25.0993  -32.8741  -41.7889 C.2       7 UNK         0.5020 
     48 O          24.7494  -33.9981  -41.4297 O.2       7 UNK        -0.5147 
     49 N          24.6267  -32.2657  -42.8869 N.am      8 UNK        -0.4734 
     50 CA         23.5834  -32.7975  -43.7706 C.3       8 UNK         0.0238 
     51 CB         23.4035  -31.8456  -44.9638 C.3       8 UNK        -0.1912 
     52 C          22.2329  -33.0352  -43.0673 C.2       8 UNK         0.5038 
     53 O          21.4898  -33.9215  -43.4887 O.2       8 UNK        -0.5046 
     54 N          21.9544  -32.2639  -42.0079 N.am      9 UNK        -0.4200 
     55 CA         20.7946  -32.4453  -41.1234 C.3       9 UNK         0.0839 
     56 C          21.0031  -33.5317  -40.0263 C.2       9 UNK         0.5513 
     57 N          22.1581  -34.1790  -39.9187 N.am      9 UNK        -0.7519 
     58 O          20.0844  -33.8074  -39.2590 O.2       9 UNK        -0.4960 
     59 C59        20.3354  -31.0965  -40.5112 C.3       10 UNK        -0.0876 
     60 S60        19.6860  -29.9507  -41.7743 S.3       10 UNK        -0.2414 
     61 C61        17.8969  -30.2003  -41.5451 C.3       10 UNK         0.0169 
     62 H62        20.9021  -32.6707  -47.4671 H         1 UNK         0.0903 
     63 H63        20.4561  -33.4937  -45.9697 H         1 UNK         0.0903 
     64 H64        19.5245  -33.7725  -47.4406 H         1 UNK         0.0903 
     65 H65        20.1836  -30.5395  -47.5971 H         1 UNK         0.3096 
     66 H66        18.1940  -29.5368  -45.7388 H         1 UNK         0.1121 
     67 H67        17.6475  -29.1535  -48.7190 H         1 UNK         0.0849 
     68 H68        16.9026  -30.4317  -47.8117 H         1 UNK         0.0849 
     69 H69        14.1907  -29.0070  -45.7470 H         1 UNK         0.0865 
     70 H70        15.3706  -30.2818  -45.9047 H         1 UNK         0.0865 
     71 H71        16.7070  -30.6768  -43.9577 H         1 UNK         0.1346 
     72 H72        17.3032  -27.6073  -41.0290 H         1 UNK         0.1412 
     73 H73        15.1747  -26.7317  -44.6481 H         1 UNK         0.1426 
     74 H74        15.2787  -25.4853  -41.6251 H         1 UNK         0.0716 
     75 H75        15.7477  -24.9336  -43.2151 H         1 UNK         0.0716 
     76 H76        19.2798  -24.0888  -43.2603 H         1 UNK         0.0695 
     77 H77        18.2788  -25.3477  -43.9079 H         1 UNK         0.0695 
     78 H78        19.3943  -26.9023  -42.0734 H         1 UNK         0.0983 
     79 H79        20.2321  -27.8043  -43.8445 H         1 UNK         0.3095 
     80 H80        21.6113  -26.6312  -46.8627 H         1 UNK         0.0454 
     81 H81        22.9919  -28.4611  -44.8413 H         1 UNK         0.0851 
     82 H82        23.6923  -26.9862  -45.4929 H         1 UNK         0.0851 
     83 H83        23.3444  -28.3357  -46.5614 H         1 UNK         0.0851 
     84 H84        20.8696  -29.2171  -45.7154 H         1 UNK         0.2976 
     85 H85        19.8047  -24.1732  -41.0043 H         1 UNK         0.3116 
     86 H86        20.9903  -23.2012  -39.3960 H         1 UNK         0.0646 
     87 H87        23.4356  -23.9430  -41.1073 H         1 UNK         0.0847 
     88 H88        23.4370  -22.7928  -39.7707 H         1 UNK         0.0847 
     89 H89        22.4898  -22.4673  -41.2077 H         1 UNK         0.0847 
     90 H90        23.8678  -25.0371  -39.4400 H         1 UNK         0.3040 
     91 H91        22.8796  -27.1669  -37.6417 H         1 UNK         0.1015 
     92 H92        24.7451  -26.7809  -36.0500 H         1 UNK         0.0786 
     93 H93        23.7295  -25.3519  -36.1216 H         1 UNK         0.0786 
     94 H94        25.2799  -25.3737  -36.9622 H         1 UNK         0.0786 
     95 H95        23.4981  -27.1040  -40.4745 H         1 UNK         0.3172 
     96 H96        26.1459  -28.0954  -40.9727 H         1 UNK         0.0595 
     97 H97        23.5687  -28.3108  -42.6151 H         1 UNK         0.0839 
     98 H98        25.1933  -28.6001  -43.2309 H         1 UNK         0.0839 
     99 H99        24.7276  -26.9874  -42.7121 H         1 UNK         0.0839 
    100 H100       26.8513  -30.1674  -41.4118 H         1 UNK         0.2998 
    101 H101       25.8670  -32.3161  -39.8797 H         1 UNK         0.0822 
    102 H102       28.2489  -32.0701  -40.5365 H         1 UNK         0.0787 
    103 H103       27.6364  -33.6236  -41.0754 H         1 UNK         0.0787 
    104 H104       27.8358  -32.3169  -42.2345 H         1 UNK         0.0787 
    105 H105       24.9826  -31.3469  -43.1045 H         1 UNK         0.3055 
    106 H106       23.9281  -33.7639  -44.1448 H         1 UNK         0.1106 
    107 H107       22.6783  -32.2438  -45.6731 H         1 UNK         0.0828 
    108 H108       23.0451  -30.8669  -44.6456 H         1 UNK         0.0828 
    109 H109       24.3379  -31.7039  -45.5068 H         1 UNK         0.0828 
    110 H110       22.6375  -31.5818  -41.7008 H         1 UNK         0.2931 
    111 H111       19.9652  -32.8155  -41.7296 H         1 UNK         0.0412 
    112 H112       22.9315  -33.9936  -40.5469 H         1 UNK         0.3472 
    113 H113       22.2582  -34.8807  -39.2024 H         1 UNK         0.3472 
    114 H114       21.1658  -30.6110  -39.9955 H         1 UNK         0.0970 
    115 H115       19.5674  -31.2504  -39.7510 H         1 UNK         0.0970 
    116 H116       17.6356  -30.0490  -40.4966 H         1 UNK         0.0612 
    117 H117       17.6436  -31.2343  -41.7849 H         1 UNK         0.0612 
@<TRIPOS>BOND
     1    1    2 1    
     2    1   62 1    
     3    1   63 1    
     4    1   64 1    
     5    2    3 2    
     6    2    4 am   BACKBONE|DICT|INTERRES
     7    4    5 1    
     8    4   65 1    
     9    5    6 1    
    10    5   25 1    
    11    5   66 1    
    12    6    7 1    
    13    6   67 1    
    14    6   68 1    
    15    7    8 1    
    16    8    9 1    
    17    8   69 1    
    18    8   70 1    
    19    9   10 ar   
    20    9   14 ar   
    21   10   11 ar   
    22   10   71 1    
    23   11   12 ar   
    24   11   61 1    
    25   12   13 ar   
    26   12   72 1    
    27   13   14 ar   
    28   13   15 1    
    29   14   73 1    
    30   15   16 1    
    31   15   74 1    
    32   15   75 1    
    33   16   17 1    
    34   17   18 1    
    35   17   76 1    
    36   17   77 1    
    37   18   19 1    
    38   18   27 1    
    39   18   78 1    
    40   19   20 am   BACKBONE|DICT|INTERRES
    41   19   79 1    
    42   20   21 2    
    43   20   22 1    
    44   22   23 1    
    45   22   24 1    
    46   22   80 1    
    47   23   81 1    
    48   23   82 1    
    49   23   83 1    
    50   24   25 am   BACKBONE|DICT|INTERRES
    51   24   84 1    
    52   25   26 2    
    53   27   28 2    
    54   27   29 am   BACKBONE|DICT|INTERRES
    55   29   30 1    
    56   29   85 1    
    57   30   31 1    
    58   30   32 1    
    59   30   86 1    
    60   31   87 1    
    61   31   88 1    
    62   31   89 1    
    63   32   33 2    
    64   32   34 am   BACKBONE|DICT|INTERRES
    65   34   35 1    
    66   34   90 1    
    67   35   36 1    
    68   35   37 1    
    69   35   91 1    
    70   36   92 1    
    71   36   93 1    
    72   36   94 1    
    73   37   38 2    
    74   37   39 am   BACKBONE|DICT|INTERRES
    75   39   40 1    
    76   39   95 1    
    77   40   41 1    
    78   40   42 1    
    79   40   96 1    
    80   41   97 1    
    81   41   98 1    
    82   41   99 1    
    83   42   43 2    
    84   42   44 am   BACKBONE|DICT|INTERRES
    85   44   45 1    
    86   44  100 1    
    87   45   46 1    
    88   45   47 1    
    89   45  101 1    
    90   46  102 1    
    91   46  103 1    
    92   46  104 1    
    93   47   48 2    
    94   47   49 am   BACKBONE|DICT|INTERRES
    95   49   50 1    
    96   49  105 1    
    97   50   51 1    
    98   50   52 1    
    99   50  106 1    
   100   51  107 1    
   101   51  108 1    
   102   51  109 1    
   103   52   53 2    
   104   52   54 am   BACKBONE|DICT|INTERRES
   105   54   55 1    
   106   54  110 1    
   107   55   56 1    
   108   55   59 1    
   109   55  111 1    
   110   56   57 am   BACKBONE|DICT|INTERRES
   111   56   58 2    
   112   57  112 1    
   113   57  113 1    
   114   59   60 1    
   115   59  114 1    
   116   59  115 1    
   117   60   61 1    
   118   61  116 1    
   119   61  117 1    
@<TRIPOS>SUBSTRUCTURE
     1 UNK         1 GROUP             0       ****    0 ROOT    
