@<TRIPOS>MOLECULE
3R8
117   119    1
SMALL
USER_CHARGES


@<TRIPOS>ATOM
      1 CA         17.7603  -27.5122  -41.1548 C.3       0 UNK        -0.2013 
      2 C          17.7542  -26.9079  -42.5494 C.2       0 UNK         0.4866 
      3 O          18.7296  -27.0677  -43.2834 O.2       0 UNK        -0.5176 
      4 N          16.6793  -26.1859  -42.9026 N.am      1 UNK        -0.4884 
      5 CA         16.3728  -25.6135  -44.2295 C.3       1 UNK         0.0853 
      6 C6         16.1364  -26.7034  -45.3161 C.3       10 UNK        -0.0849 
      7 S7         14.8639  -27.9338  -44.8712 S.3       10 UNK        -0.2776 
      8 C8         15.2535  -29.2907  -46.0294 C.3       10 UNK         0.0316 
      9 C9         16.5438  -30.0113  -45.6586 C.ar      10 UNK        -0.0863 
     10 C10        16.5655  -30.8845  -44.5680 C.ar      10 UNK        -0.1009 
     11 C11        17.7472  -31.5332  -44.2027 C.ar      10 UNK        -0.0712 
     12 C12        18.9162  -31.2915  -44.9301 C.ar      10 UNK        -0.0894 
     13 C13        18.9194  -30.4118  -46.0182 C.ar      10 UNK        -0.0745 
     14 C14        17.7142  -29.8028  -46.3971 C.ar      10 UNK        -0.0972 
     15 C15        20.2499  -30.1496  -46.7356 C.3       10 UNK         0.0209 
     16 S16        20.3844  -28.5927  -47.6964 S.3       10 UNK        -0.2568 
     17 C17        19.8868  -27.3210  -46.4871 C.3       10 UNK        -0.0983 
     18 CA         21.0201  -26.5068  -45.8173 C.3       3 UNK         0.0876 
     19 N          20.4160  -25.4994  -44.9525 N.am      3 UNK        -0.4424 
     20 C          20.4847  -24.1715  -45.0831 C.2       2 UNK         0.4918 
     21 O          21.2131  -23.5953  -45.8922 O.2       2 UNK        -0.4875 
     22 CA         19.5407  -23.3633  -44.1597 C.3       2 UNK         0.0481 
     23 CB         19.2378  -21.9498  -44.6992 C.3       2 UNK        -0.1831 
     24 N          18.2997  -24.0957  -43.8479 N.am      2 UNK        -0.4498 
     25 C          17.3933  -24.5573  -44.7282 C.2       1 UNK         0.5027 
     26 O          17.3685  -24.2135  -45.9112 O.2       1 UNK        -0.4969 
     27 C          21.9382  -27.3902  -44.9574 C.2       3 UNK         0.5005 
     28 O          23.1140  -27.5586  -45.2858 O.2       3 UNK        -0.5279 
     29 N          21.3978  -27.9071  -43.8443 N.am      4 UNK        -0.4463 
     30 CA         22.0674  -28.7895  -42.8879 C.3       4 UNK         0.0283 
     31 CB         20.9880  -29.6005  -42.1535 C.3       4 UNK        -0.1875 
     32 C          22.9857  -28.0170  -41.9199 C.2       4 UNK         0.4949 
     33 O          22.8535  -28.1445  -40.7012 O.2       4 UNK        -0.5039 
     34 N          23.8908  -27.2046  -42.4781 N.am      5 UNK        -0.4663 
     35 CA         24.9004  -26.4448  -41.7434 C.3       5 UNK         0.0242 
     36 CB         25.4790  -25.3535  -42.6586 C.3       5 UNK        -0.1982 
     37 C          26.0035  -27.3877  -41.2413 C.2       5 UNK         0.5017 
     38 O          26.5995  -28.0987  -42.0544 O.2       5 UNK        -0.5012 
     39 N          26.2369  -27.3905  -39.9208 N.am      6 UNK        -0.4439 
     40 CA         27.1565  -28.2452  -39.1516 C.3       6 UNK         0.0297 
     41 CB         28.6235  -28.0523  -39.5849 C.3       6 UNK        -0.2006 
     42 C          26.7593  -29.7337  -39.1440 C.2       6 UNK         0.4892 
     43 O          26.5990  -30.3123  -38.0684 O.2       6 UNK        -0.5089 
     44 N          26.5785  -30.3185  -40.3329 N.am      7 UNK        -0.4243 
     45 CA         26.0434  -31.6586  -40.5552 C.3       7 UNK         0.0196 
     46 CB         26.5353  -32.1688  -41.9223 C.3       7 UNK        -0.2007 
     47 C          24.5093  -31.6163  -40.4602 C.2       7 UNK         0.5020 
     48 O          23.8302  -31.5726  -41.4870 O.2       7 UNK        -0.5147 
     49 N          24.0027  -31.5780  -39.2212 N.am      8 UNK        -0.4734 
     50 CA         22.5784  -31.5137  -38.8803 C.3       8 UNK         0.0238 
     51 CB         22.4438  -31.3467  -37.3576 C.3       8 UNK        -0.1912 
     52 C          21.7836  -32.7451  -39.3564 C.2       8 UNK         0.5038 
     53 O          22.3539  -33.8320  -39.4867 O.2       8 UNK        -0.5046 
     54 N          20.4774  -32.5481  -39.5776 N.am      9 UNK        -0.4200 
     55 CA         19.5170  -33.5782  -40.0054 C.3       9 UNK         0.0839 
     56 C          19.4058  -34.7621  -39.0050 C.2       9 UNK         0.5513 
     57 N          19.2593  -35.9829  -39.5012 N.am      9 UNK        -0.7519 
     58 O          19.4006  -34.5751  -37.7898 O.2       9 UNK        -0.4960 
     59 C59        18.1106  -32.9773  -40.2700 C.3       10 UNK        -0.0876 
     60 S60        18.1231  -31.6052  -41.4714 S.3       10 UNK        -0.2414 
     61 C61        17.7619  -32.4876  -43.0184 C.3       10 UNK         0.0169 
     62 H62        18.6415  -27.1824  -40.6054 H         1 UNK         0.0903 
     63 H63        16.8765  -27.2315  -40.5825 H         1 UNK         0.0903 
     64 H64        17.7881  -28.5988  -41.2242 H         1 UNK         0.0903 
     65 H65        15.9351  -26.0792  -42.2266 H         1 UNK         0.3096 
     66 H66        15.4363  -25.0663  -44.1091 H         1 UNK         0.1121 
     67 H67        17.0697  -27.2242  -45.5210 H         1 UNK         0.0849 
     68 H68        15.8277  -26.2515  -46.2607 H         1 UNK         0.0849 
     69 H69        14.4296  -30.0059  -46.0235 H         1 UNK         0.0865 
     70 H70        15.3049  -28.8974  -47.0460 H         1 UNK         0.0865 
     71 H71        15.6629  -31.0501  -43.9954 H         1 UNK         0.1346 
     72 H72        19.8344  -31.7808  -44.6342 H         1 UNK         0.1412 
     73 H73        17.6906  -29.1323  -47.2445 H         1 UNK         0.1426 
     74 H74        20.4447  -30.9837  -47.4107 H         1 UNK         0.0716 
     75 H75        21.0592  -30.1553  -46.0036 H         1 UNK         0.0716 
     76 H76        19.2712  -27.7794  -45.7168 H         1 UNK         0.0695 
     77 H77        19.2217  -26.6360  -47.0159 H         1 UNK         0.0695 
     78 H78        21.6274  -26.0326  -46.5913 H         1 UNK         0.0983 
     79 H79        19.7844  -25.8727  -44.2483 H         1 UNK         0.3095 
     80 H80        20.0702  -23.2476  -43.2131 H         1 UNK         0.0454 
     81 H81        18.5673  -21.4061  -44.0341 H         1 UNK         0.0851 
     82 H82        18.7789  -21.9802  -45.6876 H         1 UNK         0.0851 
     83 H83        20.1523  -21.3620  -44.7866 H         1 UNK         0.0851 
     84 H84        18.2180  -24.4333  -42.8985 H         1 UNK         0.2976 
     85 H85        20.4256  -27.6884  -43.6340 H         1 UNK         0.3116 
     86 H86        22.6942  -29.4924  -43.4408 H         1 UNK         0.0646 
     87 H87        20.3902  -28.9760  -41.4894 H         1 UNK         0.0847 
     88 H88        21.4349  -30.3908  -41.5536 H         1 UNK         0.0847 
     89 H89        20.3095  -30.0805  -42.8556 H         1 UNK         0.0847 
     90 H90        23.9412  -27.1890  -43.4922 H         1 UNK         0.3040 
     91 H91        24.4182  -25.9595  -40.8917 H         1 UNK         0.1015 
     92 H92        25.9584  -25.7784  -43.5418 H         1 UNK         0.0786 
     93 H93        26.2293  -24.7613  -42.1330 H         1 UNK         0.0786 
     94 H94        24.7025  -24.6672  -42.9972 H         1 UNK         0.0786 
     95 H95        25.6580  -26.7874  -39.3517 H         1 UNK         0.3172 
     96 H96        27.0797  -27.8985  -38.1196 H         1 UNK         0.0595 
     97 H97        28.8015  -28.3878  -40.6069 H         1 UNK         0.0839 
     98 H98        29.2951  -28.6198  -38.9393 H         1 UNK         0.0839 
     99 H99        28.9210  -27.0057  -39.5204 H         1 UNK         0.0839 
    100 H100       26.6743  -29.7231  -41.1524 H         1 UNK         0.2998 
    101 H101       26.4191  -32.3366  -39.7856 H         1 UNK         0.0822 
    102 H102       26.1351  -33.1611  -42.1342 H         1 UNK         0.0787 
    103 H103       26.2270  -31.5105  -42.7359 H         1 UNK         0.0787 
    104 H104       27.6225  -32.2444  -41.9480 H         1 UNK         0.0787 
    105 H105       24.6546  -31.5763  -38.4475 H         1 UNK         0.3055 
    106 H106       22.1689  -30.6248  -39.3641 H         1 UNK         0.1106 
    107 H107       22.8598  -32.2005  -36.8209 H         1 UNK         0.0828 
    108 H108       22.9546  -30.4487  -37.0093 H         1 UNK         0.0828 
    109 H109       21.3975  -31.2563  -37.0622 H         1 UNK         0.0828 
    110 H110       20.0858  -31.6311  -39.4253 H         1 UNK         0.2931 
    111 H111       19.8937  -33.9739  -40.9509 H         1 UNK         0.0412 
    112 H112       19.2526  -36.1446  -40.4966 H         1 UNK         0.3472 
    113 H113       19.1676  -36.7620  -38.8676 H         1 UNK         0.3472 
    114 H114       17.6804  -32.6000  -39.3401 H         1 UNK         0.0970 
    115 H115       17.4233  -33.7490  -40.6226 H         1 UNK         0.0970 
    116 H116       16.7981  -32.9919  -42.9331 H         1 UNK         0.0612 
    117 H117       18.5095  -33.2672  -43.1729 H         1 UNK         0.0612 
@<TRIPOS>BOND
     1    1    2 1    
     2    1   62 1    
     3    1   63 1    
     4    1   64 1    
     5    2    3 2    
     6    2    4 am   BACKBONE|DICT|INTERRES
     7    4    5 1    
     8    4   65 1    
     9    5    6 1    
    10    5   25 1    
    11    5   66 1    
    12    6    7 1    
    13    6   67 1    
    14    6   68 1    
    15    7    8 1    
    16    8    9 1    
    17    8   69 1    
    18    8   70 1    
    19    9   10 ar   
    20    9   14 ar   
    21   10   11 ar   
    22   10   71 1    
    23   11   12 ar   
    24   11   61 1    
    25   12   13 ar   
    26   12   72 1    
    27   13   14 ar   
    28   13   15 1    
    29   14   73 1    
    30   15   16 1    
    31   15   74 1    
    32   15   75 1    
    33   16   17 1    
    34   17   18 1    
    35   17   76 1    
    36   17   77 1    
    37   18   19 1    
    38   18   27 1    
    39   18   78 1    
    40   19   20 am   BACKBONE|DICT|INTERRES
    41   19   79 1    
    42   20   21 2    
    43   20   22 1    
    44   22   23 1    
    45   22   24 1    
    46   22   80 1    
    47   23   81 1    
    48   23   82 1    
    49   23   83 1    
    50   24   25 am   BACKBONE|DICT|INTERRES
    51   24   84 1    
    52   25   26 2    
    53   27   28 2    
    54   27   29 am   BACKBONE|DICT|INTERRES
    55   29   30 1    
    56   29   85 1    
    57   30   31 1    
    58   30   32 1    
    59   30   86 1    
    60   31   87 1    
    61   31   88 1    
    62   31   89 1    
    63   32   33 2    
    64   32   34 am   BACKBONE|DICT|INTERRES
    65   34   35 1    
    66   34   90 1    
    67   35   36 1    
    68   35   37 1    
    69   35   91 1    
    70   36   92 1    
    71   36   93 1    
    72   36   94 1    
    73   37   38 2    
    74   37   39 am   BACKBONE|DICT|INTERRES
    75   39   40 1    
    76   39   95 1    
    77   40   41 1    
    78   40   42 1    
    79   40   96 1    
    80   41   97 1    
    81   41   98 1    
    82   41   99 1    
    83   42   43 2    
    84   42   44 am   BACKBONE|DICT|INTERRES
    85   44   45 1    
    86   44  100 1    
    87   45   46 1    
    88   45   47 1    
    89   45  101 1    
    90   46  102 1    
    91   46  103 1    
    92   46  104 1    
    93   47   48 2    
    94   47   49 am   BACKBONE|DICT|INTERRES
    95   49   50 1    
    96   49  105 1    
    97   50   51 1    
    98   50   52 1    
    99   50  106 1    
   100   51  107 1    
   101   51  108 1    
   102   51  109 1    
   103   52   53 2    
   104   52   54 am   BACKBONE|DICT|INTERRES
   105   54   55 1    
   106   54  110 1    
   107   55   56 1    
   108   55   59 1    
   109   55  111 1    
   110   56   57 am   BACKBONE|DICT|INTERRES
   111   56   58 2    
   112   57  112 1    
   113   57  113 1    
   114   59   60 1    
   115   59  114 1    
   116   59  115 1    
   117   60   61 1    
   118   61  116 1    
   119   61  117 1    
@<TRIPOS>SUBSTRUCTURE
     1 UNK         1 GROUP             0       ****    0 ROOT    
