@<TRIPOS>MOLECULE
3R8
117   119    1
SMALL
USER_CHARGES


@<TRIPOS>ATOM
      1 CA         16.2771  -22.5564  -45.3672 C.3       0 UNK        -0.2013 
      2 C          16.6678  -23.9878  -45.0316 C.2       0 UNK         0.4866 
      3 O          17.7575  -24.4260  -45.4010 O.2       0 UNK        -0.5176 
      4 N          15.7874  -24.7196  -44.3331 N.am      1 UNK        -0.4884 
      5 CA         15.9976  -26.1049  -43.8936 C.3       1 UNK         0.0853 
      6 C6         14.6938  -26.6959  -43.2998 C.3       10 UNK        -0.0849 
      7 S7         14.7337  -28.4751  -42.8780 S.3       10 UNK        -0.2776 
      8 C8         14.8539  -29.3001  -44.5023 C.3       10 UNK         0.0316 
      9 C9         16.3011  -29.5836  -44.8894 C.ar      10 UNK        -0.0863 
     10 C10        17.0738  -30.4546  -44.1140 C.ar      10 UNK        -0.1009 
     11 C11        18.4143  -30.7058  -44.4338 C.ar      10 UNK        -0.0712 
     12 C12        18.9669  -30.0969  -45.5653 C.ar      10 UNK        -0.0894 
     13 C13        18.1969  -29.2529  -46.3701 C.ar      10 UNK        -0.0745 
     14 C14        16.8656  -28.9982  -46.0266 C.ar      10 UNK        -0.0972 
     15 C15        18.7838  -28.6522  -47.6389 C.3       10 UNK         0.0209 
     16 S16        19.1693  -26.8851  -47.4529 S.3       10 UNK        -0.2568 
     17 C17        20.8397  -26.9108  -46.7171 C.3       10 UNK        -0.0983 
     18 CA         20.9533  -25.9306  -45.5167 C.3       3 UNK         0.0876 
     19 N          20.1102  -26.3455  -44.3837 N.am      3 UNK        -0.4424 
     20 C          20.3470  -27.3434  -43.5153 C.2       2 UNK         0.4918 
     21 O          21.3994  -27.9787  -43.4734 O.2       2 UNK        -0.4875 
     22 CA         19.2277  -27.7295  -42.5368 C.3       2 UNK         0.0481 
     23 CB         19.5120  -27.2377  -41.1047 C.3       2 UNK        -0.1831 
     24 N          17.8945  -27.3811  -43.0399 N.am      2 UNK        -0.4498 
     25 C          17.2197  -26.2278  -42.9531 C.2       1 UNK         0.5027 
     26 O          17.5400  -25.2815  -42.2303 O.2       1 UNK        -0.4969 
     27 C          22.4190  -25.6191  -45.1232 C.2       3 UNK         0.5005 
     28 O          23.3378  -25.8788  -45.9027 O.2       3 UNK        -0.5279 
     29 N          22.6085  -25.0842  -43.9049 N.am      4 UNK        -0.4463 
     30 CA         23.8894  -24.7970  -43.2413 C.3       4 UNK         0.0283 
     31 CB         24.6684  -23.6958  -43.9921 C.3       4 UNK        -0.1875 
     32 C          24.7569  -26.0463  -42.9636 C.2       4 UNK         0.4949 
     33 O          25.9555  -25.9068  -42.7176 O.2       4 UNK        -0.5039 
     34 N          24.1435  -27.2369  -42.9727 N.am      5 UNK        -0.4663 
     35 CA         24.7729  -28.5335  -42.7232 C.3       5 UNK         0.0242 
     36 CB         24.7173  -29.3700  -44.0152 C.3       5 UNK        -0.1982 
     37 C          24.0765  -29.2340  -41.5457 C.2       5 UNK         0.5017 
     38 O          23.8927  -30.4515  -41.5727 O.2       5 UNK        -0.5012 
     39 N          23.7012  -28.4547  -40.5204 N.am      6 UNK        -0.4439 
     40 CA         22.9403  -28.8851  -39.3403 C.3       6 UNK         0.0297 
     41 CB         22.6736  -27.6674  -38.4410 C.3       6 UNK        -0.2006 
     42 C          23.5789  -30.0258  -38.5245 C.2       6 UNK         0.4892 
     43 O          22.8503  -30.7696  -37.8694 O.2       6 UNK        -0.5089 
     44 N          24.9115  -30.1552  -38.5885 N.am      7 UNK        -0.4243 
     45 CA         25.6691  -31.2510  -37.9794 C.3       7 UNK         0.0196 
     46 CB         27.1553  -30.8627  -37.9167 C.3       7 UNK        -0.2007 
     47 C          25.4959  -32.5933  -38.7157 C.2       7 UNK         0.5020 
     48 O          25.6059  -33.6415  -38.0793 O.2       7 UNK        -0.5147 
     49 N          25.2436  -32.5460  -40.0312 N.am      8 UNK        -0.4734 
     50 CA         25.0020  -33.7211  -40.8731 C.3       8 UNK         0.0238 
     51 CB         25.6027  -33.4781  -42.2678 C.3       8 UNK        -0.1912 
     52 C          23.5034  -34.0417  -40.9844 C.2       8 UNK         0.5038 
     53 O          23.1473  -35.2162  -41.0867 O.2       8 UNK        -0.5046 
     54 N          22.6642  -32.9974  -40.9737 N.am      9 UNK        -0.4200 
     55 CA         21.1979  -33.0636  -41.0072 C.3       9 UNK         0.0839 
     56 C          20.5942  -33.8711  -39.8223 C.2       9 UNK         0.5513 
     57 N          19.5634  -34.6670  -40.0725 N.am      9 UNK        -0.7519 
     58 O          21.0301  -33.7580  -38.6790 O.2       9 UNK        -0.4960 
     59 C59        20.6023  -31.6335  -41.0943 C.3       10 UNK        -0.0876 
     60 S60        18.9244  -31.5989  -41.8062 S.3       10 UNK        -0.2414 
     61 C61        19.2795  -31.6490  -43.5984 C.3       10 UNK         0.0169 
     62 H62        15.2852  -22.3046  -44.9924 H         1 UNK         0.0903 
     63 H63        16.2788  -22.4115  -46.4472 H         1 UNK         0.0903 
     64 H64        16.9924  -21.8611  -44.9289 H         1 UNK         0.0903 
     65 H65        14.9239  -24.2903  -44.0322 H         1 UNK         0.3096 
     66 H66        16.2338  -26.6581  -44.8025 H         1 UNK         0.1121 
     67 H67        14.4185  -26.1489  -42.3961 H         1 UNK         0.0849 
     68 H68        13.8688  -26.5435  -43.9979 H         1 UNK         0.0849 
     69 H69        14.3160  -30.2479  -44.4520 H         1 UNK         0.0865 
     70 H70        14.3463  -28.7042  -45.2625 H         1 UNK         0.0865 
     71 H71        16.6267  -30.9259  -43.2494 H         1 UNK         0.1346 
     72 H72        19.9966  -30.2940  -45.8313 H         1 UNK         0.1412 
     73 H73        16.2715  -28.3460  -46.6530 H         1 UNK         0.1426 
     74 H74        19.6761  -29.1942  -47.9561 H         1 UNK         0.0716 
     75 H75        18.0621  -28.7643  -48.4493 H         1 UNK         0.0716 
     76 H76        21.5305  -26.6399  -47.5173 H         1 UNK         0.0695 
     77 H77        21.1074  -27.9234  -46.4107 H         1 UNK         0.0695 
     78 H78        20.5522  -24.9699  -45.8447 H         1 UNK         0.0983 
     79 H79        19.2147  -25.8754  -44.3414 H         1 UNK         0.3095 
     80 H80        19.2333  -28.8165  -42.4957 H         1 UNK         0.0454 
     81 H81        18.7071  -27.5103  -40.4224 H         1 UNK         0.0851 
     82 H82        19.6484  -26.1573  -41.0578 H         1 UNK         0.0851 
     83 H83        20.4273  -27.6895  -40.7234 H         1 UNK         0.0851 
     84 H84        17.4979  -28.0960  -43.6394 H         1 UNK         0.2976 
     85 H85        21.7833  -24.9131  -43.3465 H         1 UNK         0.3116 
     86 H86        23.6300  -24.3976  -42.2599 H         1 UNK         0.0646 
     87 H87        24.0471  -22.8178  -44.1674 H         1 UNK         0.0847 
     88 H88        25.5345  -23.3664  -43.4169 H         1 UNK         0.0847 
     89 H89        25.0368  -24.0451  -44.9570 H         1 UNK         0.0847 
     90 H90        23.1474  -27.2805  -43.1777 H         1 UNK         0.3040 
     91 H91        25.8199  -28.4077  -42.4400 H         1 UNK         0.1015 
     92 H92        23.6887  -29.5858  -44.3081 H         1 UNK         0.0786 
     93 H93        25.2313  -30.3237  -43.8902 H         1 UNK         0.0786 
     94 H94        25.1979  -28.8495  -44.8437 H         1 UNK         0.0786 
     95 H95        23.9076  -27.4687  -40.5897 H         1 UNK         0.3172 
     96 H96        21.9795  -29.2545  -39.7009 H         1 UNK         0.0595 
     97 H97        23.6007  -27.2304  -38.0679 H         1 UNK         0.0839 
     98 H98        22.0741  -27.9470  -37.5732 H         1 UNK         0.0839 
     99 H99        22.1245  -26.8894  -38.9716 H         1 UNK         0.0839 
    100 H100       25.4315  -29.4857  -39.1366 H         1 UNK         0.2998 
    101 H101       25.3092  -31.3887  -36.9572 H         1 UNK         0.0822 
    102 H102       27.3040  -29.9527  -37.3350 H         1 UNK         0.0787 
    103 H103       27.7435  -31.6489  -37.4410 H         1 UNK         0.0787 
    104 H104       27.5735  -30.6998  -38.9109 H         1 UNK         0.0787 
    105 H105       25.1074  -31.6433  -40.4721 H         1 UNK         0.3055 
    106 H106       25.4959  -34.5941  -40.4399 H         1 UNK         0.1106 
    107 H107       26.6745  -33.2882  -42.2101 H         1 UNK         0.0828 
    108 H108       25.4623  -34.3493  -42.9091 H         1 UNK         0.0828 
    109 H109       25.1376  -32.6279  -42.7680 H         1 UNK         0.0828 
    110 H110       23.0682  -32.0675  -40.9475 H         1 UNK         0.2931 
    111 H111       20.9553  -33.5900  -41.9327 H         1 UNK         0.0412 
    112 H112       19.1819  -34.7427  -41.0028 H         1 UNK         0.3472 
    113 H113       19.1500  -35.1897  -39.3161 H         1 UNK         0.3472 
    114 H114       20.5729  -31.1678  -40.1075 H         1 UNK         0.0970 
    115 H115       21.2345  -30.9830  -41.7011 H         1 UNK         0.0970 
    116 H116       20.3327  -31.4178  -43.7646 H         1 UNK         0.0612 
    117 H117       19.1305  -32.6693  -43.9536 H         1 UNK         0.0612 
@<TRIPOS>BOND
     1    1    2 1    
     2    1   62 1    
     3    1   63 1    
     4    1   64 1    
     5    2    3 2    
     6    2    4 am   BACKBONE|DICT|INTERRES
     7    4    5 1    
     8    4   65 1    
     9    5    6 1    
    10    5   25 1    
    11    5   66 1    
    12    6    7 1    
    13    6   67 1    
    14    6   68 1    
    15    7    8 1    
    16    8    9 1    
    17    8   69 1    
    18    8   70 1    
    19    9   10 ar   
    20    9   14 ar   
    21   10   11 ar   
    22   10   71 1    
    23   11   12 ar   
    24   11   61 1    
    25   12   13 ar   
    26   12   72 1    
    27   13   14 ar   
    28   13   15 1    
    29   14   73 1    
    30   15   16 1    
    31   15   74 1    
    32   15   75 1    
    33   16   17 1    
    34   17   18 1    
    35   17   76 1    
    36   17   77 1    
    37   18   19 1    
    38   18   27 1    
    39   18   78 1    
    40   19   20 am   BACKBONE|DICT|INTERRES
    41   19   79 1    
    42   20   21 2    
    43   20   22 1    
    44   22   23 1    
    45   22   24 1    
    46   22   80 1    
    47   23   81 1    
    48   23   82 1    
    49   23   83 1    
    50   24   25 am   BACKBONE|DICT|INTERRES
    51   24   84 1    
    52   25   26 2    
    53   27   28 2    
    54   27   29 am   BACKBONE|DICT|INTERRES
    55   29   30 1    
    56   29   85 1    
    57   30   31 1    
    58   30   32 1    
    59   30   86 1    
    60   31   87 1    
    61   31   88 1    
    62   31   89 1    
    63   32   33 2    
    64   32   34 am   BACKBONE|DICT|INTERRES
    65   34   35 1    
    66   34   90 1    
    67   35   36 1    
    68   35   37 1    
    69   35   91 1    
    70   36   92 1    
    71   36   93 1    
    72   36   94 1    
    73   37   38 2    
    74   37   39 am   BACKBONE|DICT|INTERRES
    75   39   40 1    
    76   39   95 1    
    77   40   41 1    
    78   40   42 1    
    79   40   96 1    
    80   41   97 1    
    81   41   98 1    
    82   41   99 1    
    83   42   43 2    
    84   42   44 am   BACKBONE|DICT|INTERRES
    85   44   45 1    
    86   44  100 1    
    87   45   46 1    
    88   45   47 1    
    89   45  101 1    
    90   46  102 1    
    91   46  103 1    
    92   46  104 1    
    93   47   48 2    
    94   47   49 am   BACKBONE|DICT|INTERRES
    95   49   50 1    
    96   49  105 1    
    97   50   51 1    
    98   50   52 1    
    99   50  106 1    
   100   51  107 1    
   101   51  108 1    
   102   51  109 1    
   103   52   53 2    
   104   52   54 am   BACKBONE|DICT|INTERRES
   105   54   55 1    
   106   54  110 1    
   107   55   56 1    
   108   55   59 1    
   109   55  111 1    
   110   56   57 am   BACKBONE|DICT|INTERRES
   111   56   58 2    
   112   57  112 1    
   113   57  113 1    
   114   59   60 1    
   115   59  114 1    
   116   59  115 1    
   117   60   61 1    
   118   61  116 1    
   119   61  117 1    
@<TRIPOS>SUBSTRUCTURE
     1 UNK         1 GROUP             0       ****    0 ROOT    
