@<TRIPOS>MOLECULE
3R8
117   119    1
SMALL
USER_CHARGES


@<TRIPOS>ATOM
      1 CA         21.0036  -24.5096  -39.9535 C.3       0 UNK        -0.2013 
      2 C          19.9251  -24.4940  -41.0241 C.2       0 UNK         0.4866 
      3 O          19.0229  -23.6574  -40.9692 O.2       0 UNK        -0.5176 
      4 N          20.0231  -25.4022  -41.9993 N.am      1 UNK        -0.4884 
      5 CA         19.1503  -25.4778  -43.1721 C.3       1 UNK         0.0853 
      6 C6         18.5567  -26.8960  -43.3708 C.3       10 UNK        -0.0849 
      7 S7         17.7069  -27.5715  -41.9024 S.3       10 UNK        -0.2776 
      8 C8         16.5026  -28.7199  -42.6473 C.3       10 UNK         0.0316 
      9 C9         17.1722  -29.9143  -43.3172 C.ar      10 UNK        -0.0863 
     10 C10        17.3318  -31.1218  -42.6311 C.ar      10 UNK        -0.1009 
     11 C11        17.9100  -32.2258  -43.2657 C.ar      10 UNK        -0.0712 
     12 C12        18.3548  -32.1048  -44.5870 C.ar      10 UNK        -0.0894 
     13 C13        18.2150  -30.9015  -45.2869 C.ar      10 UNK        -0.0745 
     14 C14        17.6028  -29.8183  -44.6426 C.ar      10 UNK        -0.0972 
     15 C15        18.7425  -30.8264  -46.7242 C.3       10 UNK         0.0209 
     16 S16        18.4961  -29.2214  -47.5701 S.3       10 UNK        -0.2568 
     17 C17        20.1134  -28.9309  -48.3722 C.3       10 UNK        -0.0983 
     18 CA         21.0918  -28.0389  -47.5540 C.3       3 UNK         0.0876 
     19 N          20.4395  -26.8139  -47.0848 N.am      3 UNK        -0.4424 
     20 C          20.7812  -25.5638  -47.4175 C.2       2 UNK         0.4918 
     21 O          21.7192  -25.2797  -48.1627 O.2       2 UNK        -0.4875 
     22 CA         19.9333  -24.4277  -46.8067 C.3       2 UNK         0.0481 
     23 CB         18.8474  -23.9839  -47.7997 C.3       2 UNK        -0.1831 
     24 N          19.3057  -24.7615  -45.5192 N.am      2 UNK        -0.4498 
     25 C          19.9826  -25.0906  -44.4096 C.2       1 UNK         0.5027 
     26 O          21.2142  -25.1597  -44.3716 O.2       1 UNK        -0.4969 
     27 C          21.7802  -28.8189  -46.4108 C.2       3 UNK         0.5005 
     28 O          22.2651  -29.9231  -46.6668 O.2       3 UNK        -0.5279 
     29 N          21.8312  -28.2738  -45.1839 N.am      4 UNK        -0.4463 
     30 CA         22.4026  -28.9580  -44.0230 C.3       4 UNK         0.0283 
     31 CB         21.3588  -29.8867  -43.3765 C.3       4 UNK        -0.1875 
     32 C          22.9466  -27.9402  -43.0195 C.2       4 UNK         0.4949 
     33 O          22.1647  -27.2902  -42.3206 O.2       4 UNK        -0.5039 
     34 N          24.2808  -27.8445  -42.9434 N.am      5 UNK        -0.4663 
     35 CA         25.0120  -27.0349  -41.9653 C.3       5 UNK         0.0242 
     36 CB         26.5222  -27.1634  -42.2200 C.3       5 UNK        -0.1982 
     37 C          24.6656  -27.4572  -40.5285 C.2       5 UNK         0.5017 
     38 O          24.6999  -28.6520  -40.2225 O.2       5 UNK        -0.5012 
     39 N          24.2673  -26.4765  -39.7056 N.am      6 UNK        -0.4439 
     40 CA         23.7526  -26.6211  -38.3345 C.3       6 UNK         0.0297 
     41 CB         24.8774  -27.0912  -37.3876 C.3       6 UNK        -0.2006 
     42 C          22.4893  -27.5056  -38.2071 C.2       6 UNK         0.4892 
     43 O          22.1509  -27.9002  -37.0906 O.2       6 UNK        -0.5089 
     44 N          21.8294  -27.8119  -39.3388 N.am      7 UNK        -0.4243 
     45 CA         20.7249  -28.7656  -39.4986 C.3       7 UNK         0.0196 
     46 CB         19.4535  -28.2594  -38.7850 C.3       7 UNK        -0.2007 
     47 C          21.1125  -30.2046  -39.0930 C.2       7 UNK         0.5020 
     48 O          20.2548  -30.9582  -38.6313 O.2       7 UNK        -0.5147 
     49 N          22.4019  -30.5534  -39.2376 N.am      8 UNK        -0.4734 
     50 CA         22.9657  -31.8295  -38.7901 C.3       8 UNK         0.0238 
     51 CB         24.5003  -31.7328  -38.7592 C.3       8 UNK        -0.1912 
     52 C          22.5017  -33.0244  -39.6371 C.2       8 UNK         0.5038 
     53 O          22.0627  -34.0228  -39.0647 O.2       8 UNK        -0.5046 
     54 N          22.6085  -32.8757  -40.9675 N.am      9 UNK        -0.4200 
     55 CA         22.2501  -33.8429  -42.0226 C.3       9 UNK         0.0839 
     56 C          22.6419  -35.3243  -41.7315 C.2       9 UNK         0.5513 
     57 N          21.7501  -36.2889  -41.9173 N.am      9 UNK        -0.7519 
     58 O          23.7895  -35.6072  -41.3937 O.2       9 UNK        -0.4960 
     59 C59        20.8298  -33.6090  -42.6186 C.3       10 UNK        -0.0876 
     60 S60        19.4534  -33.6412  -41.4229 S.3       10 UNK        -0.2414 
     61 C61        18.0171  -33.5604  -42.5377 C.3       10 UNK         0.0169 
     62 H62        21.8939  -25.0301  -40.3010 H         1 UNK         0.0903 
     63 H63        21.2919  -23.4922  -39.6903 H         1 UNK         0.0903 
     64 H64        20.6356  -25.0049  -39.0555 H         1 UNK         0.0903 
     65 H65        20.8243  -26.0303  -42.0397 H         1 UNK         0.3096 
     66 H66        18.3280  -24.7648  -43.0816 H         1 UNK         0.1121 
     67 H67        17.8414  -26.8704  -44.1936 H         1 UNK         0.0849 
     68 H68        19.3331  -27.6030  -43.6607 H         1 UNK         0.0849 
     69 H69        15.8245  -29.0666  -41.8661 H         1 UNK         0.0865 
     70 H70        15.8805  -28.1835  -43.3654 H         1 UNK         0.0865 
     71 H71        16.9921  -31.2097  -41.6080 H         1 UNK         0.1346 
     72 H72        18.8088  -32.9558  -45.0764 H         1 UNK         0.1412 
     73 H73        17.4536  -28.8857  -45.1628 H         1 UNK         0.1426 
     74 H74        18.2588  -31.6010  -47.3208 H         1 UNK         0.0716 
     75 H75        19.8042  -31.0730  -46.7076 H         1 UNK         0.0716 
     76 H76        19.9045  -28.4324  -49.3199 H         1 UNK         0.0695 
     77 H77        20.5680  -29.8832  -48.6516 H         1 UNK         0.0695 
     78 H78        21.9099  -27.7734  -48.2269 H         1 UNK         0.0983 
     79 H79        19.6273  -26.9510  -46.5024 H         1 UNK         0.3095 
     80 H80        20.6017  -23.5814  -46.6353 H         1 UNK         0.0454 
     81 H81        19.2865  -23.7008  -48.7575 H         1 UNK         0.0851 
     82 H82        18.2995  -23.1169  -47.4302 H         1 UNK         0.0851 
     83 H83        18.1278  -24.7799  -47.9953 H         1 UNK         0.0851 
     84 H84        18.2962  -24.7256  -45.4883 H         1 UNK         0.2976 
     85 H85        21.5218  -27.3203  -45.0338 H         1 UNK         0.3116 
     86 H86        23.2391  -29.5801  -44.3499 H         1 UNK         0.0646 
     87 H87        20.5044  -29.3435  -42.9769 H         1 UNK         0.0847 
     88 H88        20.9788  -30.6064  -44.0999 H         1 UNK         0.0847 
     89 H89        21.7958  -30.4453  -42.5493 H         1 UNK         0.0847 
     90 H90        24.8417  -28.4314  -43.5441 H         1 UNK         0.3040 
     91 H91        24.7206  -25.9932  -42.1167 H         1 UNK         0.1015 
     92 H92        27.0897  -26.5519  -41.5170 H         1 UNK         0.0786 
     93 H93        26.7865  -26.8303  -43.2239 H         1 UNK         0.0786 
     94 H94        26.8646  -28.1930  -42.1056 H         1 UNK         0.0786 
     95 H95        24.2771  -25.5302  -40.0617 H         1 UNK         0.3172 
     96 H96        23.4503  -25.6217  -38.0181 H         1 UNK         0.0595 
     97 H97        25.1827  -28.1165  -37.5999 H         1 UNK         0.0839 
     98 H98        24.5548  -27.0592  -36.3462 H         1 UNK         0.0839 
     99 H99        25.7585  -26.4550  -37.4697 H         1 UNK         0.0839 
    100 H100       22.1960  -27.4499  -40.2119 H         1 UNK         0.2998 
    101 H101       20.5056  -28.8011  -40.5665 H         1 UNK         0.0822 
    102 H102       18.5958  -28.8881  -39.0273 H         1 UNK         0.0787 
    103 H103       19.2038  -27.2448  -39.0950 H         1 UNK         0.0787 
    104 H104       19.5651  -28.2642  -37.7007 H         1 UNK         0.0787 
    105 H105       23.0570  -29.8672  -39.5979 H         1 UNK         0.3055 
    106 H106       22.6219  -32.0039  -37.7677 H         1 UNK         0.1106 
    107 H107       24.8327  -30.9494  -38.0776 H         1 UNK         0.0828 
    108 H108       24.9441  -32.6691  -38.4180 H         1 UNK         0.0828 
    109 H109       24.9155  -31.5132  -39.7435 H         1 UNK         0.0828 
    110 H110       23.0115  -32.0123  -41.2964 H         1 UNK         0.2931 
    111 H111       22.9302  -33.5814  -42.8345 H         1 UNK         0.0412 
    112 H112       22.0171  -37.2463  -41.7486 H         1 UNK         0.3472 
    113 H113       20.7986  -36.0666  -42.1647 H         1 UNK         0.3472 
    114 H114       20.8100  -32.6325  -43.0957 H         1 UNK         0.0970 
    115 H115       20.6277  -34.3163  -43.4247 H         1 UNK         0.0970 
    116 H116       18.0668  -34.3845  -43.2511 H         1 UNK         0.0612 
    117 H117       17.1126  -33.7247  -41.9503 H         1 UNK         0.0612 
@<TRIPOS>BOND
     1    1    2 1    
     2    1   62 1    
     3    1   63 1    
     4    1   64 1    
     5    2    3 2    
     6    2    4 am   BACKBONE|DICT|INTERRES
     7    4    5 1    
     8    4   65 1    
     9    5    6 1    
    10    5   25 1    
    11    5   66 1    
    12    6    7 1    
    13    6   67 1    
    14    6   68 1    
    15    7    8 1    
    16    8    9 1    
    17    8   69 1    
    18    8   70 1    
    19    9   10 ar   
    20    9   14 ar   
    21   10   11 ar   
    22   10   71 1    
    23   11   12 ar   
    24   11   61 1    
    25   12   13 ar   
    26   12   72 1    
    27   13   14 ar   
    28   13   15 1    
    29   14   73 1    
    30   15   16 1    
    31   15   74 1    
    32   15   75 1    
    33   16   17 1    
    34   17   18 1    
    35   17   76 1    
    36   17   77 1    
    37   18   19 1    
    38   18   27 1    
    39   18   78 1    
    40   19   20 am   BACKBONE|DICT|INTERRES
    41   19   79 1    
    42   20   21 2    
    43   20   22 1    
    44   22   23 1    
    45   22   24 1    
    46   22   80 1    
    47   23   81 1    
    48   23   82 1    
    49   23   83 1    
    50   24   25 am   BACKBONE|DICT|INTERRES
    51   24   84 1    
    52   25   26 2    
    53   27   28 2    
    54   27   29 am   BACKBONE|DICT|INTERRES
    55   29   30 1    
    56   29   85 1    
    57   30   31 1    
    58   30   32 1    
    59   30   86 1    
    60   31   87 1    
    61   31   88 1    
    62   31   89 1    
    63   32   33 2    
    64   32   34 am   BACKBONE|DICT|INTERRES
    65   34   35 1    
    66   34   90 1    
    67   35   36 1    
    68   35   37 1    
    69   35   91 1    
    70   36   92 1    
    71   36   93 1    
    72   36   94 1    
    73   37   38 2    
    74   37   39 am   BACKBONE|DICT|INTERRES
    75   39   40 1    
    76   39   95 1    
    77   40   41 1    
    78   40   42 1    
    79   40   96 1    
    80   41   97 1    
    81   41   98 1    
    82   41   99 1    
    83   42   43 2    
    84   42   44 am   BACKBONE|DICT|INTERRES
    85   44   45 1    
    86   44  100 1    
    87   45   46 1    
    88   45   47 1    
    89   45  101 1    
    90   46  102 1    
    91   46  103 1    
    92   46  104 1    
    93   47   48 2    
    94   47   49 am   BACKBONE|DICT|INTERRES
    95   49   50 1    
    96   49  105 1    
    97   50   51 1    
    98   50   52 1    
    99   50  106 1    
   100   51  107 1    
   101   51  108 1    
   102   51  109 1    
   103   52   53 2    
   104   52   54 am   BACKBONE|DICT|INTERRES
   105   54   55 1    
   106   54  110 1    
   107   55   56 1    
   108   55   59 1    
   109   55  111 1    
   110   56   57 am   BACKBONE|DICT|INTERRES
   111   56   58 2    
   112   57  112 1    
   113   57  113 1    
   114   59   60 1    
   115   59  114 1    
   116   59  115 1    
   117   60   61 1    
   118   61  116 1    
   119   61  117 1    
@<TRIPOS>SUBSTRUCTURE
     1 UNK         1 GROUP             0       ****    0 ROOT    
