@<TRIPOS>MOLECULE
3R8
117   119    1
SMALL
USER_CHARGES


@<TRIPOS>ATOM
      1 CA         14.4103  -24.1293  -40.7440 C.3       0 UNK        -0.2013 
      2 C          15.3401  -24.4929  -41.8921 C.2       0 UNK         0.4866 
      3 O          16.1528  -23.6658  -42.3069 O.2       0 UNK        -0.5176 
      4 N          15.2218  -25.7201  -42.4146 N.am      1 UNK        -0.4884 
      5 CA         16.0840  -26.2623  -43.4694 C.3       1 UNK         0.0853 
      6 C6         15.4180  -27.4810  -44.1536 C.3       10 UNK        -0.0849 
      7 S7         16.1073  -27.8324  -45.8083 S.3       10 UNK        -0.2776 
      8 C8         16.4332  -29.6224  -45.7136 C.3       10 UNK         0.0316 
      9 C9         17.8075  -29.9328  -45.1362 C.ar      10 UNK        -0.0863 
     10 C10        17.9952  -30.0177  -43.7542 C.ar      10 UNK        -0.1009 
     11 C11        19.2455  -30.3476  -43.2229 C.ar      10 UNK        -0.0712 
     12 C12        20.3195  -30.5845  -44.0877 C.ar      10 UNK        -0.0894 
     13 C13        20.1419  -30.5199  -45.4724 C.ar      10 UNK        -0.0745 
     14 C14        18.8860  -30.1856  -45.9893 C.ar      10 UNK        -0.0972 
     15 C15        21.2817  -30.8754  -46.4168 C.3       10 UNK         0.0209 
     16 S16        21.8924  -29.4356  -47.3474 S.3       10 UNK        -0.2568 
     17 C17        23.1843  -28.7619  -46.2521 C.3       10 UNK        -0.0983 
     18 CA         22.8493  -27.3211  -45.7932 C.3       3 UNK         0.0876 
     19 N          21.8729  -27.3070  -44.7054 N.am      3 UNK        -0.4424 
     20 C          20.6901  -26.6910  -44.7448 C.2       2 UNK         0.4918 
     21 O          20.2317  -26.1292  -45.7435 O.2       2 UNK        -0.4875 
     22 CA         19.9180  -26.6359  -43.4227 C.3       2 UNK         0.0481 
     23 CB         20.4690  -25.5210  -42.5125 C.3       2 UNK        -0.1831 
     24 N          18.5141  -26.3856  -43.7238 N.am      2 UNK        -0.4498 
     25 C          17.4806  -26.6011  -42.9059 C.2       1 UNK         0.5027 
     26 O          17.5884  -27.0554  -41.7633 O.2       1 UNK        -0.4969 
     27 C          24.0708  -26.5681  -45.2479 C.2       3 UNK         0.5005 
     28 O          25.0655  -27.1914  -44.8726 O.2       3 UNK        -0.5279 
     29 N          23.9149  -25.2427  -45.0933 N.am      4 UNK        -0.4463 
     30 CA         24.7825  -24.2833  -44.3856 C.3       4 UNK         0.0283 
     31 CB         26.2148  -24.2627  -44.9546 C.3       4 UNK        -0.1875 
     32 C          24.7889  -24.4724  -42.8553 C.2       4 UNK         0.4949 
     33 O          24.7515  -23.4846  -42.1219 O.2       4 UNK        -0.5039 
     34 N          24.7933  -25.7292  -42.4088 N.am      5 UNK        -0.4663 
     35 CA         24.6047  -26.1816  -41.0371 C.3       5 UNK         0.0242 
     36 CB         25.9746  -26.5769  -40.4552 C.3       5 UNK        -0.1982 
     37 C          23.6311  -27.3711  -41.0484 C.2       5 UNK         0.5017 
     38 O          23.1828  -27.8034  -42.1172 O.2       5 UNK        -0.5012 
     39 N          23.3438  -27.9172  -39.8611 N.am      6 UNK        -0.4439 
     40 CA         22.5041  -29.1006  -39.6381 C.3       6 UNK         0.0297 
     41 CB         22.0454  -29.1011  -38.1669 C.3       6 UNK        -0.2006 
     42 C          23.2009  -30.4240  -40.0344 C.2       6 UNK         0.4892 
     43 O          23.1203  -31.4055  -39.2947 O.2       6 UNK        -0.5089 
     44 N          23.8704  -30.4333  -41.1947 N.am      7 UNK        -0.4243 
     45 CA         24.7756  -31.4814  -41.6809 C.3       7 UNK         0.0196 
     46 CB         25.3592  -31.0394  -43.0331 C.3       7 UNK        -0.2007 
     47 C          24.1553  -32.8841  -41.8010 C.2       7 UNK         0.5020 
     48 O          24.8664  -33.8738  -41.6263 O.2       7 UNK        -0.5147 
     49 N          22.8506  -32.9399  -42.0882 N.am      8 UNK        -0.4734 
     50 CA         22.0636  -34.1712  -42.1925 C.3       8 UNK         0.0238 
     51 CB         21.4115  -34.2165  -43.5874 C.3       8 UNK        -0.1912 
     52 C          20.9961  -34.2778  -41.0876 C.2       8 UNK         0.5038 
     53 O          20.1909  -35.2092  -41.1391 O.2       8 UNK        -0.5046 
     54 N          20.9784  -33.3302  -40.1386 N.am      9 UNK        -0.4200 
     55 CA         19.9245  -33.1831  -39.1193 C.3       9 UNK         0.0839 
     56 C          20.4557  -33.2835  -37.6643 C.2       9 UNK         0.5513 
     57 N          21.7320  -33.0355  -37.3983 N.am      9 UNK        -0.7519 
     58 O          19.6935  -33.6088  -36.7578 O.2       9 UNK        -0.4960 
     59 C59        19.1039  -31.8791  -39.3161 C.3       10 UNK        -0.0876 
     60 S60        18.3745  -31.7382  -40.9843 S.3       10 UNK        -0.2414 
     61 C61        19.4315  -30.4481  -41.7163 C.3       10 UNK         0.0169 
     62 H62        13.8067  -23.2619  -41.0101 H         1 UNK         0.0903 
     63 H63        13.7354  -24.9466  -40.4903 H         1 UNK         0.0903 
     64 H64        14.9909  -23.8811  -39.8559 H         1 UNK         0.0903 
     65 H65        14.5626  -26.3692  -42.0086 H         1 UNK         0.3096 
     66 H66        16.2024  -25.4752  -44.2185 H         1 UNK         0.1121 
     67 H67        14.3554  -27.2822  -44.3038 H         1 UNK         0.0849 
     68 H68        15.4601  -28.3625  -43.5127 H         1 UNK         0.0849 
     69 H69        15.6554  -30.1180  -45.1306 H         1 UNK         0.0865 
     70 H70        16.3552  -30.0382  -46.7194 H         1 UNK         0.0865 
     71 H71        17.1670  -29.8415  -43.0827 H         1 UNK         0.1346 
     72 H72        21.2900  -30.8403  -43.6887 H         1 UNK         0.1412 
     73 H73        18.7472  -30.1397  -47.0611 H         1 UNK         0.1426 
     74 H74        20.9202  -31.6160  -47.1315 H         1 UNK         0.0716 
     75 H75        22.1044  -31.3548  -45.8840 H         1 UNK         0.0716 
     76 H76        24.1137  -28.7783  -46.8248 H         1 UNK         0.0695 
     77 H77        23.3454  -29.4168  -45.3943 H         1 UNK         0.0695 
     78 H78        22.4911  -26.7574  -46.6579 H         1 UNK         0.0983 
     79 H79        22.2122  -27.6631  -43.8153 H         1 UNK         0.3095 
     80 H80        20.0167  -27.6009  -42.9228 H         1 UNK         0.0454 
     81 H81        21.5394  -25.6354  -42.3442 H         1 UNK         0.0851 
     82 H82        19.9875  -25.5319  -41.5348 H         1 UNK         0.0851 
     83 H83        20.3151  -24.5340  -42.9501 H         1 UNK         0.0851 
     84 H84        18.3513  -26.0760  -44.6750 H         1 UNK         0.2976 
     85 H85        23.0340  -24.8530  -45.4019 H         1 UNK         0.3116 
     86 H86        24.3452  -23.3015  -44.5748 H         1 UNK         0.0646 
     87 H87        26.7495  -25.1924  -44.7586 H         1 UNK         0.0847 
     88 H88        26.2124  -24.0967  -46.0317 H         1 UNK         0.0847 
     89 H89        26.7972  -23.4582  -44.5037 H         1 UNK         0.0847 
     90 H90        24.8091  -26.4694  -43.1071 H         1 UNK         0.3040 
     91 H91        24.1593  -25.3857  -40.4360 H         1 UNK         0.1015 
     92 H92        25.8986  -26.8638  -39.4060 H         1 UNK         0.0786 
     93 H93        26.6781  -25.7456  -40.5072 H         1 UNK         0.0786 
     94 H94        26.4136  -27.4173  -40.9951 H         1 UNK         0.0786 
     95 H95        23.7759  -27.5224  -39.0378 H         1 UNK         0.3172 
     96 H96        21.6148  -29.0056  -40.2627 H         1 UNK         0.0595 
     97 H97        22.8921  -29.1693  -37.4828 H         1 UNK         0.0839 
     98 H98        21.3917  -29.9449  -37.9481 H         1 UNK         0.0839 
     99 H99        21.4891  -28.1956  -37.9240 H         1 UNK         0.0839 
    100 H100       23.8275  -29.5810  -41.7454 H         1 UNK         0.2998 
    101 H101       25.5940  -31.5544  -40.9618 H         1 UNK         0.0822 
    102 H102       26.0747  -31.7721  -43.4092 H         1 UNK         0.0787 
    103 H103       25.8857  -30.0881  -42.9489 H         1 UNK         0.0787 
    104 H104       24.5817  -30.9249  -43.7892 H         1 UNK         0.0787 
    105 H105       22.3545  -32.0704  -42.2067 H         1 UNK         0.3055 
    106 H106       22.7072  -35.0478  -42.0888 H         1 UNK         0.1106 
    107 H107       22.1542  -34.1130  -44.3786 H         1 UNK         0.0828 
    108 H108       20.9003  -35.1663  -43.7496 H         1 UNK         0.0828 
    109 H109       20.6709  -33.4263  -43.7142 H         1 UNK         0.0828 
    110 H110       21.7389  -32.6635  -40.0914 H         1 UNK         0.2931 
    111 H111       19.2183  -34.0098  -39.2160 H         1 UNK         0.0412 
    112 H112       22.3530  -32.6623  -38.1094 H         1 UNK         0.3472 
    113 H113       22.0582  -33.1197  -36.4488 H         1 UNK         0.3472 
    114 H114       18.2842  -31.8394  -38.5961 H         1 UNK         0.0970 
    115 H115       19.7180  -31.0014  -39.1156 H         1 UNK         0.0970 
    116 H116       20.4713  -30.6744  -41.4825 H         1 UNK         0.0612 
    117 H117       19.2028  -29.4857  -41.2559 H         1 UNK         0.0612 
@<TRIPOS>BOND
     1    1    2 1    
     2    1   62 1    
     3    1   63 1    
     4    1   64 1    
     5    2    3 2    
     6    2    4 am   BACKBONE|DICT|INTERRES
     7    4    5 1    
     8    4   65 1    
     9    5    6 1    
    10    5   25 1    
    11    5   66 1    
    12    6    7 1    
    13    6   67 1    
    14    6   68 1    
    15    7    8 1    
    16    8    9 1    
    17    8   69 1    
    18    8   70 1    
    19    9   10 ar   
    20    9   14 ar   
    21   10   11 ar   
    22   10   71 1    
    23   11   12 ar   
    24   11   61 1    
    25   12   13 ar   
    26   12   72 1    
    27   13   14 ar   
    28   13   15 1    
    29   14   73 1    
    30   15   16 1    
    31   15   74 1    
    32   15   75 1    
    33   16   17 1    
    34   17   18 1    
    35   17   76 1    
    36   17   77 1    
    37   18   19 1    
    38   18   27 1    
    39   18   78 1    
    40   19   20 am   BACKBONE|DICT|INTERRES
    41   19   79 1    
    42   20   21 2    
    43   20   22 1    
    44   22   23 1    
    45   22   24 1    
    46   22   80 1    
    47   23   81 1    
    48   23   82 1    
    49   23   83 1    
    50   24   25 am   BACKBONE|DICT|INTERRES
    51   24   84 1    
    52   25   26 2    
    53   27   28 2    
    54   27   29 am   BACKBONE|DICT|INTERRES
    55   29   30 1    
    56   29   85 1    
    57   30   31 1    
    58   30   32 1    
    59   30   86 1    
    60   31   87 1    
    61   31   88 1    
    62   31   89 1    
    63   32   33 2    
    64   32   34 am   BACKBONE|DICT|INTERRES
    65   34   35 1    
    66   34   90 1    
    67   35   36 1    
    68   35   37 1    
    69   35   91 1    
    70   36   92 1    
    71   36   93 1    
    72   36   94 1    
    73   37   38 2    
    74   37   39 am   BACKBONE|DICT|INTERRES
    75   39   40 1    
    76   39   95 1    
    77   40   41 1    
    78   40   42 1    
    79   40   96 1    
    80   41   97 1    
    81   41   98 1    
    82   41   99 1    
    83   42   43 2    
    84   42   44 am   BACKBONE|DICT|INTERRES
    85   44   45 1    
    86   44  100 1    
    87   45   46 1    
    88   45   47 1    
    89   45  101 1    
    90   46  102 1    
    91   46  103 1    
    92   46  104 1    
    93   47   48 2    
    94   47   49 am   BACKBONE|DICT|INTERRES
    95   49   50 1    
    96   49  105 1    
    97   50   51 1    
    98   50   52 1    
    99   50  106 1    
   100   51  107 1    
   101   51  108 1    
   102   51  109 1    
   103   52   53 2    
   104   52   54 am   BACKBONE|DICT|INTERRES
   105   54   55 1    
   106   54  110 1    
   107   55   56 1    
   108   55   59 1    
   109   55  111 1    
   110   56   57 am   BACKBONE|DICT|INTERRES
   111   56   58 2    
   112   57  112 1    
   113   57  113 1    
   114   59   60 1    
   115   59  114 1    
   116   59  115 1    
   117   60   61 1    
   118   61  116 1    
   119   61  117 1    
@<TRIPOS>SUBSTRUCTURE
     1 UNK         1 GROUP             0       ****    0 ROOT    
