@<TRIPOS>MOLECULE
3R8
117   119    1
SMALL
USER_CHARGES


@<TRIPOS>ATOM
      1 CA         15.7358  -23.3261  -40.6554 C.3       0 UNK        -0.2013 
      2 C          15.8210  -23.6549  -42.1384 C.2       0 UNK         0.4866 
      3 O          15.6291  -22.7705  -42.9739 O.2       0 UNK        -0.5176 
      4 N          16.0985  -24.9219  -42.4715 N.am      1 UNK        -0.4884 
      5 CA         16.2949  -25.4000  -43.8443 C.3       1 UNK         0.0853 
      6 C6         16.1667  -26.9406  -43.9142 C.3       10 UNK        -0.0849 
      7 S7         15.6572  -27.5346  -45.5597 S.3       10 UNK        -0.2776 
      8 C8         15.7062  -29.3381  -45.3011 C.3       10 UNK         0.0316 
      9 C9         17.1178  -29.8287  -45.0120 C.ar      10 UNK        -0.0863 
     10 C10        17.4766  -30.2485  -43.7272 C.ar      10 UNK        -0.1009 
     11 C11        18.7782  -30.6850  -43.4628 C.ar      10 UNK        -0.0712 
     12 C12        19.7244  -30.6951  -44.4915 C.ar      10 UNK        -0.0894 
     13 C13        19.3806  -30.2685  -45.7773 C.ar      10 UNK        -0.0745 
     14 C14        18.0702  -29.8527  -46.0334 C.ar      10 UNK        -0.0972 
     15 C15        20.4138  -30.2757  -46.8957 C.3       10 UNK         0.0209 
     16 S16        20.5820  -28.6422  -47.6864 S.3       10 UNK        -0.2568 
     17 C17        21.9073  -27.8408  -46.7152 C.3       10 UNK        -0.0983 
     18 CA         21.4472  -26.9244  -45.5419 C.3       3 UNK         0.0876 
     19 N          20.2406  -26.1507  -45.8417 N.am      3 UNK        -0.4424 
     20 C          20.2261  -24.8830  -46.2652 C.2       2 UNK         0.4918 
     21 O          21.2412  -24.2140  -46.4629 O.2       2 UNK        -0.4875 
     22 CA         18.8496  -24.2327  -46.5063 C.3       2 UNK         0.0481 
     23 CB         18.5055  -24.2730  -48.0040 C.3       2 UNK        -0.1831 
     24 N          17.7268  -24.7973  -45.7448 N.am      2 UNK        -0.4498 
     25 C          17.6474  -24.9120  -44.4112 C.2       1 UNK         0.5027 
     26 O          18.5893  -24.6846  -43.6465 O.2       1 UNK        -0.4969 
     27 C          21.3552  -27.6202  -44.1690 C.2       3 UNK         0.5005 
     28 O          22.0849  -28.5836  -43.9285 O.2       3 UNK        -0.5279 
     29 N          20.5178  -27.0997  -43.2551 N.am      4 UNK        -0.4463 
     30 CA         20.4435  -27.5437  -41.8582 C.3       4 UNK         0.0283 
     31 CB         19.0620  -27.2060  -41.2695 C.3       4 UNK        -0.1875 
     32 C          21.5992  -26.9534  -41.0290 C.2       4 UNK         0.4949 
     33 O          21.3790  -26.0979  -40.1703 O.2       4 UNK        -0.5039 
     34 N          22.8177  -27.4107  -41.3240 N.am      5 UNK        -0.4663 
     35 CA         24.0691  -27.0200  -40.6835 C.3       5 UNK         0.0242 
     36 CB         24.6065  -25.7387  -41.3489 C.3       5 UNK        -0.1982 
     37 C          25.0705  -28.1755  -40.8091 C.2       5 UNK         0.5017 
     38 O          24.8111  -29.1319  -41.5434 O.2       5 UNK        -0.5012 
     39 N          26.1958  -28.0688  -40.0865 N.am      6 UNK        -0.4439 
     40 CA         27.3551  -28.9772  -40.1161 C.3       6 UNK         0.0297 
     41 CB         28.1116  -28.8249  -41.4535 C.3       6 UNK        -0.2006 
     42 C          27.0267  -30.4527  -39.7955 C.2       6 UNK         0.4892 
     43 O          27.7106  -31.3511  -40.2891 O.2       6 UNK        -0.5089 
     44 N          25.9831  -30.6680  -38.9791 N.am      7 UNK        -0.4243 
     45 CA         25.4172  -31.9632  -38.5812 C.3       7 UNK         0.0196 
     46 CB         26.4061  -32.7454  -37.6895 C.3       7 UNK        -0.2007 
     47 C          24.8852  -32.7984  -39.7662 C.2       7 UNK         0.5020 
     48 O          24.9463  -34.0281  -39.7206 O.2       7 UNK        -0.5147 
     49 N          24.3508  -32.1276  -40.8006 N.am      8 UNK        -0.4734 
     50 CA         23.7361  -32.7616  -41.9763 C.3       8 UNK         0.0238 
     51 CB         23.4383  -31.6913  -43.0382 C.3       8 UNK        -0.1912 
     52 C          22.4619  -33.5677  -41.6582 C.2       8 UNK         0.5038 
     53 O          22.1593  -34.5189  -42.3799 O.2       8 UNK        -0.5046 
     54 N          21.7635  -33.1839  -40.5841 N.am      9 UNK        -0.4200 
     55 CA         20.6366  -33.9059  -39.9841 C.3       9 UNK         0.0839 
     56 C          20.9738  -34.2306  -38.5074 C.2       9 UNK         0.5513 
     57 N          20.5170  -35.3675  -38.0019 N.am      9 UNK        -0.7519 
     58 O          21.6127  -33.4458  -37.8077 O.2       9 UNK        -0.4960 
     59 C59        19.3155  -33.0990  -40.0735 C.3       10 UNK        -0.0876 
     60 S60        18.7405  -32.8765  -41.7899 S.3       10 UNK        -0.2414 
     61 C61        19.1654  -31.1324  -42.0632 C.3       10 UNK         0.0169 
     62 H62        15.9171  -24.2013  -40.0316 H         1 UNK         0.0903 
     63 H63        16.4744  -22.5676  -40.3972 H         1 UNK         0.0903 
     64 H64        14.7475  -22.9361  -40.4133 H         1 UNK         0.0903 
     65 H65        16.2700  -25.5969  -41.7406 H         1 UNK         0.3096 
     66 H66        15.4991  -24.9570  -44.4485 H         1 UNK         0.1121 
     67 H67        17.1014  -27.4230  -43.6300 H         1 UNK         0.0849 
     68 H68        15.4152  -27.2918  -43.2047 H         1 UNK         0.0849 
     69 H69        15.0259  -29.6072  -44.4914 H         1 UNK         0.0865 
     70 H70        15.3273  -29.8358  -46.1950 H         1 UNK         0.0865 
     71 H71        16.7457  -30.2352  -42.9303 H         1 UNK         0.1346 
     72 H72        20.7339  -31.0225  -44.2860 H         1 UNK         0.1412 
     73 H73        17.7957  -29.5265  -47.0275 H         1 UNK         0.1426 
     74 H74        20.0978  -30.9959  -47.6513 H         1 UNK         0.0716 
     75 H75        21.3863  -30.6154  -46.5361 H         1 UNK         0.0716 
     76 H76        22.4523  -27.2192  -47.4271 H         1 UNK         0.0695 
     77 H77        22.6354  -28.5878  -46.3953 H         1 UNK         0.0695 
     78 H78        22.2669  -26.2211  -45.3785 H         1 UNK         0.0983 
     79 H79        19.3636  -26.6402  -45.7358 H         1 UNK         0.3095 
     80 H80        18.9376  -23.1862  -46.2082 H         1 UNK         0.0454 
     81 H81        19.3041  -23.8308  -48.6016 H         1 UNK         0.0851 
     82 H82        17.5962  -23.7123  -48.2205 H         1 UNK         0.0851 
     83 H83        18.3642  -25.2955  -48.3570 H         1 UNK         0.0851 
     84 H84        16.9176  -25.0647  -46.2882 H         1 UNK         0.2976 
     85 H85        19.9991  -26.2591  -43.4873 H         1 UNK         0.3116 
     86 H86        20.5519  -28.6284  -41.8242 H         1 UNK         0.0646 
     87 H87        18.8291  -26.1447  -41.3597 H         1 UNK         0.0847 
     88 H88        18.2763  -27.7765  -41.7601 H         1 UNK         0.0847 
     89 H89        19.0171  -27.4598  -40.2096 H         1 UNK         0.0847 
     90 H90        22.9130  -28.1197  -42.0482 H         1 UNK         0.3040 
     91 H91        23.8896  -26.8389  -39.6213 H         1 UNK         0.1015 
     92 H92        25.5369  -25.4086  -40.8855 H         1 UNK         0.0786 
     93 H93        23.8957  -24.9170  -41.2595 H         1 UNK         0.0786 
     94 H94        24.8061  -25.8925  -42.4103 H         1 UNK         0.0786 
     95 H95        26.3001  -27.2578  -39.4913 H         1 UNK         0.3172 
     96 H96        28.0233  -28.6424  -39.3213 H         1 UNK         0.0595 
     97 H97        27.5226  -29.1965  -42.2930 H         1 UNK         0.0839 
     98 H98        29.0493  -29.3818  -41.4423 H         1 UNK         0.0839 
     99 H99        28.3602  -27.7828  -41.6537 H         1 UNK         0.0839 
    100 H100       25.4955  -29.8537  -38.6327 H         1 UNK         0.2998 
    101 H101       24.5425  -31.7347  -37.9699 H         1 UNK         0.0822 
    102 H102       25.9352  -33.6355  -37.2703 H         1 UNK         0.0787 
    103 H103       26.7505  -32.1392  -36.8517 H         1 UNK         0.0787 
    104 H104       27.2824  -33.0752  -38.2484 H         1 UNK         0.0787 
    105 H105       24.4046  -31.1146  -40.8107 H         1 UNK         0.3055 
    106 H106       24.4630  -33.4628  -42.3922 H         1 UNK         0.1106 
    107 H107       24.3484  -31.1830  -43.3570 H         1 UNK         0.0828 
    108 H108       22.9886  -32.1337  -43.9280 H         1 UNK         0.0828 
    109 H109       22.7488  -30.9336  -42.6645 H         1 UNK         0.0828 
    110 H110       22.1333  -32.4304  -40.0229 H         1 UNK         0.2931 
    111 H111       20.4925  -34.8562  -40.5028 H         1 UNK         0.0412 
    112 H112       20.7146  -35.5897  -37.0383 H         1 UNK         0.3472 
    113 H113       19.9834  -36.0125  -38.5648 H         1 UNK         0.3472 
    114 H114       18.5196  -33.6191  -39.5367 H         1 UNK         0.0970 
    115 H115       19.4195  -32.1288  -39.5839 H         1 UNK         0.0970 
    116 H116       20.2364  -30.9981  -41.9058 H         1 UNK         0.0612 
    117 H117       18.6590  -30.5116  -41.3224 H         1 UNK         0.0612 
@<TRIPOS>BOND
     1    1    2 1    
     2    1   62 1    
     3    1   63 1    
     4    1   64 1    
     5    2    3 2    
     6    2    4 am   BACKBONE|DICT|INTERRES
     7    4    5 1    
     8    4   65 1    
     9    5    6 1    
    10    5   25 1    
    11    5   66 1    
    12    6    7 1    
    13    6   67 1    
    14    6   68 1    
    15    7    8 1    
    16    8    9 1    
    17    8   69 1    
    18    8   70 1    
    19    9   10 ar   
    20    9   14 ar   
    21   10   11 ar   
    22   10   71 1    
    23   11   12 ar   
    24   11   61 1    
    25   12   13 ar   
    26   12   72 1    
    27   13   14 ar   
    28   13   15 1    
    29   14   73 1    
    30   15   16 1    
    31   15   74 1    
    32   15   75 1    
    33   16   17 1    
    34   17   18 1    
    35   17   76 1    
    36   17   77 1    
    37   18   19 1    
    38   18   27 1    
    39   18   78 1    
    40   19   20 am   BACKBONE|DICT|INTERRES
    41   19   79 1    
    42   20   21 2    
    43   20   22 1    
    44   22   23 1    
    45   22   24 1    
    46   22   80 1    
    47   23   81 1    
    48   23   82 1    
    49   23   83 1    
    50   24   25 am   BACKBONE|DICT|INTERRES
    51   24   84 1    
    52   25   26 2    
    53   27   28 2    
    54   27   29 am   BACKBONE|DICT|INTERRES
    55   29   30 1    
    56   29   85 1    
    57   30   31 1    
    58   30   32 1    
    59   30   86 1    
    60   31   87 1    
    61   31   88 1    
    62   31   89 1    
    63   32   33 2    
    64   32   34 am   BACKBONE|DICT|INTERRES
    65   34   35 1    
    66   34   90 1    
    67   35   36 1    
    68   35   37 1    
    69   35   91 1    
    70   36   92 1    
    71   36   93 1    
    72   36   94 1    
    73   37   38 2    
    74   37   39 am   BACKBONE|DICT|INTERRES
    75   39   40 1    
    76   39   95 1    
    77   40   41 1    
    78   40   42 1    
    79   40   96 1    
    80   41   97 1    
    81   41   98 1    
    82   41   99 1    
    83   42   43 2    
    84   42   44 am   BACKBONE|DICT|INTERRES
    85   44   45 1    
    86   44  100 1    
    87   45   46 1    
    88   45   47 1    
    89   45  101 1    
    90   46  102 1    
    91   46  103 1    
    92   46  104 1    
    93   47   48 2    
    94   47   49 am   BACKBONE|DICT|INTERRES
    95   49   50 1    
    96   49  105 1    
    97   50   51 1    
    98   50   52 1    
    99   50  106 1    
   100   51  107 1    
   101   51  108 1    
   102   51  109 1    
   103   52   53 2    
   104   52   54 am   BACKBONE|DICT|INTERRES
   105   54   55 1    
   106   54  110 1    
   107   55   56 1    
   108   55   59 1    
   109   55  111 1    
   110   56   57 am   BACKBONE|DICT|INTERRES
   111   56   58 2    
   112   57  112 1    
   113   57  113 1    
   114   59   60 1    
   115   59  114 1    
   116   59  115 1    
   117   60   61 1    
   118   61  116 1    
   119   61  117 1    
@<TRIPOS>SUBSTRUCTURE
     1 UNK         1 GROUP             0       ****    0 ROOT    
