@<TRIPOS>MOLECULE
3R8
117   119    1
SMALL
USER_CHARGES


@<TRIPOS>ATOM
      1 CA         12.1527  -27.0778  -43.4820 C.3       0 UNK        -0.2013 
      2 C          13.6679  -27.1809  -43.5779 C.2       0 UNK         0.4866 
      3 O          14.2133  -28.2573  -43.3380 O.2       0 UNK        -0.5176 
      4 N          14.3292  -26.0675  -43.9291 N.am      1 UNK        -0.4884 
      5 CA         15.7794  -25.8734  -44.0841 C.3       1 UNK         0.0853 
      6 C6         16.3380  -26.1054  -45.5232 C.3       10 UNK        -0.0849 
      7 S7         15.6054  -27.4267  -46.5638 S.3       10 UNK        -0.2776 
      8 C8         16.3469  -29.0039  -46.0015 C.3       10 UNK         0.0316 
      9 C9         17.8727  -29.1200  -46.0409 C.ar      10 UNK        -0.0863 
     10 C10        18.4630  -30.2126  -45.3974 C.ar      10 UNK        -0.1009 
     11 C11        19.8523  -30.3576  -45.3544 C.ar      10 UNK        -0.0712 
     12 C12        20.6638  -29.3936  -45.9568 C.ar      10 UNK        -0.0894 
     13 C13        20.0903  -28.3053  -46.6195 C.ar      10 UNK        -0.0745 
     14 C14        18.6994  -28.1909  -46.6848 C.ar      10 UNK        -0.0972 
     15 C15        20.9643  -27.2415  -47.2636 C.3       10 UNK         0.0209 
     16 S16        21.0805  -25.7556  -46.2155 S.3       10 UNK        -0.2568 
     17 C17        22.2313  -26.3030  -44.9104 C.3       10 UNK        -0.0983 
     18 CA         21.6146  -26.2482  -43.4899 C.3       3 UNK         0.0876 
     19 N          20.4356  -27.1102  -43.3610 N.am      3 UNK        -0.4424 
     20 C          19.6563  -27.2026  -42.2744 C.2       2 UNK         0.4918 
     21 O          19.8291  -26.5525  -41.2418 O.2       2 UNK        -0.4875 
     22 CA         18.4469  -28.1411  -42.4053 C.3       2 UNK         0.0481 
     23 CB         17.9083  -28.6376  -41.0483 C.3       2 UNK        -0.1831 
     24 N          17.4035  -27.5244  -43.2312 N.am      2 UNK        -0.4498 
     25 C          16.6358  -26.4632  -42.9398 C.2       1 UNK         0.5027 
     26 O          16.6012  -25.9108  -41.8388 O.2       1 UNK        -0.4969 
     27 C          22.6966  -26.6047  -42.4520 C.2       3 UNK         0.5005 
     28 O          23.0273  -27.7835  -42.2973 O.2       3 UNK        -0.5279 
     29 N          23.2836  -25.5797  -41.8172 N.am      4 UNK        -0.4463 
     30 CA         24.3557  -25.7034  -40.8196 C.3       4 UNK         0.0283 
     31 CB         24.6141  -24.3293  -40.1809 C.3       4 UNK        -0.1875 
     32 C          25.6685  -26.2965  -41.3663 C.2       4 UNK         0.4949 
     33 O          26.4759  -26.7931  -40.5823 O.2       4 UNK        -0.5039 
     34 N          25.8521  -26.2578  -42.6938 N.am      5 UNK        -0.4663 
     35 CA         26.9393  -26.9346  -43.4050 C.3       5 UNK         0.0242 
     36 CB         26.9881  -26.4229  -44.8539 C.3       5 UNK        -0.1982 
     37 C          26.8110  -28.4700  -43.3802 C.2       5 UNK         0.5017 
     38 O          27.8321  -29.1546  -43.4530 O.2       5 UNK        -0.5012 
     39 N          25.5740  -28.9770  -43.2769 N.am      6 UNK        -0.4439 
     40 CA         25.2645  -30.3972  -43.1199 C.3       6 UNK         0.0297 
     41 CB         24.0141  -30.7461  -43.9419 C.3       6 UNK        -0.2006 
     42 C          25.0630  -30.7387  -41.6370 C.2       6 UNK         0.4892 
     43 O          25.6488  -31.7114  -41.1605 O.2       6 UNK        -0.5089 
     44 N          24.2529  -29.9256  -40.9402 N.am      7 UNK        -0.4243 
     45 CA         23.9226  -29.9326  -39.5068 C.3       7 UNK         0.0196 
     46 CB         25.1735  -29.6785  -38.6446 C.3       7 UNK        -0.2007 
     47 C          23.1590  -31.1702  -39.0016 C.2       7 UNK         0.5020 
     48 O          22.1949  -31.0132  -38.2526 O.2       7 UNK        -0.5147 
     49 N          23.5860  -32.3724  -39.4071 N.am      8 UNK        -0.4734 
     50 CA         23.0456  -33.6707  -38.9830 C.3       8 UNK         0.0238 
     51 CB         23.9162  -34.7921  -39.5724 C.3       8 UNK        -0.1912 
     52 C          21.5661  -33.8927  -39.3446 C.2       8 UNK         0.5038 
     53 O          20.8837  -34.6520  -38.6556 O.2       8 UNK        -0.5046 
     54 N          21.1020  -33.2184  -40.4019 N.am      9 UNK        -0.4200 
     55 CA         19.6957  -33.1450  -40.8164 C.3       9 UNK         0.0839 
     56 C          18.8012  -32.2229  -39.9353 C.2       9 UNK         0.5513 
     57 N          19.3378  -31.4731  -38.9787 N.am      9 UNK        -0.7519 
     58 O          17.5861  -32.2044  -40.1122 O.2       9 UNK        -0.4960 
     59 C59        19.5701  -32.8266  -42.3292 C.3       10 UNK        -0.0876 
     60 S60        20.5041  -31.3478  -42.8574 S.3       10 UNK        -0.2414 
     61 C61        20.4713  -31.5616  -44.6645 C.3       10 UNK         0.0169 
     62 H62        11.8233  -27.3258  -42.4733 H         1 UNK         0.0903 
     63 H63        11.7934  -26.0767  -43.7196 H         1 UNK         0.0903 
     64 H64        11.6860  -27.7779  -44.1745 H         1 UNK         0.0903 
     65 H65        13.7845  -25.2313  -44.0892 H         1 UNK         0.3096 
     66 H66        15.8981  -24.8003  -43.9188 H         1 UNK         0.1121 
     67 H67        16.1456  -25.1922  -46.0889 H         1 UNK         0.0849 
     68 H68        17.4257  -26.1659  -45.5194 H         1 UNK         0.0849 
     69 H69        15.9920  -29.2133  -44.9922 H         1 UNK         0.0865 
     70 H70        15.9366  -29.7985  -46.6263 H         1 UNK         0.0865 
     71 H71        17.8397  -30.9525  -44.9128 H         1 UNK         0.1346 
     72 H72        21.7397  -29.4953  -45.9153 H         1 UNK         0.1412 
     73 H73        18.2748  -27.3575  -47.2258 H         1 UNK         0.1426 
     74 H74        20.5397  -26.9586  -48.2280 H         1 UNK         0.0716 
     75 H75        21.9631  -27.6273  -47.4740 H         1 UNK         0.0716 
     76 H76        22.5938  -27.3081  -45.1331 H         1 UNK         0.0695 
     77 H77        23.1059  -25.6521  -44.9701 H         1 UNK         0.0695 
     78 H78        21.2794  -25.2264  -43.2996 H         1 UNK         0.0983 
     79 H79        20.2206  -27.6795  -44.1676 H         1 UNK         0.3095 
     80 H80        18.7844  -29.0213  -42.9476 H         1 UNK         0.0454 
     81 H81        18.6928  -29.1571  -40.4983 H         1 UNK         0.0851 
     82 H82        17.0852  -29.3397  -41.1813 H         1 UNK         0.0851 
     83 H83        17.5599  -27.8246  -40.4120 H         1 UNK         0.0851 
     84 H84        17.3326  -27.8937  -44.1695 H         1 UNK         0.2976 
     85 H85        22.9638  -24.6409  -42.0118 H         1 UNK         0.3116 
     86 H86        24.0011  -26.3809  -40.0396 H         1 UNK         0.0646 
     87 H87        24.9524  -23.5982  -40.9163 H         1 UNK         0.0847 
     88 H88        23.7165  -23.9369  -39.7026 H         1 UNK         0.0847 
     89 H89        25.3842  -24.3953  -39.4109 H         1 UNK         0.0847 
     90 H90        25.1565  -25.7921  -43.2572 H         1 UNK         0.3040 
     91 H91        27.8810  -26.6765  -42.9148 H         1 UNK         0.1015 
     92 H92        27.8056  -26.8905  -45.4046 H         1 UNK         0.0786 
     93 H93        27.1512  -25.3455  -44.8895 H         1 UNK         0.0786 
     94 H94        26.0653  -26.6424  -45.3926 H         1 UNK         0.0786 
     95 H95        24.7980  -28.3354  -43.1590 H         1 UNK         0.3172 
     96 H96        26.0897  -31.0057  -43.4961 H         1 UNK         0.0595 
     97 H97        23.1551  -30.1391  -43.6549 H         1 UNK         0.0839 
     98 H98        23.7368  -31.7921  -43.8049 H         1 UNK         0.0839 
     99 H99        24.1873  -30.5933  -45.0071 H         1 UNK         0.0839 
    100 H100       23.7867  -29.1847  -41.4633 H         1 UNK         0.2998 
    101 H101       23.2534  -29.0819  -39.3663 H         1 UNK         0.0822 
    102 H102       24.9106  -29.6051  -37.5885 H         1 UNK         0.0787 
    103 H103       25.6617  -28.7447  -38.9209 H         1 UNK         0.0787 
    104 H104       25.9063  -30.4802  -38.7411 H         1 UNK         0.0787 
    105 H105       24.3945  -32.3826  -40.0271 H         1 UNK         0.3055 
    106 H106       23.1165  -33.7146  -37.8941 H         1 UNK         0.1106 
    107 H107       24.9515  -34.7061  -39.2420 H         1 UNK         0.0828 
    108 H108       23.5577  -35.7733  -39.2576 H         1 UNK         0.0828 
    109 H109       23.9098  -34.7760  -40.6630 H         1 UNK         0.0828 
    110 H110       21.7340  -32.6047  -40.8945 H         1 UNK         0.2931 
    111 H111       19.2770  -34.1443  -40.6816 H         1 UNK         0.0412 
    112 H112       18.7343  -30.8992  -38.4126 H         1 UNK         0.3472 
    113 H113       20.3380  -31.4653  -38.8100 H         1 UNK         0.3472 
    114 H114       19.9425  -33.6822  -42.8947 H         1 UNK         0.0970 
    115 H115       18.5249  -32.7127  -42.6235 H         1 UNK         0.0970 
    116 H116       19.9092  -32.4559  -44.9368 H         1 UNK         0.0612 
    117 H117       21.4879  -31.7278  -45.0219 H         1 UNK         0.0612 
@<TRIPOS>BOND
     1    1    2 1    
     2    1   62 1    
     3    1   63 1    
     4    1   64 1    
     5    2    3 2    
     6    2    4 am   BACKBONE|DICT|INTERRES
     7    4    5 1    
     8    4   65 1    
     9    5    6 1    
    10    5   25 1    
    11    5   66 1    
    12    6    7 1    
    13    6   67 1    
    14    6   68 1    
    15    7    8 1    
    16    8    9 1    
    17    8   69 1    
    18    8   70 1    
    19    9   10 ar   
    20    9   14 ar   
    21   10   11 ar   
    22   10   71 1    
    23   11   12 ar   
    24   11   61 1    
    25   12   13 ar   
    26   12   72 1    
    27   13   14 ar   
    28   13   15 1    
    29   14   73 1    
    30   15   16 1    
    31   15   74 1    
    32   15   75 1    
    33   16   17 1    
    34   17   18 1    
    35   17   76 1    
    36   17   77 1    
    37   18   19 1    
    38   18   27 1    
    39   18   78 1    
    40   19   20 am   BACKBONE|DICT|INTERRES
    41   19   79 1    
    42   20   21 2    
    43   20   22 1    
    44   22   23 1    
    45   22   24 1    
    46   22   80 1    
    47   23   81 1    
    48   23   82 1    
    49   23   83 1    
    50   24   25 am   BACKBONE|DICT|INTERRES
    51   24   84 1    
    52   25   26 2    
    53   27   28 2    
    54   27   29 am   BACKBONE|DICT|INTERRES
    55   29   30 1    
    56   29   85 1    
    57   30   31 1    
    58   30   32 1    
    59   30   86 1    
    60   31   87 1    
    61   31   88 1    
    62   31   89 1    
    63   32   33 2    
    64   32   34 am   BACKBONE|DICT|INTERRES
    65   34   35 1    
    66   34   90 1    
    67   35   36 1    
    68   35   37 1    
    69   35   91 1    
    70   36   92 1    
    71   36   93 1    
    72   36   94 1    
    73   37   38 2    
    74   37   39 am   BACKBONE|DICT|INTERRES
    75   39   40 1    
    76   39   95 1    
    77   40   41 1    
    78   40   42 1    
    79   40   96 1    
    80   41   97 1    
    81   41   98 1    
    82   41   99 1    
    83   42   43 2    
    84   42   44 am   BACKBONE|DICT|INTERRES
    85   44   45 1    
    86   44  100 1    
    87   45   46 1    
    88   45   47 1    
    89   45  101 1    
    90   46  102 1    
    91   46  103 1    
    92   46  104 1    
    93   47   48 2    
    94   47   49 am   BACKBONE|DICT|INTERRES
    95   49   50 1    
    96   49  105 1    
    97   50   51 1    
    98   50   52 1    
    99   50  106 1    
   100   51  107 1    
   101   51  108 1    
   102   51  109 1    
   103   52   53 2    
   104   52   54 am   BACKBONE|DICT|INTERRES
   105   54   55 1    
   106   54  110 1    
   107   55   56 1    
   108   55   59 1    
   109   55  111 1    
   110   56   57 am   BACKBONE|DICT|INTERRES
   111   56   58 2    
   112   57  112 1    
   113   57  113 1    
   114   59   60 1    
   115   59  114 1    
   116   59  115 1    
   117   60   61 1    
   118   61  116 1    
   119   61  117 1    
@<TRIPOS>SUBSTRUCTURE
     1 UNK         1 GROUP             0       ****    0 ROOT    
