@<TRIPOS>MOLECULE
3R8
117   119    1
SMALL
USER_CHARGES


@<TRIPOS>ATOM
      1 CA         13.4892  -25.1912  -41.4526 C.3       0 UNK        -0.2013 
      2 C          14.4746  -25.9163  -42.3568 C.2       0 UNK         0.4866 
      3 O          14.8507  -27.0463  -42.0512 O.2       0 UNK        -0.5176 
      4 N          14.9032  -25.2533  -43.4411 N.am      1 UNK        -0.4884 
      5 CA         15.7961  -25.6663  -44.5433 C.3       1 UNK         0.0853 
      6 C6         15.1361  -26.6144  -45.5842 C.3       10 UNK        -0.0849 
      7 S7         14.8875  -28.3502  -45.0655 S.3       10 UNK        -0.2776 
      8 C8         15.8877  -29.2817  -46.2752 C.3       10 UNK         0.0316 
      9 C9         17.3481  -29.4306  -45.8622 C.ar      10 UNK        -0.0863 
     10 C10        17.6783  -30.1762  -44.7272 C.ar      10 UNK        -0.1009 
     11 C11        19.0145  -30.3934  -44.3793 C.ar      10 UNK        -0.0712 
     12 C12        20.0314  -29.8594  -45.1773 C.ar      10 UNK        -0.0894 
     13 C13        19.7163  -29.1061  -46.3134 C.ar      10 UNK        -0.0745 
     14 C14        18.3733  -28.8900  -46.6461 C.ar      10 UNK        -0.0972 
     15 C15        20.8200  -28.5758  -47.2203 C.3       10 UNK         0.0209 
     16 S16        21.2527  -26.8417  -46.8663 S.3       10 UNK        -0.2568 
     17 C17        22.4364  -26.9996  -45.4856 C.3       10 UNK        -0.0983 
     18 CA         21.9417  -26.2962  -44.1986 C.3       3 UNK         0.0876 
     19 N          20.6934  -26.8822  -43.7139 N.am      3 UNK        -0.4424 
     20 C          19.9429  -26.4161  -42.7095 C.2       2 UNK         0.4918 
     21 O          20.1987  -25.4014  -42.0579 O.2       2 UNK        -0.4875 
     22 CA         18.6663  -27.2194  -42.4099 C.3       2 UNK         0.0481 
     23 CB         18.4842  -27.4326  -40.8976 C.3       2 UNK        -0.1831 
     24 N          17.4391  -26.6375  -42.9630 N.am      2 UNK        -0.4498 
     25 C          17.2318  -26.1061  -44.1769 C.2       1 UNK         0.5027 
     26 O          18.1109  -25.9386  -45.0216 O.2       1 UNK        -0.4969 
     27 C          23.0188  -26.3604  -43.1014 C.2       3 UNK         0.5005 
     28 O          23.3056  -27.4534  -42.6134 O.2       3 UNK        -0.5279 
     29 N          23.6051  -25.2075  -42.7459 N.am      4 UNK        -0.4463 
     30 CA         24.5335  -25.0298  -41.6186 C.3       4 UNK         0.0283 
     31 CB         24.9489  -23.5521  -41.5355 C.3       4 UNK        -0.1875 
     32 C          25.7819  -25.9325  -41.6326 C.2       4 UNK         0.4949 
     33 O          26.3289  -26.2186  -40.5677 O.2       4 UNK        -0.5039 
     34 N          26.1976  -26.3787  -42.8250 N.am      5 UNK        -0.4663 
     35 CA         27.3035  -27.3158  -43.0311 C.3       5 UNK         0.0242 
     36 CB         27.6745  -27.3243  -44.5233 C.3       5 UNK        -0.1982 
     37 C          27.0141  -28.7497  -42.5443 C.2       5 UNK         0.5017 
     38 O          27.9668  -29.4966  -42.3165 O.2       5 UNK        -0.5012 
     39 N          25.7338  -29.1214  -42.4036 N.am      6 UNK        -0.4439 
     40 CA         25.2926  -30.4546  -41.9938 C.3       6 UNK         0.0297 
     41 CB         25.3452  -31.4260  -43.1920 C.3       6 UNK        -0.2006 
     42 C          23.8976  -30.3607  -41.3627 C.2       6 UNK         0.4892 
     43 O          22.9823  -31.0675  -41.7858 O.2       6 UNK        -0.5089 
     44 N          23.7531  -29.4742  -40.3665 N.am      7 UNK        -0.4243 
     45 CA         22.4731  -29.1108  -39.7432 C.3       7 UNK         0.0196 
     46 CB         22.6952  -27.9380  -38.7759 C.3       7 UNK        -0.2007 
     47 C          21.7471  -30.2696  -39.0357 C.2       7 UNK         0.5020 
     48 O          20.5231  -30.2279  -38.9138 O.2       7 UNK        -0.5147 
     49 N          22.5022  -31.2912  -38.6076 N.am      8 UNK        -0.4734 
     50 CA         21.9770  -32.5462  -38.0596 C.3       8 UNK         0.0238 
     51 CB         23.1177  -33.3056  -37.3624 C.3       8 UNK        -0.1912 
     52 C          21.3011  -33.4422  -39.1170 C.2       8 UNK         0.5038 
     53 O          20.5115  -34.3106  -38.7445 O.2       8 UNK        -0.5046 
     54 N          21.6136  -33.2175  -40.4016 N.am      9 UNK        -0.4200 
     55 CA         21.0575  -33.9063  -41.5752 C.3       9 UNK         0.0839 
     56 C          21.4366  -35.4123  -41.7127 C.2       9 UNK         0.5513 
     57 N          22.4504  -35.9023  -41.0091 N.am      9 UNK        -0.7519 
     58 O          20.8275  -36.1442  -42.4888 O.2       9 UNK        -0.4960 
     59 C59        19.5360  -33.6147  -41.7571 C.3       10 UNK        -0.0876 
     60 S60        19.1532  -32.9816  -43.4226 S.3       10 UNK        -0.2414 
     61 C61        19.3481  -31.1962  -43.1325 C.3       10 UNK         0.0169 
     62 H62        13.9076  -25.0831  -40.4523 H         1 UNK         0.0903 
     63 H63        13.2427  -24.1976  -41.8263 H         1 UNK         0.0903 
     64 H64        12.5643  -25.7621  -41.3745 H         1 UNK         0.0903 
     65 H65        14.5542  -24.3111  -43.5558 H         1 UNK         0.3096 
     66 H66        15.9550  -24.7272  -45.0771 H         1 UNK         0.1121 
     67 H67        14.1616  -26.2145  -45.8678 H         1 UNK         0.0849 
     68 H68        15.7243  -26.6012  -46.5036 H         1 UNK         0.0849 
     69 H69        15.4588  -30.2799  -46.3736 H         1 UNK         0.0865 
     70 H70        15.7996  -28.8254  -47.2623 H         1 UNK         0.0865 
     71 H71        16.8912  -30.6004  -44.1185 H         1 UNK         0.1346 
     72 H72        21.0663  -30.0411  -44.9192 H         1 UNK         0.1412 
     73 H73        18.1295  -28.3189  -47.5316 H         1 UNK         0.1426 
     74 H74        21.7101  -29.2034  -47.1548 H         1 UNK         0.0716 
     75 H75        20.4904  -28.6402  -48.2584 H         1 UNK         0.0716 
     76 H76        22.6443  -28.0539  -45.2929 H         1 UNK         0.0695 
     77 H77        23.3802  -26.5626  -45.8175 H         1 UNK         0.0695 
     78 H78        21.7395  -25.2488  -44.4323 H         1 UNK         0.0983 
     79 H79        20.3568  -27.6792  -44.2351 H         1 UNK         0.3095 
     80 H80        18.7744  -28.2036  -42.8604 H         1 UNK         0.0454 
     81 H81        19.3764  -27.8765  -40.4537 H         1 UNK         0.0851 
     82 H82        18.2935  -26.4928  -40.3782 H         1 UNK         0.0851 
     83 H83        17.6523  -28.1056  -40.6892 H         1 UNK         0.0851 
     84 H84        16.5961  -26.7723  -42.4088 H         1 UNK         0.2976 
     85 H85        23.3154  -24.3605  -43.2144 H         1 UNK         0.3116 
     86 H86        23.9780  -25.2742  -40.7113 H         1 UNK         0.0646 
     87 H87        25.6173  -23.3805  -40.6902 H         1 UNK         0.0847 
     88 H88        24.0851  -22.9017  -41.3965 H         1 UNK         0.0847 
     89 H89        25.4739  -23.2290  -42.4353 H         1 UNK         0.0847 
     90 H90        25.6836  -26.0900  -43.6445 H         1 UNK         0.3040 
     91 H91        28.1643  -26.9523  -42.4651 H         1 UNK         0.1015 
     92 H92        27.9635  -26.3308  -44.8671 H         1 UNK         0.0786 
     93 H93        26.8456  -27.6683  -45.1434 H         1 UNK         0.0786 
     94 H94        28.5195  -27.9881  -44.7122 H         1 UNK         0.0786 
     95 H95        24.9902  -28.4436  -42.5672 H         1 UNK         0.3172 
     96 H96        25.9602  -30.8299  -41.2155 H         1 UNK         0.0595 
     97 H97        24.6971  -31.0940  -44.0040 H         1 UNK         0.0839 
     98 H98        25.0196  -32.4256  -42.9010 H         1 UNK         0.0839 
     99 H99        26.3564  -31.5206  -43.5873 H         1 UNK         0.0839 
    100 H100       24.5591  -28.9312  -40.0914 H         1 UNK         0.2998 
    101 H101       21.8156  -28.7676  -40.5453 H         1 UNK         0.0822 
    102 H102       23.1080  -27.0724  -39.2936 H         1 UNK         0.0787 
    103 H103       21.7548  -27.6226  -38.3215 H         1 UNK         0.0787 
    104 H104       23.3767  -28.2050  -37.9672 H         1 UNK         0.0787 
    105 H105       23.5016  -31.2295  -38.7386 H         1 UNK         0.3055 
    106 H106       21.2179  -32.3021  -37.3128 H         1 UNK         0.1106 
    107 H107       22.7550  -34.2346  -36.9200 H         1 UNK         0.0828 
    108 H108       23.9162  -33.5663  -38.0579 H         1 UNK         0.0828 
    109 H109       23.5530  -32.7151  -36.5559 H         1 UNK         0.0828 
    110 H110       22.2489  -32.4584  -40.6264 H         1 UNK         0.2931 
    111 H111       21.5929  -33.4384  -42.4021 H         1 UNK         0.0412 
    112 H112       22.6980  -36.8744  -41.1092 H         1 UNK         0.3472 
    113 H113       22.9655  -35.3114  -40.3768 H         1 UNK         0.3472 
    114 H114       18.9297  -34.5030  -41.5705 H         1 UNK         0.0970 
    115 H115       19.1825  -32.8827  -41.0292 H         1 UNK         0.0970 
    116 H116       18.6947  -30.8841  -42.3161 H         1 UNK         0.0612 
    117 H117       20.3695  -30.9928  -42.8059 H         1 UNK         0.0612 
@<TRIPOS>BOND
     1    1    2 1    
     2    1   62 1    
     3    1   63 1    
     4    1   64 1    
     5    2    3 2    
     6    2    4 am   BACKBONE|DICT|INTERRES
     7    4    5 1    
     8    4   65 1    
     9    5    6 1    
    10    5   25 1    
    11    5   66 1    
    12    6    7 1    
    13    6   67 1    
    14    6   68 1    
    15    7    8 1    
    16    8    9 1    
    17    8   69 1    
    18    8   70 1    
    19    9   10 ar   
    20    9   14 ar   
    21   10   11 ar   
    22   10   71 1    
    23   11   12 ar   
    24   11   61 1    
    25   12   13 ar   
    26   12   72 1    
    27   13   14 ar   
    28   13   15 1    
    29   14   73 1    
    30   15   16 1    
    31   15   74 1    
    32   15   75 1    
    33   16   17 1    
    34   17   18 1    
    35   17   76 1    
    36   17   77 1    
    37   18   19 1    
    38   18   27 1    
    39   18   78 1    
    40   19   20 am   BACKBONE|DICT|INTERRES
    41   19   79 1    
    42   20   21 2    
    43   20   22 1    
    44   22   23 1    
    45   22   24 1    
    46   22   80 1    
    47   23   81 1    
    48   23   82 1    
    49   23   83 1    
    50   24   25 am   BACKBONE|DICT|INTERRES
    51   24   84 1    
    52   25   26 2    
    53   27   28 2    
    54   27   29 am   BACKBONE|DICT|INTERRES
    55   29   30 1    
    56   29   85 1    
    57   30   31 1    
    58   30   32 1    
    59   30   86 1    
    60   31   87 1    
    61   31   88 1    
    62   31   89 1    
    63   32   33 2    
    64   32   34 am   BACKBONE|DICT|INTERRES
    65   34   35 1    
    66   34   90 1    
    67   35   36 1    
    68   35   37 1    
    69   35   91 1    
    70   36   92 1    
    71   36   93 1    
    72   36   94 1    
    73   37   38 2    
    74   37   39 am   BACKBONE|DICT|INTERRES
    75   39   40 1    
    76   39   95 1    
    77   40   41 1    
    78   40   42 1    
    79   40   96 1    
    80   41   97 1    
    81   41   98 1    
    82   41   99 1    
    83   42   43 2    
    84   42   44 am   BACKBONE|DICT|INTERRES
    85   44   45 1    
    86   44  100 1    
    87   45   46 1    
    88   45   47 1    
    89   45  101 1    
    90   46  102 1    
    91   46  103 1    
    92   46  104 1    
    93   47   48 2    
    94   47   49 am   BACKBONE|DICT|INTERRES
    95   49   50 1    
    96   49  105 1    
    97   50   51 1    
    98   50   52 1    
    99   50  106 1    
   100   51  107 1    
   101   51  108 1    
   102   51  109 1    
   103   52   53 2    
   104   52   54 am   BACKBONE|DICT|INTERRES
   105   54   55 1    
   106   54  110 1    
   107   55   56 1    
   108   55   59 1    
   109   55  111 1    
   110   56   57 am   BACKBONE|DICT|INTERRES
   111   56   58 2    
   112   57  112 1    
   113   57  113 1    
   114   59   60 1    
   115   59  114 1    
   116   59  115 1    
   117   60   61 1    
   118   61  116 1    
   119   61  117 1    
@<TRIPOS>SUBSTRUCTURE
     1 UNK         1 GROUP             0       ****    0 ROOT    
