@<TRIPOS>MOLECULE
3R8
117   119    1
SMALL
USER_CHARGES


@<TRIPOS>ATOM
      1 CA         13.7233  -24.2512  -45.3445 C.3       0 UNK        -0.2013 
      2 C          15.2114  -24.2087  -45.6574 C.2       0 UNK         0.4866 
      3 O          15.6733  -23.2763  -46.3153 O.2       0 UNK        -0.5176 
      4 N          15.9673  -25.2113  -45.1901 N.am      1 UNK        -0.4884 
      5 CA         17.4127  -25.3487  -45.4252 C.3       1 UNK         0.0853 
      6 C6         17.9342  -26.7736  -45.0924 C.3       10 UNK        -0.0849 
      7 S7         16.9672  -28.1381  -45.8174 S.3       10 UNK        -0.2776 
      8 C8         16.4700  -29.0600  -44.3198 C.3       10 UNK         0.0316 
      9 C9         17.6614  -29.6232  -43.5489 C.ar      10 UNK        -0.0863 
     10 C10        18.4923  -30.5749  -44.1474 C.ar      10 UNK        -0.1009 
     11 C11        19.5700  -31.1218  -43.4468 C.ar      10 UNK        -0.0712 
     12 C12        19.8158  -30.7097  -42.1334 C.ar      10 UNK        -0.0894 
     13 C13        18.9925  -29.7616  -41.5170 C.ar      10 UNK        -0.0745 
     14 C14        17.9178  -29.2190  -42.2320 C.ar      10 UNK        -0.0972 
     15 C15        19.2393  -29.3726  -40.0626 C.3       10 UNK         0.0209 
     16 S16        20.8048  -28.4651  -39.8316 S.3       10 UNK        -0.2568 
     17 C17        20.3072  -26.7275  -40.0869 C.3       10 UNK        -0.0983 
     18 CA         20.3732  -26.3094  -41.5767 C.3       3 UNK         0.0876 
     19 N          19.3847  -25.2864  -41.9196 N.am      3 UNK        -0.4424 
     20 C          19.4331  -23.9657  -41.6897 C.2       2 UNK         0.4918 
     21 O          20.2840  -23.4186  -40.9880 O.2       2 UNK        -0.4875 
     22 CA         18.3543  -23.1152  -42.4036 C.3       2 UNK         0.0481 
     23 CB         18.9103  -21.7590  -42.8847 C.3       2 UNK        -0.1831 
     24 N          17.6843  -23.8302  -43.5062 N.am      2 UNK        -0.4498 
     25 C          18.2541  -24.3418  -44.6130 C.2       1 UNK         0.5027 
     26 O          19.4329  -24.1604  -44.9209 O.2       1 UNK        -0.4969 
     27 C          21.7921  -25.9830  -42.1033 C.2       3 UNK         0.5005 
     28 O          22.7877  -26.2809  -41.4403 O.2       3 UNK        -0.5279 
     29 N          21.8685  -25.4144  -43.3201 N.am      4 UNK        -0.4463 
     30 CA         23.1152  -25.0839  -44.0273 C.3       4 UNK         0.0283 
     31 CB         22.7741  -24.3408  -45.3284 C.3       4 UNK        -0.1875 
     32 C          24.0190  -26.2988  -44.3213 C.2       4 UNK         0.4949 
     33 O          25.2196  -26.1266  -44.5293 O.2       4 UNK        -0.5039 
     34 N          23.4325  -27.5031  -44.2966 N.am      5 UNK        -0.4663 
     35 CA         24.1166  -28.7949  -44.3630 C.3       5 UNK         0.0242 
     36 CB         23.0697  -29.8742  -44.6769 C.3       5 UNK        -0.1982 
     37 C          24.8967  -29.1629  -43.0829 C.2       5 UNK         0.5017 
     38 O          25.6223  -30.1563  -43.1082 O.2       5 UNK        -0.5012 
     39 N          24.7305  -28.3917  -41.9948 N.am      6 UNK        -0.4439 
     40 CA         25.3956  -28.5380  -40.6937 C.3       6 UNK         0.0297 
     41 CB         26.9131  -28.2820  -40.8176 C.3       6 UNK        -0.2006 
     42 C          25.0594  -29.8700  -39.9968 C.2       6 UNK         0.4892 
     43 O          25.9576  -30.5683  -39.5234 O.2       6 UNK        -0.5089 
     44 N          23.7566  -30.1859  -39.9550 N.am      7 UNK        -0.4243 
     45 CA         23.1383  -31.3492  -39.3039 C.3       7 UNK         0.0196 
     46 CB         23.3417  -31.2971  -37.7748 C.3       7 UNK        -0.2007 
     47 C          23.5293  -32.7138  -39.9056 C.2       7 UNK         0.5020 
     48 O          23.3507  -33.7377  -39.2443 O.2       7 UNK        -0.5147 
     49 N          23.9969  -32.7309  -41.1638 N.am      8 UNK        -0.4734 
     50 CA         24.3780  -33.9439  -41.9052 C.3       8 UNK         0.0238 
     51 CB         25.0045  -33.5395  -43.2489 C.3       8 UNK        -0.1912 
     52 C          23.2252  -34.9426  -42.1320 C.2       8 UNK         0.5038 
     53 O          23.4839  -36.1302  -42.3306 O.2       8 UNK        -0.5046 
     54 N          21.9851  -34.4430  -42.0815 N.am      9 UNK        -0.4200 
     55 CA         20.7422  -35.2250  -42.1105 C.3       9 UNK         0.0839 
     56 C          20.4243  -35.9588  -40.7733 C.2       9 UNK         0.5513 
     57 N          21.1386  -35.7160  -39.6795 N.am      9 UNK        -0.7519 
     58 O          19.5084  -36.7760  -40.7307 O.2       9 UNK        -0.4960 
     59 C59        19.5422  -34.3522  -42.5662 C.3       10 UNK        -0.0876 
     60 S60        19.6961  -33.7796  -44.2936 S.3       10 UNK        -0.2414 
     61 C61        20.4761  -32.1425  -44.1209 C.3       10 UNK         0.0169 
     62 H62        13.1467  -24.2722  -46.2690 H         1 UNK         0.0903 
     63 H63        13.4539  -25.1292  -44.7576 H         1 UNK         0.0903 
     64 H64        13.4325  -23.3646  -44.7818 H         1 UNK         0.0903 
     65 H65        15.5299  -25.9723  -44.6899 H         1 UNK         0.3096 
     66 H66        17.6038  -25.1508  -46.4825 H         1 UNK         0.1121 
     67 H67        17.9728  -26.9191  -44.0126 H         1 UNK         0.0849 
     68 H68        18.9629  -26.8880  -45.4411 H         1 UNK         0.0849 
     69 H69        15.8646  -28.4125  -43.6837 H         1 UNK         0.0865 
     70 H70        15.8209  -29.8854  -44.6157 H         1 UNK         0.0865 
     71 H71        18.2977  -30.8934  -45.1627 H         1 UNK         0.1346 
     72 H72        20.6445  -31.1308  -41.5827 H         1 UNK         0.1412 
     73 H73        17.2698  -28.4961  -41.7553 H         1 UNK         0.1426 
     74 H74        19.2814  -30.2838  -39.4641 H         1 UNK         0.0716 
     75 H75        18.4073  -28.7916  -39.6623 H         1 UNK         0.0716 
     76 H76        20.9324  -26.0791  -39.4704 H         1 UNK         0.0695 
     77 H77        19.2939  -26.6071  -39.7011 H         1 UNK         0.0695 
     78 H78        20.0652  -27.1739  -42.1663 H         1 UNK         0.0983 
     79 H79        18.6051  -25.6106  -42.4691 H         1 UNK         0.3095 
     80 H80        17.5836  -22.9131  -41.6586 H         1 UNK         0.0454 
     81 H81        18.1442  -21.1739  -43.3933 H         1 UNK         0.0851 
     82 H82        19.7487  -21.8826  -43.5708 H         1 UNK         0.0851 
     83 H83        19.2668  -21.1619  -42.0446 H         1 UNK         0.0851 
     84 H84        16.7078  -24.0452  -43.3555 H         1 UNK         0.2976 
     85 H85        21.0101  -25.1551  -43.7934 H         1 UNK         0.3116 
     86 H86        23.6847  -24.4077  -43.3864 H         1 UNK         0.0646 
     87 H87        22.1720  -24.9557  -45.9986 H         1 UNK         0.0847 
     88 H88        22.2194  -23.4237  -45.1283 H         1 UNK         0.0847 
     89 H89        23.6791  -24.0586  -45.8682 H         1 UNK         0.0847 
     90 H90        22.4362  -27.5313  -44.1409 H         1 UNK         0.3040 
     91 H91        24.8390  -28.7602  -45.1815 H         1 UNK         0.1015 
     92 H92        23.5339  -30.8552  -44.7833 H         1 UNK         0.0786 
     93 H93        22.5473  -29.6643  -45.6106 H         1 UNK         0.0786 
     94 H94        22.3260  -29.9442  -43.8832 H         1 UNK         0.0786 
     95 H95        24.0756  -27.6148  -42.0495 H         1 UNK         0.3172 
     96 H96        24.9849  -27.7524  -40.0573 H         1 UNK         0.0595 
     97 H97        27.4097  -29.0547  -41.4055 H         1 UNK         0.0839 
     98 H98        27.3873  -28.2681  -39.8356 H         1 UNK         0.0839 
     99 H99        27.1157  -27.3201  -41.2884 H         1 UNK         0.0839 
    100 H100       23.1072  -29.5273  -40.3658 H         1 UNK         0.2998 
    101 H101       22.0670  -31.2537  -39.4840 H         1 UNK         0.0822 
    102 H102       22.7540  -32.0669  -37.2731 H         1 UNK         0.0787 
    103 H103       24.3847  -31.4547  -37.4988 H         1 UNK         0.0787 
    104 H104       23.0266  -30.3367  -37.3665 H         1 UNK         0.0787 
    105 H105       24.1618  -31.8465  -41.6248 H         1 UNK         0.3055 
    106 H106       25.1361  -34.4640  -41.3152 H         1 UNK         0.1106 
    107 H107       25.8843  -32.9122  -43.1042 H         1 UNK         0.0828 
    108 H108       25.3254  -34.4174  -43.8115 H         1 UNK         0.0828 
    109 H109       24.2995  -32.9918  -43.8746 H         1 UNK         0.0828 
    110 H110       21.8864  -33.4587  -41.8959 H         1 UNK         0.2931 
    111 H111       20.8721  -36.0148  -42.8531 H         1 UNK         0.0412 
    112 H112       20.9126  -36.2093  -38.8304 H         1 UNK         0.3472 
    113 H113       21.9060  -35.0526  -39.6814 H         1 UNK         0.3472 
    114 H114       19.3975  -33.5049  -41.8952 H         1 UNK         0.0970 
    115 H115       18.6155  -34.9271  -42.5149 H         1 UNK         0.0970 
    116 H116       20.7346  -31.7812  -45.1173 H         1 UNK         0.0612 
    117 H117       21.4198  -32.2403  -43.5851 H         1 UNK         0.0612 
@<TRIPOS>BOND
     1    1    2 1    
     2    1   62 1    
     3    1   63 1    
     4    1   64 1    
     5    2    3 2    
     6    2    4 am   BACKBONE|DICT|INTERRES
     7    4    5 1    
     8    4   65 1    
     9    5    6 1    
    10    5   25 1    
    11    5   66 1    
    12    6    7 1    
    13    6   67 1    
    14    6   68 1    
    15    7    8 1    
    16    8    9 1    
    17    8   69 1    
    18    8   70 1    
    19    9   10 ar   
    20    9   14 ar   
    21   10   11 ar   
    22   10   71 1    
    23   11   12 ar   
    24   11   61 1    
    25   12   13 ar   
    26   12   72 1    
    27   13   14 ar   
    28   13   15 1    
    29   14   73 1    
    30   15   16 1    
    31   15   74 1    
    32   15   75 1    
    33   16   17 1    
    34   17   18 1    
    35   17   76 1    
    36   17   77 1    
    37   18   19 1    
    38   18   27 1    
    39   18   78 1    
    40   19   20 am   BACKBONE|DICT|INTERRES
    41   19   79 1    
    42   20   21 2    
    43   20   22 1    
    44   22   23 1    
    45   22   24 1    
    46   22   80 1    
    47   23   81 1    
    48   23   82 1    
    49   23   83 1    
    50   24   25 am   BACKBONE|DICT|INTERRES
    51   24   84 1    
    52   25   26 2    
    53   27   28 2    
    54   27   29 am   BACKBONE|DICT|INTERRES
    55   29   30 1    
    56   29   85 1    
    57   30   31 1    
    58   30   32 1    
    59   30   86 1    
    60   31   87 1    
    61   31   88 1    
    62   31   89 1    
    63   32   33 2    
    64   32   34 am   BACKBONE|DICT|INTERRES
    65   34   35 1    
    66   34   90 1    
    67   35   36 1    
    68   35   37 1    
    69   35   91 1    
    70   36   92 1    
    71   36   93 1    
    72   36   94 1    
    73   37   38 2    
    74   37   39 am   BACKBONE|DICT|INTERRES
    75   39   40 1    
    76   39   95 1    
    77   40   41 1    
    78   40   42 1    
    79   40   96 1    
    80   41   97 1    
    81   41   98 1    
    82   41   99 1    
    83   42   43 2    
    84   42   44 am   BACKBONE|DICT|INTERRES
    85   44   45 1    
    86   44  100 1    
    87   45   46 1    
    88   45   47 1    
    89   45  101 1    
    90   46  102 1    
    91   46  103 1    
    92   46  104 1    
    93   47   48 2    
    94   47   49 am   BACKBONE|DICT|INTERRES
    95   49   50 1    
    96   49  105 1    
    97   50   51 1    
    98   50   52 1    
    99   50  106 1    
   100   51  107 1    
   101   51  108 1    
   102   51  109 1    
   103   52   53 2    
   104   52   54 am   BACKBONE|DICT|INTERRES
   105   54   55 1    
   106   54  110 1    
   107   55   56 1    
   108   55   59 1    
   109   55  111 1    
   110   56   57 am   BACKBONE|DICT|INTERRES
   111   56   58 2    
   112   57  112 1    
   113   57  113 1    
   114   59   60 1    
   115   59  114 1    
   116   59  115 1    
   117   60   61 1    
   118   61  116 1    
   119   61  117 1    
@<TRIPOS>SUBSTRUCTURE
     1 UNK         1 GROUP             0       ****    0 ROOT    
