@<TRIPOS>MOLECULE
3R8
117   119    1
SMALL
USER_CHARGES


@<TRIPOS>ATOM
      1 CA         20.5634  -27.8451  -49.7610 C.3       0 UNK        -0.2013 
      2 C          20.1747  -27.9476  -48.2942 C.2       0 UNK         0.4866 
      3 O          20.8595  -28.6201  -47.5227 O.2       0 UNK        -0.5176 
      4 N          19.0796  -27.2877  -47.8973 N.am      1 UNK        -0.4884 
      5 CA         18.5708  -27.2633  -46.5240 C.3       1 UNK         0.0853 
      6 C6         17.0602  -26.9172  -46.4634 C.3       10 UNK        -0.0849 
      7 S7         15.9455  -28.1945  -47.1410 S.3       10 UNK        -0.2776 
      8 C8         16.4896  -29.7495  -46.3395 C.3       10 UNK         0.0316 
      9 C9         16.6872  -29.6875  -44.8219 C.ar      10 UNK        -0.0863 
     10 C10        17.6981  -30.4609  -44.2408 C.ar      10 UNK        -0.1009 
     11 C11        17.8786  -30.4814  -42.8545 C.ar      10 UNK        -0.0712 
     12 C12        17.0527  -29.7000  -42.0446 C.ar      10 UNK        -0.0894 
     13 C13        16.0661  -28.8849  -42.6078 C.ar      10 UNK        -0.0745 
     14 C14        15.8696  -28.9074  -43.9934 C.ar      10 UNK        -0.0972 
     15 C15        15.1972  -27.9901  -41.7275 C.3       10 UNK         0.0209 
     16 S16        16.1408  -27.0509  -40.4724 S.3       10 UNK        -0.2568 
     17 C17        17.2878  -26.0606  -41.4911 C.3       10 UNK        -0.0983 
     18 CA         18.7599  -26.5239  -41.3363 C.3       3 UNK         0.0876 
     19 N          19.5557  -26.1649  -42.5084 N.am      3 UNK        -0.4424 
     20 C          20.7747  -26.6398  -42.7922 C.2       2 UNK         0.4918 
     21 O          21.3769  -27.4471  -42.0840 O.2       2 UNK        -0.4875 
     22 CA         21.3737  -26.1860  -44.1385 C.3       2 UNK         0.0481 
     23 CB         22.8533  -26.5768  -44.2953 C.3       2 UNK        -0.1831 
     24 N          20.5963  -26.7628  -45.2376 N.am      2 UNK        -0.4498 
     25 C          19.3979  -26.3166  -45.6341 C.2       1 UNK         0.5027 
     26 O          18.9282  -25.2338  -45.2751 O.2       1 UNK        -0.4969 
     27 C          19.4158  -25.9832  -40.0494 C.2       3 UNK         0.5005 
     28 O          19.8735  -24.8370  -40.0372 O.2       3 UNK        -0.5279 
     29 N          19.4483  -26.8230  -39.0034 N.am      4 UNK        -0.4463 
     30 CA         20.0856  -26.5876  -37.7003 C.3       4 UNK         0.0283 
     31 CB         19.3796  -25.4478  -36.9340 C.3       4 UNK        -0.1875 
     32 C          21.6159  -26.3967  -37.7880 C.2       4 UNK         0.4949 
     33 O          22.1904  -25.6682  -36.9770 O.2       4 UNK        -0.5039 
     34 N          22.2525  -27.0697  -38.7537 N.am      5 UNK        -0.4663 
     35 CA         23.6981  -27.1067  -38.9567 C.3       5 UNK         0.0242 
     36 CB         24.0877  -26.0858  -40.0408 C.3       5 UNK        -0.1982 
     37 C          24.1050  -28.5278  -39.3660 C.2       5 UNK         0.5017 
     38 O          23.2658  -29.2938  -39.8429 O.2       5 UNK        -0.5012 
     39 N          25.3935  -28.8482  -39.1925 N.am      6 UNK        -0.4439 
     40 CA         25.9815  -30.1551  -39.5142 C.3       6 UNK         0.0297 
     41 CB         27.2850  -30.3212  -38.7139 C.3       6 UNK        -0.2006 
     42 C          26.2401  -30.3781  -41.0184 C.2       6 UNK         0.4892 
     43 O          26.5973  -31.4912  -41.4054 O.2       6 UNK        -0.5089 
     44 N          26.0828  -29.3275  -41.8359 N.am      7 UNK        -0.4243 
     45 CA         26.3148  -29.3372  -43.2834 C.3       7 UNK         0.0196 
     46 CB         26.4405  -27.8854  -43.7743 C.3       7 UNK        -0.2007 
     47 C          25.2529  -30.1040  -44.0973 C.2       7 UNK         0.5020 
     48 O          25.4933  -30.3785  -45.2734 O.2       7 UNK        -0.5147 
     49 N          24.1138  -30.4395  -43.4819 N.am      8 UNK        -0.4734 
     50 CA         23.0488  -31.2564  -44.0602 C.3       8 UNK         0.0238 
     51 CB         21.9281  -30.3398  -44.5827 C.3       8 UNK        -0.1912 
     52 C          22.5312  -32.2310  -42.9939 C.2       8 UNK         0.5038 
     53 O          22.7742  -32.0183  -41.8039 O.2       8 UNK        -0.5046 
     54 N          21.8193  -33.2744  -43.4419 N.am      9 UNK        -0.4200 
     55 CA         21.2358  -34.3456  -42.6094 C.3       9 UNK         0.0839 
     56 C          22.2825  -35.2592  -41.8973 C.2       9 UNK         0.5513 
     57 N          23.5359  -35.2925  -42.3342 N.am      9 UNK        -0.7519 
     58 O          21.9513  -35.9783  -40.9577 O.2       9 UNK        -0.4960 
     59 C59        20.1244  -33.8364  -41.6431 C.3       10 UNK        -0.0876 
     60 S60        18.7008  -33.1061  -42.5209 S.3       10 UNK        -0.2414 
     61 C61        18.9753  -31.3317  -42.2311 C.3       10 UNK         0.0169 
     62 H62        19.8626  -27.2319  -50.3274 H         1 UNK         0.0903 
     63 H63        21.5551  -27.4035  -49.8556 H         1 UNK         0.0903 
     64 H64        20.5875  -28.8369  -50.2118 H         1 UNK         0.0903 
     65 H65        18.5565  -26.7414  -48.5674 H         1 UNK         0.3096 
     66 H66        18.7080  -28.2543  -46.0907 H         1 UNK         0.1121 
     67 H67        16.8652  -25.9824  -46.9923 H         1 UNK         0.0849 
     68 H68        16.7480  -26.7353  -45.4335 H         1 UNK         0.0849 
     69 H69        15.7480  -30.5201  -46.5536 H         1 UNK         0.0865 
     70 H70        17.4082  -30.0786  -46.8282 H         1 UNK         0.0865 
     71 H71        18.3367  -31.0718  -44.8645 H         1 UNK         0.1346 
     72 H72        17.1889  -29.7102  -40.9721 H         1 UNK         0.1412 
     73 H73        15.0814  -28.3088  -44.4289 H         1 UNK         0.1426 
     74 H74        14.4605  -28.6124  -41.2181 H         1 UNK         0.0716 
     75 H75        14.6340  -27.2811  -42.3363 H         1 UNK         0.0716 
     76 H76        17.1737  -25.0052  -41.2360 H         1 UNK         0.0695 
     77 H77        16.9740  -26.1451  -42.5331 H         1 UNK         0.0695 
     78 H78        18.7759  -27.6147  -41.2940 H         1 UNK         0.0983 
     79 H79        19.1378  -25.5133  -43.1611 H         1 UNK         0.3095 
     80 H80        21.3130  -25.0967  -44.1847 H         1 UNK         0.0454 
     81 H81        23.0051  -27.6531  -44.2182 H         1 UNK         0.0851 
     82 H82        23.4554  -26.1064  -43.5177 H         1 UNK         0.0851 
     83 H83        23.2521  -26.2499  -45.2555 H         1 UNK         0.0851 
     84 H84        20.9282  -27.6354  -45.6334 H         1 UNK         0.2976 
     85 H85        19.0275  -27.7353  -39.1158 H         1 UNK         0.3116 
     86 H86        19.9362  -27.5029  -37.1258 H         1 UNK         0.0646 
     87 H87        19.5483  -24.4779  -37.4026 H         1 UNK         0.0847 
     88 H88        19.7469  -25.3793  -35.9094 H         1 UNK         0.0847 
     89 H89        18.3035  -25.6120  -36.8798 H         1 UNK         0.0847 
     90 H90        21.7296  -27.6815  -39.3691 H         1 UNK         0.3040 
     91 H91        24.2101  -26.8624  -38.0229 H         1 UNK         0.1015 
     92 H92        23.7791  -25.0780  -39.7623 H         1 UNK         0.0786 
     93 H93        23.6238  -26.3218  -40.9988 H         1 UNK         0.0786 
     94 H94        25.1671  -26.0622  -40.1947 H         1 UNK         0.0786 
     95 H95        26.0195  -28.1574  -38.8020 H         1 UNK         0.3172 
     96 H96        25.2865  -30.9338  -39.1920 H         1 UNK         0.0595 
     97 H97        28.0290  -29.5737  -38.9921 H         1 UNK         0.0839 
     98 H98        27.7297  -31.3021  -38.8886 H         1 UNK         0.0839 
     99 H99        27.1073  -30.2377  -37.6415 H         1 UNK         0.0839 
    100 H100       25.7826  -28.4542  -41.4298 H         1 UNK         0.2998 
    101 H101       27.2686  -29.8371  -43.4662 H         1 UNK         0.0822 
    102 H102       27.2841  -27.3803  -43.3035 H         1 UNK         0.0787 
    103 H103       26.6036  -27.8461  -44.8524 H         1 UNK         0.0787 
    104 H104       25.5426  -27.3081  -43.5585 H         1 UNK         0.0787 
    105 H105       24.0099  -30.2510  -42.4915 H         1 UNK         0.3055 
    106 H106       23.4428  -31.8515  -44.8874 H         1 UNK         0.1106 
    107 H107       21.0917  -30.9161  -44.9796 H         1 UNK         0.0828 
    108 H108       21.5391  -29.6915  -43.7969 H         1 UNK         0.0828 
    109 H109       22.2897  -29.7055  -45.3919 H         1 UNK         0.0828 
    110 H110       21.6712  -33.3743  -44.4356 H         1 UNK         0.2931 
    111 H111       20.7490  -35.0156  -43.3191 H         1 UNK         0.0412 
    112 H112       23.8244  -34.7197  -43.1106 H         1 UNK         0.3472 
    113 H113       24.2022  -35.8940  -41.8753 H         1 UNK         0.3472 
    114 H114       19.7269  -34.6627  -41.0513 H         1 UNK         0.0970 
    115 H115       20.5297  -33.1271  -40.9200 H         1 UNK         0.0970 
    116 H116       19.9343  -31.0348  -42.6496 H         1 UNK         0.0612 
    117 H117       19.0393  -31.1533  -41.1566 H         1 UNK         0.0612 
@<TRIPOS>BOND
     1    1    2 1    
     2    1   62 1    
     3    1   63 1    
     4    1   64 1    
     5    2    3 2    
     6    2    4 am   BACKBONE|DICT|INTERRES
     7    4    5 1    
     8    4   65 1    
     9    5    6 1    
    10    5   25 1    
    11    5   66 1    
    12    6    7 1    
    13    6   67 1    
    14    6   68 1    
    15    7    8 1    
    16    8    9 1    
    17    8   69 1    
    18    8   70 1    
    19    9   10 ar   
    20    9   14 ar   
    21   10   11 ar   
    22   10   71 1    
    23   11   12 ar   
    24   11   61 1    
    25   12   13 ar   
    26   12   72 1    
    27   13   14 ar   
    28   13   15 1    
    29   14   73 1    
    30   15   16 1    
    31   15   74 1    
    32   15   75 1    
    33   16   17 1    
    34   17   18 1    
    35   17   76 1    
    36   17   77 1    
    37   18   19 1    
    38   18   27 1    
    39   18   78 1    
    40   19   20 am   BACKBONE|DICT|INTERRES
    41   19   79 1    
    42   20   21 2    
    43   20   22 1    
    44   22   23 1    
    45   22   24 1    
    46   22   80 1    
    47   23   81 1    
    48   23   82 1    
    49   23   83 1    
    50   24   25 am   BACKBONE|DICT|INTERRES
    51   24   84 1    
    52   25   26 2    
    53   27   28 2    
    54   27   29 am   BACKBONE|DICT|INTERRES
    55   29   30 1    
    56   29   85 1    
    57   30   31 1    
    58   30   32 1    
    59   30   86 1    
    60   31   87 1    
    61   31   88 1    
    62   31   89 1    
    63   32   33 2    
    64   32   34 am   BACKBONE|DICT|INTERRES
    65   34   35 1    
    66   34   90 1    
    67   35   36 1    
    68   35   37 1    
    69   35   91 1    
    70   36   92 1    
    71   36   93 1    
    72   36   94 1    
    73   37   38 2    
    74   37   39 am   BACKBONE|DICT|INTERRES
    75   39   40 1    
    76   39   95 1    
    77   40   41 1    
    78   40   42 1    
    79   40   96 1    
    80   41   97 1    
    81   41   98 1    
    82   41   99 1    
    83   42   43 2    
    84   42   44 am   BACKBONE|DICT|INTERRES
    85   44   45 1    
    86   44  100 1    
    87   45   46 1    
    88   45   47 1    
    89   45  101 1    
    90   46  102 1    
    91   46  103 1    
    92   46  104 1    
    93   47   48 2    
    94   47   49 am   BACKBONE|DICT|INTERRES
    95   49   50 1    
    96   49  105 1    
    97   50   51 1    
    98   50   52 1    
    99   50  106 1    
   100   51  107 1    
   101   51  108 1    
   102   51  109 1    
   103   52   53 2    
   104   52   54 am   BACKBONE|DICT|INTERRES
   105   54   55 1    
   106   54  110 1    
   107   55   56 1    
   108   55   59 1    
   109   55  111 1    
   110   56   57 am   BACKBONE|DICT|INTERRES
   111   56   58 2    
   112   57  112 1    
   113   57  113 1    
   114   59   60 1    
   115   59  114 1    
   116   59  115 1    
   117   60   61 1    
   118   61  116 1    
   119   61  117 1    
@<TRIPOS>SUBSTRUCTURE
     1 UNK         1 GROUP             0       ****    0 ROOT    
