@<TRIPOS>MOLECULE
3R8
117   119    1
SMALL
USER_CHARGES


@<TRIPOS>ATOM
      1 CA         20.1474  -27.8811  -40.9003 C.3       0 UNK        -0.2013 
      2 C          19.3860  -27.4607  -42.1470 C.2       0 UNK         0.4866 
      3 O          19.7797  -27.8196  -43.2575 O.2       0 UNK        -0.5176 
      4 N          18.3229  -26.6598  -41.9707 N.am      1 UNK        -0.4884 
      5 CA         17.4187  -26.1261  -43.0110 C.3       1 UNK         0.0853 
      6 C6         16.6670  -27.2383  -43.7982 C.3       10 UNK        -0.0849 
      7 S7         15.6839  -28.3579  -42.7470 S.3       10 UNK        -0.2776 
      8 C8         14.9108  -29.4170  -44.0171 C.3       10 UNK         0.0316 
      9 C9         15.9449  -30.2709  -44.7380 C.ar      10 UNK        -0.0863 
     10 C10        16.4841  -31.3911  -44.1026 C.ar      10 UNK        -0.1009 
     11 C11        17.4980  -32.1351  -44.7120 C.ar      10 UNK        -0.0712 
     12 C12        17.9322  -31.7858  -45.9942 C.ar      10 UNK        -0.0894 
     13 C13        17.3845  -30.6796  -46.6517 C.ar      10 UNK        -0.0745 
     14 C14        16.3892  -29.9265  -46.0188 C.ar      10 UNK        -0.0972 
     15 C15        17.8935  -30.2748  -48.0303 C.3       10 UNK         0.0209 
     16 S16        19.6112  -29.6600  -47.9874 S.3       10 UNK        -0.2568 
     17 C17        19.4952  -28.3844  -46.6912 C.3       10 UNK        -0.0983 
     18 CA         20.7166  -27.4364  -46.6117 C.3       3 UNK         0.0876 
     19 N          20.4521  -26.3693  -45.6539 N.am      3 UNK        -0.4424 
     20 C          20.7030  -25.0648  -45.8121 C.2       2 UNK         0.4918 
     21 O          21.2000  -24.5826  -46.8307 O.2       2 UNK        -0.4875 
     22 CA         20.3364  -24.1450  -44.6222 C.3       2 UNK         0.0481 
     23 CB         19.8875  -22.7390  -45.0728 C.3       2 UNK        -0.1831 
     24 N          19.3617  -24.7564  -43.7042 N.am      2 UNK        -0.4498 
     25 C          18.1070  -25.1435  -43.9925 C.2       1 UNK         0.5027 
     26 O          17.5123  -24.7994  -45.0150 O.2       1 UNK        -0.4969 
     27 C          22.0014  -28.1584  -46.1690 C.2       3 UNK         0.5005 
     28 O          22.9381  -28.2811  -46.9608 O.2       3 UNK        -0.5279 
     29 N          22.0393  -28.5677  -44.8941 N.am      4 UNK        -0.4463 
     30 CA         23.2216  -29.0789  -44.2092 C.3       4 UNK         0.0283 
     31 CB         22.8046  -30.2607  -43.3237 C.3       4 UNK        -0.1875 
     32 C          23.8250  -27.9601  -43.3508 C.2       4 UNK         0.4949 
     33 O          23.1039  -27.0653  -42.9011 O.2       4 UNK        -0.5039 
     34 N          25.1346  -28.0465  -43.0929 N.am      5 UNK        -0.4663 
     35 CA         25.9086  -27.0747  -42.3119 C.3       5 UNK         0.0242 
     36 CB         27.3868  -27.1668  -42.7360 C.3       5 UNK        -0.1982 
     37 C          25.7173  -27.2432  -40.7898 C.2       5 UNK         0.5017 
     38 O          26.7006  -27.3685  -40.0588 O.2       5 UNK        -0.5012 
     39 N          24.4533  -27.2773  -40.3439 N.am      6 UNK        -0.4439 
     40 CA         23.9429  -27.3731  -38.9643 C.3       6 UNK         0.0297 
     41 CB         24.3584  -26.1361  -38.1448 C.3       6 UNK        -0.2006 
     42 C          24.2730  -28.6692  -38.1922 C.2       6 UNK         0.4892 
     43 O          23.5336  -29.0129  -37.2699 O.2       6 UNK        -0.5089 
     44 N          25.3528  -29.3674  -38.5640 N.am      7 UNK        -0.4243 
     45 CA         25.8236  -30.6172  -37.9568 C.3       7 UNK         0.0196 
     46 CB         27.2680  -30.8722  -38.4185 C.3       7 UNK        -0.2007 
     47 C          24.9384  -31.8419  -38.2604 C.2       7 UNK         0.5020 
     48 O          25.0923  -32.8727  -37.6039 O.2       7 UNK        -0.5147 
     49 N          24.0412  -31.7192  -39.2419 N.am      8 UNK        -0.4734 
     50 CA         23.0454  -32.7121  -39.6308 C.3       8 UNK         0.0238 
     51 CB         23.5826  -33.5323  -40.8181 C.3       8 UNK        -0.1912 
     52 C          21.7494  -31.9775  -39.9967 C.2       8 UNK         0.5038 
     53 O          21.7664  -30.7510  -40.1358 O.2       8 UNK        -0.5046 
     54 N          20.6639  -32.7434  -40.1656 N.am      9 UNK        -0.4200 
     55 CA         19.3166  -32.2613  -40.5167 C.3       9 UNK         0.0839 
     56 C          18.6748  -31.3775  -39.4008 C.2       9 UNK         0.5513 
     57 N          17.6473  -30.5940  -39.7047 N.am      9 UNK        -0.7519 
     58 O          19.0611  -31.4376  -38.2349 O.2       9 UNK        -0.4960 
     59 C59        19.2617  -31.6347  -41.9425 C.3       10 UNK        -0.0876 
     60 S60        19.7553  -32.8133  -43.2502 S.3       10 UNK        -0.2414 
     61 C61        18.1495  -33.2927  -43.9696 C.3       10 UNK         0.0169 
     62 H62        21.2036  -28.0216  -41.1275 H         1 UNK         0.0903 
     63 H63        20.0702  -27.1340  -40.1111 H         1 UNK         0.0903 
     64 H64        19.7581  -28.8227  -40.5192 H         1 UNK         0.0903 
     65 H65        18.0680  -26.4022  -41.0266 H         1 UNK         0.3096 
     66 H66        16.6698  -25.5306  -42.4863 H         1 UNK         0.1121 
     67 H67        17.3761  -27.8350  -44.3735 H         1 UNK         0.0849 
     68 H68        15.9807  -26.7996  -44.5252 H         1 UNK         0.0849 
     69 H69        14.1741  -30.0645  -43.5391 H         1 UNK         0.0865 
     70 H70        14.3570  -28.7970  -44.7238 H         1 UNK         0.0865 
     71 H71        16.1420  -31.6554  -43.1114 H         1 UNK         0.1346 
     72 H72        18.7216  -32.3540  -46.4673 H         1 UNK         0.1412 
     73 H73        15.9787  -29.0561  -46.5122 H         1 UNK         0.1426 
     74 H74        17.2548  -29.5056  -48.4674 H         1 UNK         0.0716 
     75 H75        17.8408  -31.1336  -48.7008 H         1 UNK         0.0716 
     76 H76        19.3270  -28.8797  -45.7328 H         1 UNK         0.0695 
     77 H77        18.5961  -27.7969  -46.8860 H         1 UNK         0.0695 
     78 H78        20.8894  -27.0094  -47.6021 H         1 UNK         0.0983 
     79 H79        20.0929  -26.6813  -44.7561 H         1 UNK         0.3095 
     80 H80        21.2538  -24.0263  -44.0441 H         1 UNK         0.0454 
     81 H81        19.6208  -22.1146  -44.2205 H         1 UNK         0.0851 
     82 H82        19.0283  -22.7796  -45.7426 H         1 UNK         0.0851 
     83 H83        20.6881  -22.2279  -45.6087 H         1 UNK         0.0851 
     84 H84        19.7437  -25.0882  -42.8290 H         1 UNK         0.2976 
     85 H85        21.2436  -28.3601  -44.2935 H         1 UNK         0.3116 
     86 H86        23.9672  -29.4212  -44.9300 H         1 UNK         0.0646 
     87 H87        22.0509  -29.9598  -42.5972 H         1 UNK         0.0847 
     88 H88        23.6536  -30.6605  -42.7685 H         1 UNK         0.0847 
     89 H89        22.3884  -31.0754  -43.9163 H         1 UNK         0.0847 
     90 H90        25.6494  -28.8339  -43.4616 H         1 UNK         0.3040 
     91 H91        25.5583  -26.0699  -42.5600 H         1 UNK         0.1015 
     92 H92        27.8123  -28.1454  -42.5099 H         1 UNK         0.0786 
     93 H93        27.9908  -26.4205  -42.2179 H         1 UNK         0.0786 
     94 H94        27.5052  -26.9876  -43.8049 H         1 UNK         0.0786 
     95 H95        23.7401  -27.1947  -41.0646 H         1 UNK         0.3172 
     96 H96        22.8561  -27.3520  -39.0598 H         1 UNK         0.0595 
     97 H97        25.4383  -26.0878  -38.0009 H         1 UNK         0.0839 
     98 H98        23.9013  -26.1525  -37.1544 H         1 UNK         0.0839 
     99 H99        24.0425  -25.2130  -38.6306 H         1 UNK         0.0839 
    100 H100       25.9454  -28.9480  -39.2734 H         1 UNK         0.2998 
    101 H101       25.8275  -30.4838  -36.8730 H         1 UNK         0.0822 
    102 H102       27.6748  -31.7723  -37.9554 H         1 UNK         0.0787 
    103 H103       27.3268  -31.0057  -39.4995 H         1 UNK         0.0787 
    104 H104       27.9239  -30.0447  -38.1463 H         1 UNK         0.0787 
    105 H105       23.9071  -30.8094  -39.6651 H         1 UNK         0.3055 
    106 H106       22.8317  -33.3743  -38.7884 H         1 UNK         0.1106 
    107 H107       23.7773  -32.9036  -41.6874 H         1 UNK         0.0828 
    108 H108       24.5118  -34.0402  -40.5590 H         1 UNK         0.0828 
    109 H109       22.8711  -34.2998  -41.1246 H         1 UNK         0.0828 
    110 H110       20.7412  -33.7383  -40.0155 H         1 UNK         0.2931 
    111 H111       18.6944  -33.1567  -40.5365 H         1 UNK         0.0412 
    112 H112       17.2770  -30.5400  -40.6395 H         1 UNK         0.3472 
    113 H113       17.2229  -30.0494  -38.9703 H         1 UNK         0.3472 
    114 H114       19.9117  -30.7629  -42.0081 H         1 UNK         0.0970 
    115 H115       18.2668  -31.2595  -42.1643 H         1 UNK         0.0970 
    116 H116       17.4957  -33.6662  -43.1798 H         1 UNK         0.0612 
    117 H117       18.3059  -34.1244  -44.6580 H         1 UNK         0.0612 
@<TRIPOS>BOND
     1    1    2 1    
     2    1   62 1    
     3    1   63 1    
     4    1   64 1    
     5    2    3 2    
     6    2    4 am   BACKBONE|DICT|INTERRES
     7    4    5 1    
     8    4   65 1    
     9    5    6 1    
    10    5   25 1    
    11    5   66 1    
    12    6    7 1    
    13    6   67 1    
    14    6   68 1    
    15    7    8 1    
    16    8    9 1    
    17    8   69 1    
    18    8   70 1    
    19    9   10 ar   
    20    9   14 ar   
    21   10   11 ar   
    22   10   71 1    
    23   11   12 ar   
    24   11   61 1    
    25   12   13 ar   
    26   12   72 1    
    27   13   14 ar   
    28   13   15 1    
    29   14   73 1    
    30   15   16 1    
    31   15   74 1    
    32   15   75 1    
    33   16   17 1    
    34   17   18 1    
    35   17   76 1    
    36   17   77 1    
    37   18   19 1    
    38   18   27 1    
    39   18   78 1    
    40   19   20 am   BACKBONE|DICT|INTERRES
    41   19   79 1    
    42   20   21 2    
    43   20   22 1    
    44   22   23 1    
    45   22   24 1    
    46   22   80 1    
    47   23   81 1    
    48   23   82 1    
    49   23   83 1    
    50   24   25 am   BACKBONE|DICT|INTERRES
    51   24   84 1    
    52   25   26 2    
    53   27   28 2    
    54   27   29 am   BACKBONE|DICT|INTERRES
    55   29   30 1    
    56   29   85 1    
    57   30   31 1    
    58   30   32 1    
    59   30   86 1    
    60   31   87 1    
    61   31   88 1    
    62   31   89 1    
    63   32   33 2    
    64   32   34 am   BACKBONE|DICT|INTERRES
    65   34   35 1    
    66   34   90 1    
    67   35   36 1    
    68   35   37 1    
    69   35   91 1    
    70   36   92 1    
    71   36   93 1    
    72   36   94 1    
    73   37   38 2    
    74   37   39 am   BACKBONE|DICT|INTERRES
    75   39   40 1    
    76   39   95 1    
    77   40   41 1    
    78   40   42 1    
    79   40   96 1    
    80   41   97 1    
    81   41   98 1    
    82   41   99 1    
    83   42   43 2    
    84   42   44 am   BACKBONE|DICT|INTERRES
    85   44   45 1    
    86   44  100 1    
    87   45   46 1    
    88   45   47 1    
    89   45  101 1    
    90   46  102 1    
    91   46  103 1    
    92   46  104 1    
    93   47   48 2    
    94   47   49 am   BACKBONE|DICT|INTERRES
    95   49   50 1    
    96   49  105 1    
    97   50   51 1    
    98   50   52 1    
    99   50  106 1    
   100   51  107 1    
   101   51  108 1    
   102   51  109 1    
   103   52   53 2    
   104   52   54 am   BACKBONE|DICT|INTERRES
   105   54   55 1    
   106   54  110 1    
   107   55   56 1    
   108   55   59 1    
   109   55  111 1    
   110   56   57 am   BACKBONE|DICT|INTERRES
   111   56   58 2    
   112   57  112 1    
   113   57  113 1    
   114   59   60 1    
   115   59  114 1    
   116   59  115 1    
   117   60   61 1    
   118   61  116 1    
   119   61  117 1    
@<TRIPOS>SUBSTRUCTURE
     1 UNK         1 GROUP             0       ****    0 ROOT    
