@<TRIPOS>MOLECULE
3R8
117   119    1
SMALL
USER_CHARGES


@<TRIPOS>ATOM
      1 CA         19.3321  -26.8861  -38.9587 C.3       0 UNK        -0.2013 
      2 C          18.3571  -26.8560  -40.1252 C.2       0 UNK         0.4866 
      3 O          17.2519  -26.3307  -39.9872 O.2       0 UNK        -0.5176 
      4 N          18.7615  -27.4139  -41.2718 N.am      1 UNK        -0.4884 
      5 CA         18.0289  -27.3550  -42.5414 C.3       1 UNK         0.0853 
      6 C6         18.3055  -28.6477  -43.3582 C.3       10 UNK        -0.0849 
      7 S7         17.1524  -28.9273  -44.7486 S.3       10 UNK        -0.2776 
      8 C8         17.1784  -30.7453  -44.8991 C.3       10 UNK         0.0316 
      9 C9         18.5629  -31.3610  -45.1078 C.ar      10 UNK        -0.0863 
     10 C10        18.7932  -32.6518  -44.6270 C.ar      10 UNK        -0.1009 
     11 C11        20.0351  -33.2676  -44.7906 C.ar      10 UNK        -0.0712 
     12 C12        21.0571  -32.5777  -45.4487 C.ar      10 UNK        -0.0894 
     13 C13        20.8517  -31.2866  -45.9475 C.ar      10 UNK        -0.0745 
     14 C14        19.5916  -30.6931  -45.7871 C.ar      10 UNK        -0.0972 
     15 C15        22.0058  -30.6046  -46.6899 C.3       10 UNK         0.0209 
     16 S16        21.8761  -28.7943  -46.8982 S.3       10 UNK        -0.2568 
     17 C17        22.3776  -28.1553  -45.2616 C.3       10 UNK        -0.0983 
     18 CA         22.1573  -26.6222  -45.1747 C.3       3 UNK         0.0876 
     19 N          20.7406  -26.2972  -45.3536 N.am      3 UNK        -0.4424 
     20 C          20.2132  -25.1033  -45.6555 C.2       2 UNK         0.4918 
     21 O          20.8752  -24.1112  -45.9577 O.2       2 UNK        -0.4875 
     22 CA         18.6770  -24.9985  -45.5355 C.3       2 UNK         0.0481 
     23 CB         18.0173  -25.1748  -46.9116 C.3       2 UNK        -0.1831 
     24 N          18.1161  -25.9834  -44.5976 N.am      2 UNK        -0.4498 
     25 C          18.4137  -26.0542  -43.2921 C.2       1 UNK         0.5027 
     26 O          19.0461  -25.1654  -42.7167 O.2       1 UNK        -0.4969 
     27 C          22.7558  -26.0182  -43.8771 C.2       3 UNK         0.5005 
     28 O          23.9784  -26.0286  -43.7241 O.2       3 UNK        -0.5279 
     29 N          21.9115  -25.4711  -42.9853 N.am      4 UNK        -0.4463 
     30 CA         22.2435  -24.7063  -41.7807 C.3       4 UNK         0.0283 
     31 CB         22.7890  -23.3141  -42.1733 C.3       4 UNK        -0.1875 
     32 C          23.1459  -25.4915  -40.8145 C.2       4 UNK         0.4949 
     33 O          22.7074  -26.5015  -40.2665 O.2       4 UNK        -0.5039 
     34 N          24.3836  -25.0221  -40.6182 N.am      5 UNK        -0.4663 
     35 CA         25.3826  -25.6515  -39.7549 C.3       5 UNK         0.0242 
     36 CB         26.5194  -24.6489  -39.4958 C.3       5 UNK        -0.1982 
     37 C          25.9450  -26.9700  -40.3154 C.2       5 UNK         0.5017 
     38 O          26.5086  -27.7440  -39.5404 O.2       5 UNK        -0.5012 
     39 N          25.8116  -27.2038  -41.6308 N.am      6 UNK        -0.4439 
     40 CA         26.3331  -28.4006  -42.2914 C.3       6 UNK         0.0297 
     41 CB         26.5242  -28.1403  -43.7940 C.3       6 UNK        -0.2006 
     42 C          25.4646  -29.6467  -42.0580 C.2       6 UNK         0.4892 
     43 O          26.0243  -30.7432  -42.0093 O.2       6 UNK        -0.5089 
     44 N          24.1401  -29.4813  -41.9138 N.am      7 UNK        -0.4243 
     45 CA         23.2037  -30.5842  -41.7002 C.3       7 UNK         0.0196 
     46 CB         23.0551  -31.4251  -42.9810 C.3       7 UNK        -0.2007 
     47 C          21.8274  -30.0811  -41.2512 C.2       7 UNK         0.5020 
     48 O          21.3920  -28.9976  -41.6497 O.2       7 UNK        -0.5147 
     49 N          21.1517  -30.9326  -40.4737 N.am      8 UNK        -0.4734 
     50 CA         19.7602  -30.7842  -40.0498 C.3       8 UNK         0.0238 
     51 CB         19.6981  -30.4805  -38.5424 C.3       8 UNK        -0.1912 
     52 C          18.9821  -32.0593  -40.3944 C.2       8 UNK         0.5038 
     53 O          17.9370  -31.9734  -41.0386 O.2       8 UNK        -0.5046 
     54 N          19.5282  -33.2131  -39.9790 N.am      9 UNK        -0.4200 
     55 CA         19.0175  -34.5700  -40.2478 C.3       9 UNK         0.0839 
     56 C          17.6562  -34.9058  -39.5640 C.2       9 UNK         0.5513 
     57 N          17.2260  -34.1643  -38.5501 N.am      9 UNK        -0.7519 
     58 O          16.9927  -35.8720  -39.9322 O.2       9 UNK        -0.4960 
     59 C59        19.0373  -34.9392  -41.7590 C.3       10 UNK        -0.0876 
     60 S60        20.6862  -34.7445  -42.5224 S.3       10 UNK        -0.2414 
     61 C61        20.2645  -34.6889  -44.2927 C.3       10 UNK         0.0169 
     62 H62        18.9051  -27.4398  -38.1232 H         1 UNK         0.0903 
     63 H63        20.2781  -27.3524  -39.2348 H         1 UNK         0.0903 
     64 H64        19.5452  -25.8715  -38.6235 H         1 UNK         0.0903 
     65 H65        19.7002  -27.7999  -41.3305 H         1 UNK         0.3096 
     66 H66        16.9577  -27.3013  -42.3338 H         1 UNK         0.1121 
     67 H67        18.2179  -29.5124  -42.6982 H         1 UNK         0.0849 
     68 H68        19.3333  -28.6681  -43.7246 H         1 UNK         0.0849 
     69 H69        16.7172  -31.1620  -44.0016 H         1 UNK         0.0865 
     70 H70        16.5408  -31.0347  -45.7353 H         1 UNK         0.0865 
     71 H71        17.9929  -33.1824  -44.1325 H         1 UNK         0.1346 
     72 H72        22.0191  -33.0540  -45.5810 H         1 UNK         0.1412 
     73 H73        19.4045  -29.7105  -46.1936 H         1 UNK         0.1426 
     74 H74        22.0675  -31.0487  -47.6841 H         1 UNK         0.0716 
     75 H75        22.9537  -30.8293  -46.1989 H         1 UNK         0.0716 
     76 H76        23.4266  -28.4105  -45.1078 H         1 UNK         0.0695 
     77 H77        21.8131  -28.6721  -44.4832 H         1 UNK         0.0695 
     78 H78        22.7054  -26.1562  -45.9965 H         1 UNK         0.0983 
     79 H79        20.1010  -27.0563  -45.1805 H         1 UNK         0.3095 
     80 H80        18.4384  -24.0009  -45.1615 H         1 UNK         0.0454 
     81 H81        18.2096  -26.1639  -47.3295 H         1 UNK         0.0851 
     82 H82        18.3981  -24.4408  -47.6232 H         1 UNK         0.0851 
     83 H83        16.9373  -25.0380  -46.8548 H         1 UNK         0.0851 
     84 H84        17.5915  -26.7519  -45.0002 H         1 UNK         0.2976 
     85 H85        20.9152  -25.5255  -43.1675 H         1 UNK         0.3116 
     86 H86        21.3037  -24.5501  -41.2490 H         1 UNK         0.0646 
     87 H87        22.0599  -22.7692  -42.7734 H         1 UNK         0.0847 
     88 H88        23.7074  -23.3775  -42.7581 H         1 UNK         0.0847 
     89 H89        22.9915  -22.7037  -41.2921 H         1 UNK         0.0847 
     90 H90        24.6699  -24.1949  -41.1218 H         1 UNK         0.3040 
     91 H91        24.9075  -25.8858  -38.7994 H         1 UNK         0.1015 
     92 H92        27.2691  -25.0728  -38.8259 H         1 UNK         0.0786 
     93 H93        26.1472  -23.7383  -39.0259 H         1 UNK         0.0786 
     94 H94        27.0291  -24.3686  -40.4186 H         1 UNK         0.0786 
     95 H95        25.2942  -26.5467  -42.2077 H         1 UNK         0.3172 
     96 H96        27.3212  -28.6112  -41.8756 H         1 UNK         0.0595 
     97 H97        25.5767  -27.9774  -44.3044 H         1 UNK         0.0839 
     98 H98        27.0055  -28.9925  -44.2757 H         1 UNK         0.0839 
     99 H99        27.1553  -27.2693  -43.9710 H         1 UNK         0.0839 
    100 H100       23.7326  -28.5540  -41.9115 H         1 UNK         0.2998 
    101 H101       23.6075  -31.2162  -40.9059 H         1 UNK         0.0822 
    102 H102       23.9864  -31.9149  -43.2630 H         1 UNK         0.0787 
    103 H103       22.3099  -32.2102  -42.8517 H         1 UNK         0.0787 
    104 H104       22.7352  -30.8058  -43.8166 H         1 UNK         0.0787 
    105 H105       21.5891  -31.8177  -40.2624 H         1 UNK         0.3055 
    106 H106       19.2883  -29.9638  -40.5898 H         1 UNK         0.1106 
    107 H107       20.2772  -29.5920  -38.2942 H         1 UNK         0.0828 
    108 H108       20.0895  -31.3005  -37.9396 H         1 UNK         0.0828 
    109 H109       18.6706  -30.3003  -38.2238 H         1 UNK         0.0828 
    110 H110       20.3596  -33.1808  -39.4097 H         1 UNK         0.2931 
    111 H111       19.7288  -35.2353  -39.7570 H         1 UNK         0.0412 
    112 H112       17.7631  -33.3757  -38.2279 H         1 UNK         0.3472 
    113 H113       16.3506  -34.3950  -38.1066 H         1 UNK         0.3472 
    114 H114       18.7358  -35.9784  -41.9022 H         1 UNK         0.0970 
    115 H115       18.3050  -34.3387  -42.2952 H         1 UNK         0.0970 
    116 H116       19.3834  -35.3030  -44.4855 H         1 UNK         0.0612 
    117 H117       21.0790  -35.1500  -44.8533 H         1 UNK         0.0612 
@<TRIPOS>BOND
     1    1    2 1    
     2    1   62 1    
     3    1   63 1    
     4    1   64 1    
     5    2    3 2    
     6    2    4 am   BACKBONE|DICT|INTERRES
     7    4    5 1    
     8    4   65 1    
     9    5    6 1    
    10    5   25 1    
    11    5   66 1    
    12    6    7 1    
    13    6   67 1    
    14    6   68 1    
    15    7    8 1    
    16    8    9 1    
    17    8   69 1    
    18    8   70 1    
    19    9   10 ar   
    20    9   14 ar   
    21   10   11 ar   
    22   10   71 1    
    23   11   12 ar   
    24   11   61 1    
    25   12   13 ar   
    26   12   72 1    
    27   13   14 ar   
    28   13   15 1    
    29   14   73 1    
    30   15   16 1    
    31   15   74 1    
    32   15   75 1    
    33   16   17 1    
    34   17   18 1    
    35   17   76 1    
    36   17   77 1    
    37   18   19 1    
    38   18   27 1    
    39   18   78 1    
    40   19   20 am   BACKBONE|DICT|INTERRES
    41   19   79 1    
    42   20   21 2    
    43   20   22 1    
    44   22   23 1    
    45   22   24 1    
    46   22   80 1    
    47   23   81 1    
    48   23   82 1    
    49   23   83 1    
    50   24   25 am   BACKBONE|DICT|INTERRES
    51   24   84 1    
    52   25   26 2    
    53   27   28 2    
    54   27   29 am   BACKBONE|DICT|INTERRES
    55   29   30 1    
    56   29   85 1    
    57   30   31 1    
    58   30   32 1    
    59   30   86 1    
    60   31   87 1    
    61   31   88 1    
    62   31   89 1    
    63   32   33 2    
    64   32   34 am   BACKBONE|DICT|INTERRES
    65   34   35 1    
    66   34   90 1    
    67   35   36 1    
    68   35   37 1    
    69   35   91 1    
    70   36   92 1    
    71   36   93 1    
    72   36   94 1    
    73   37   38 2    
    74   37   39 am   BACKBONE|DICT|INTERRES
    75   39   40 1    
    76   39   95 1    
    77   40   41 1    
    78   40   42 1    
    79   40   96 1    
    80   41   97 1    
    81   41   98 1    
    82   41   99 1    
    83   42   43 2    
    84   42   44 am   BACKBONE|DICT|INTERRES
    85   44   45 1    
    86   44  100 1    
    87   45   46 1    
    88   45   47 1    
    89   45  101 1    
    90   46  102 1    
    91   46  103 1    
    92   46  104 1    
    93   47   48 2    
    94   47   49 am   BACKBONE|DICT|INTERRES
    95   49   50 1    
    96   49  105 1    
    97   50   51 1    
    98   50   52 1    
    99   50  106 1    
   100   51  107 1    
   101   51  108 1    
   102   51  109 1    
   103   52   53 2    
   104   52   54 am   BACKBONE|DICT|INTERRES
   105   54   55 1    
   106   54  110 1    
   107   55   56 1    
   108   55   59 1    
   109   55  111 1    
   110   56   57 am   BACKBONE|DICT|INTERRES
   111   56   58 2    
   112   57  112 1    
   113   57  113 1    
   114   59   60 1    
   115   59  114 1    
   116   59  115 1    
   117   60   61 1    
   118   61  116 1    
   119   61  117 1    
@<TRIPOS>SUBSTRUCTURE
     1 UNK         1 GROUP             0       ****    0 ROOT    
