@<TRIPOS>MOLECULE
3R8
117   119    1
SMALL
USER_CHARGES


@<TRIPOS>ATOM
      1 CA         15.9619  -23.8886  -40.5518 C.3       0 UNK        -0.2013 
      2 C          17.0864  -24.7946  -41.0308 C.2       0 UNK         0.4866 
      3 O          18.1662  -24.7855  -40.4399 O.2       0 UNK        -0.5176 
      4 N          16.8343  -25.5682  -42.0971 N.am      1 UNK        -0.4884 
      5 CA         17.7582  -26.5244  -42.7267 C.3       1 UNK         0.0853 
      6 C6         18.1154  -27.7416  -41.8274 C.3       10 UNK        -0.0849 
      7 S7         16.6879  -28.7283  -41.2644 S.3       10 UNK        -0.2776 
      8 C8         16.0473  -29.4821  -42.8002 C.3       10 UNK         0.0316 
      9 C9         17.1243  -30.0884  -43.6946 C.ar      10 UNK        -0.0863 
     10 C10        17.8652  -31.1966  -43.2739 C.ar      10 UNK        -0.1009 
     11 C11        18.8189  -31.7755  -44.1189 C.ar      10 UNK        -0.0712 
     12 C12        19.0389  -31.2254  -45.3860 C.ar      10 UNK        -0.0894 
     13 C13        18.3167  -30.1086  -45.8189 C.ar      10 UNK        -0.0745 
     14 C14        17.3499  -29.5575  -44.9679 C.ar      10 UNK        -0.0972 
     15 C15        18.5711  -29.5572  -47.2232 C.3       10 UNK         0.0209 
     16 S16        18.2164  -27.7729  -47.4033 S.3       10 UNK        -0.2568 
     17 C17        19.7254  -27.1416  -48.2207 C.3       10 UNK        -0.0983 
     18 CA         20.7858  -26.5720  -47.2395 C.3       3 UNK         0.0876 
     19 N          20.1708  -25.6680  -46.2666 N.am      3 UNK        -0.4424 
     20 C          20.7729  -24.6564  -45.6326 C.2       2 UNK         0.4918 
     21 O          21.9368  -24.3129  -45.8383 O.2       2 UNK        -0.4875 
     22 CA         19.9304  -23.9038  -44.5800 C.3       2 UNK         0.0481 
     23 CB         19.3430  -22.6191  -45.1853 C.3       2 UNK        -0.1831 
     24 N          18.8446  -24.6971  -43.9810 N.am      2 UNK        -0.4498 
     25 C          19.0213  -25.8373  -43.2951 C.2       1 UNK         0.5027 
     26 O          20.1285  -26.3480  -43.1285 O.2       1 UNK        -0.4969 
     27 C          21.6207  -27.7032  -46.5953 C.2       3 UNK         0.5005 
     28 O          22.3655  -28.3658  -47.3210 O.2       3 UNK        -0.5279 
     29 N          21.4842  -27.9400  -45.2810 N.am      4 UNK        -0.4463 
     30 CA         22.2064  -28.9938  -44.5635 C.3       4 UNK         0.0283 
     31 CB         21.5355  -29.2481  -43.2048 C.3       4 UNK        -0.1875 
     32 C          23.6791  -28.6304  -44.3384 C.2       4 UNK         0.4949 
     33 O          24.0171  -27.4504  -44.2185 O.2       4 UNK        -0.5039 
     34 N          24.5205  -29.6579  -44.1742 N.am      5 UNK        -0.4663 
     35 CA         25.9257  -29.5433  -43.7660 C.3       5 UNK         0.0242 
     36 CB         26.6835  -30.7953  -44.2475 C.3       5 UNK        -0.1982 
     37 C          26.0573  -29.3135  -42.2436 C.2       5 UNK         0.5017 
     38 O          26.7876  -30.0458  -41.5731 O.2       5 UNK        -0.5012 
     39 N          25.3241  -28.3074  -41.7422 N.am      6 UNK        -0.4439 
     40 CA         25.0877  -27.9334  -40.3421 C.3       6 UNK         0.0297 
     41 CB         26.4124  -27.6140  -39.6175 C.3       6 UNK        -0.2006 
     42 C          24.2545  -28.9708  -39.5620 C.2       6 UNK         0.4892 
     43 O          24.0727  -30.1049  -40.0107 O.2       6 UNK        -0.5089 
     44 N          23.7449  -28.5362  -38.3982 N.am      7 UNK        -0.4243 
     45 CA         23.0666  -29.3291  -37.3586 C.3       7 UNK         0.0196 
     46 CB         24.1121  -30.1672  -36.5919 C.3       7 UNK        -0.2007 
     47 C          21.8845  -30.1918  -37.8516 C.2       7 UNK         0.5020 
     48 O          21.6529  -31.2718  -37.3053 O.2       7 UNK        -0.5147 
     49 N          21.1841  -29.7277  -38.8993 N.am      8 UNK        -0.4734 
     50 CA         20.1155  -30.4362  -39.6240 C.3       8 UNK         0.0238 
     51 CB         18.8329  -30.5003  -38.7686 C.3       8 UNK        -0.1912 
     52 C          20.5522  -31.8215  -40.1525 C.2       8 UNK         0.5038 
     53 O          19.7545  -32.7605  -40.1479 O.2       8 UNK        -0.5046 
     54 N          21.8219  -31.9152  -40.5721 N.am      9 UNK        -0.4200 
     55 CA         22.5233  -33.1274  -41.0249 C.3       9 UNK         0.0839 
     56 C          22.9110  -34.1085  -39.8777 C.2       9 UNK         0.5513 
     57 N          22.7468  -33.7614  -38.6060 N.am      9 UNK        -0.7519 
     58 O          23.4002  -35.2035  -40.1441 O.2       9 UNK        -0.4960 
     59 C59        21.8486  -33.8620  -42.2230 C.3       10 UNK        -0.0876 
     60 S60        21.3786  -32.7531  -43.5983 S.3       10 UNK        -0.2414 
     61 C61        19.5763  -33.0204  -43.6771 C.3       10 UNK         0.0169 
     62 H62        15.0632  -23.9947  -41.1592 H         1 UNK         0.0903 
     63 H63        15.7031  -24.1269  -39.5205 H         1 UNK         0.0903 
     64 H64        16.2771  -22.8462  -40.5918 H         1 UNK         0.0903 
     65 H65        15.9175  -25.5200  -42.5207 H         1 UNK         0.3096 
     66 H66        17.2368  -26.9114  -43.6023 H         1 UNK         0.1121 
     67 H67        18.6608  -27.4099  -40.9423 H         1 UNK         0.0849 
     68 H68        18.7913  -28.4178  -42.3488 H         1 UNK         0.0849 
     69 H69        15.3319  -30.2610  -42.5325 H         1 UNK         0.0865 
     70 H70        15.4746  -28.7284  -43.3426 H         1 UNK         0.0865 
     71 H71        17.6854  -31.6163  -42.2931 H         1 UNK         0.1346 
     72 H72        19.7736  -31.6773  -46.0385 H         1 UNK         0.1412 
     73 H73        16.7558  -28.7184  -45.3000 H         1 UNK         0.1426 
     74 H74        17.9513  -30.1073  -47.9321 H         1 UNK         0.0716 
     75 H75        19.6064  -29.7527  -47.5055 H         1 UNK         0.0716 
     76 H76        19.4063  -26.3413  -48.8902 H         1 UNK         0.0695 
     77 H77        20.1479  -27.9056  -48.8765 H         1 UNK         0.0695 
     78 H78        21.4938  -25.9885  -47.8325 H         1 UNK         0.0983 
     79 H79        19.2051  -25.8667  -46.0493 H         1 UNK         0.3095 
     80 H80        20.6069  -23.6186  -43.7718 H         1 UNK         0.0454 
     81 H81        20.1284  -21.9942  -45.6128 H         1 UNK         0.0851 
     82 H82        18.8326  -22.0205  -44.4306 H         1 UNK         0.0851 
     83 H83        18.6308  -22.8365  -45.9822 H         1 UNK         0.0851 
     84 H84        17.9084  -24.3272  -44.0657 H         1 UNK         0.2976 
     85 H85        20.9212  -27.3145  -44.7146 H         1 UNK         0.3116 
     86 H86        22.1540  -29.9126  -45.1521 H         1 UNK         0.0646 
     87 H87        21.5593  -28.3674  -42.5640 H         1 UNK         0.0847 
     88 H88        20.5000  -29.5588  -43.3306 H         1 UNK         0.0847 
     89 H89        22.0464  -30.0426  -42.6621 H         1 UNK         0.0847 
     90 H90        24.1511  -30.5964  -44.2369 H         1 UNK         0.3040 
     91 H91        26.3696  -28.6757  -44.2598 H         1 UNK         0.1015 
     92 H92        27.7457  -30.7258  -44.0088 H         1 UNK         0.0786 
     93 H93        26.6047  -30.9158  -45.3281 H         1 UNK         0.0786 
     94 H94        26.3017  -31.7034  -43.7789 H         1 UNK         0.0786 
     95 H95        24.7722  -27.7935  -42.4234 H         1 UNK         0.3172 
     96 H96        24.4973  -27.0167  -40.3830 H         1 UNK         0.0595 
     97 H97        27.0132  -28.5090  -39.4529 H         1 UNK         0.0839 
     98 H98        26.2307  -27.1677  -38.6393 H         1 UNK         0.0839 
     99 H99        27.0154  -26.9057  -40.1856 H         1 UNK         0.0839 
    100 H100       23.9094  -27.5694  -38.1522 H         1 UNK         0.2998 
    101 H101       22.6379  -28.6125  -36.6563 H         1 UNK         0.0822 
    102 H102       23.6667  -30.6641  -35.7290 H         1 UNK         0.0787 
    103 H103       24.9248  -29.5444  -36.2182 H         1 UNK         0.0787 
    104 H104       24.5473  -30.9410  -37.2260 H         1 UNK         0.0787 
    105 H105       21.4623  -28.8352  -39.2832 H         1 UNK         0.3055 
    106 H106       19.8892  -29.8420  -40.5104 H         1 UNK         0.1106 
    107 H107       18.5227  -29.5070  -38.4447 H         1 UNK         0.0828 
    108 H108       18.0044  -30.9243  -39.3375 H         1 UNK         0.0828 
    109 H109       18.9683  -31.1186  -37.8807 H         1 UNK         0.0828 
    110 H110       22.4296  -31.1109  -40.4480 H         1 UNK         0.2931 
    111 H111       23.4794  -32.7523  -41.3920 H         1 UNK         0.0412 
    112 H112       22.3413  -32.8674  -38.3513 H         1 UNK         0.3472 
    113 H113       23.0154  -34.4100  -37.8834 H         1 UNK         0.3472 
    114 H114       22.5329  -34.6077  -42.6314 H         1 UNK         0.0970 
    115 H115       20.9812  -34.4262  -41.8781 H         1 UNK         0.0970 
    116 H116       19.2035  -33.3490  -42.7071 H         1 UNK         0.0612 
    117 H117       19.3706  -33.8343  -44.3734 H         1 UNK         0.0612 
@<TRIPOS>BOND
     1    1    2 1    
     2    1   62 1    
     3    1   63 1    
     4    1   64 1    
     5    2    3 2    
     6    2    4 am   BACKBONE|DICT|INTERRES
     7    4    5 1    
     8    4   65 1    
     9    5    6 1    
    10    5   25 1    
    11    5   66 1    
    12    6    7 1    
    13    6   67 1    
    14    6   68 1    
    15    7    8 1    
    16    8    9 1    
    17    8   69 1    
    18    8   70 1    
    19    9   10 ar   
    20    9   14 ar   
    21   10   11 ar   
    22   10   71 1    
    23   11   12 ar   
    24   11   61 1    
    25   12   13 ar   
    26   12   72 1    
    27   13   14 ar   
    28   13   15 1    
    29   14   73 1    
    30   15   16 1    
    31   15   74 1    
    32   15   75 1    
    33   16   17 1    
    34   17   18 1    
    35   17   76 1    
    36   17   77 1    
    37   18   19 1    
    38   18   27 1    
    39   18   78 1    
    40   19   20 am   BACKBONE|DICT|INTERRES
    41   19   79 1    
    42   20   21 2    
    43   20   22 1    
    44   22   23 1    
    45   22   24 1    
    46   22   80 1    
    47   23   81 1    
    48   23   82 1    
    49   23   83 1    
    50   24   25 am   BACKBONE|DICT|INTERRES
    51   24   84 1    
    52   25   26 2    
    53   27   28 2    
    54   27   29 am   BACKBONE|DICT|INTERRES
    55   29   30 1    
    56   29   85 1    
    57   30   31 1    
    58   30   32 1    
    59   30   86 1    
    60   31   87 1    
    61   31   88 1    
    62   31   89 1    
    63   32   33 2    
    64   32   34 am   BACKBONE|DICT|INTERRES
    65   34   35 1    
    66   34   90 1    
    67   35   36 1    
    68   35   37 1    
    69   35   91 1    
    70   36   92 1    
    71   36   93 1    
    72   36   94 1    
    73   37   38 2    
    74   37   39 am   BACKBONE|DICT|INTERRES
    75   39   40 1    
    76   39   95 1    
    77   40   41 1    
    78   40   42 1    
    79   40   96 1    
    80   41   97 1    
    81   41   98 1    
    82   41   99 1    
    83   42   43 2    
    84   42   44 am   BACKBONE|DICT|INTERRES
    85   44   45 1    
    86   44  100 1    
    87   45   46 1    
    88   45   47 1    
    89   45  101 1    
    90   46  102 1    
    91   46  103 1    
    92   46  104 1    
    93   47   48 2    
    94   47   49 am   BACKBONE|DICT|INTERRES
    95   49   50 1    
    96   49  105 1    
    97   50   51 1    
    98   50   52 1    
    99   50  106 1    
   100   51  107 1    
   101   51  108 1    
   102   51  109 1    
   103   52   53 2    
   104   52   54 am   BACKBONE|DICT|INTERRES
   105   54   55 1    
   106   54  110 1    
   107   55   56 1    
   108   55   59 1    
   109   55  111 1    
   110   56   57 am   BACKBONE|DICT|INTERRES
   111   56   58 2    
   112   57  112 1    
   113   57  113 1    
   114   59   60 1    
   115   59  114 1    
   116   59  115 1    
   117   60   61 1    
   118   61  116 1    
   119   61  117 1    
@<TRIPOS>SUBSTRUCTURE
     1 UNK         1 GROUP             0       ****    0 ROOT    
