@<TRIPOS>MOLECULE
3R8
117   119    1
SMALL
USER_CHARGES


@<TRIPOS>ATOM
      1 CA         23.3325  -30.0609  -47.3175 C.3       0 UNK        -0.2013 
      2 C          22.2052  -29.4870  -46.4733 C.2       0 UNK         0.4866 
      3 O          22.3362  -29.3907  -45.2507 O.2       0 UNK        -0.5176 
      4 N          21.0998  -29.0887  -47.1143 N.am      1 UNK        -0.4884 
      5 CA         19.8885  -28.5325  -46.4911 C.3       1 UNK         0.0853 
      6 C6         18.6426  -28.7328  -47.3921 C.3       10 UNK        -0.0849 
      7 S7         18.2397  -30.5037  -47.5708 S.3       10 UNK        -0.2776 
      8 C8         16.7827  -30.6656  -46.4846 C.3       10 UNK         0.0316 
      9 C9         17.0523  -30.1976  -45.0587 C.ar      10 UNK        -0.0863 
     10 C10        17.9389  -30.9011  -44.2390 C.ar      10 UNK        -0.1009 
     11 C11        18.1727  -30.4882  -42.9231 C.ar      10 UNK        -0.0712 
     12 C12        17.5167  -29.3548  -42.4297 C.ar      10 UNK        -0.0894 
     13 C13        16.6268  -28.6417  -43.2399 C.ar      10 UNK        -0.0745 
     14 C14        16.3998  -29.0692  -44.5519 C.ar      10 UNK        -0.0972 
     15 C15        15.8746  -27.4331  -42.6978 C.3       10 UNK         0.0209 
     16 S16        16.5193  -25.8736  -43.3846 S.3       10 UNK        -0.2568 
     17 C17        17.3638  -25.1210  -41.9509 C.3       10 UNK        -0.0983 
     18 CA         18.8324  -25.5818  -41.7952 C.3       3 UNK         0.0876 
     19 N          19.6078  -25.3924  -43.0250 N.am      3 UNK        -0.4424 
     20 C          20.8706  -25.7942  -43.2029 C.2       2 UNK         0.4918 
     21 O          21.5327  -26.3835  -42.3467 O.2       2 UNK        -0.4875 
     22 CA         21.4586  -25.5819  -44.6019 C.3       2 UNK         0.0481 
     23 CB         22.9772  -25.3356  -44.5646 C.3       2 UNK        -0.1831 
     24 N          21.1921  -26.7970  -45.3569 N.am      2 UNK        -0.4498 
     25 C          20.0719  -27.0662  -46.0349 C.2       1 UNK         0.5027 
     26 O          19.2112  -26.2189  -46.2803 O.2       1 UNK        -0.4969 
     27 C          19.5050  -24.8824  -40.5946 C.2       3 UNK         0.5005 
     28 O          20.0994  -23.8145  -40.7637 O.2       3 UNK        -0.5279 
     29 N          19.4371  -25.5198  -39.4175 N.am      4 UNK        -0.4463 
     30 CA         20.0971  -25.1692  -38.1487 C.3       4 UNK         0.0283 
     31 CB         19.7220  -23.7544  -37.6642 C.3       4 UNK        -0.1875 
     32 C          21.6253  -25.3766  -38.1484 C.2       4 UNK         0.4949 
     33 O          22.1610  -25.8065  -37.1268 O.2       4 UNK        -0.5039 
     34 N          22.2996  -25.1060  -39.2752 N.am      5 UNK        -0.4663 
     35 CA         23.7173  -25.4144  -39.4928 C.3       5 UNK         0.0242 
     36 CB         24.2309  -24.6667  -40.7335 C.3       5 UNK        -0.1982 
     37 C          23.9598  -26.9292  -39.6161 C.2       5 UNK         0.5017 
     38 O          24.9001  -27.4377  -39.0057 O.2       5 UNK        -0.5012 
     39 N          23.0738  -27.6067  -40.3629 N.am      6 UNK        -0.4439 
     40 CA         22.9530  -29.0555  -40.5397 C.3       6 UNK         0.0297 
     41 CB         22.5024  -29.7226  -39.2230 C.3       6 UNK        -0.2006 
     42 C          24.2182  -29.6991  -41.1339 C.2       6 UNK         0.4892 
     43 O          24.9445  -30.4060  -40.4309 O.2       6 UNK        -0.5089 
     44 N          24.4520  -29.4476  -42.4304 N.am      7 UNK        -0.4243 
     45 CA         25.4306  -30.1949  -43.2282 C.3       7 UNK         0.0196 
     46 CB         25.8135  -29.3962  -44.4840 C.3       7 UNK        -0.2007 
     47 C          24.8962  -31.5982  -43.5743 C.2       7 UNK         0.5020 
     48 O          25.6296  -32.5788  -43.4439 O.2       7 UNK        -0.5147 
     49 N          23.6127  -31.6707  -43.9529 N.am      8 UNK        -0.4734 
     50 CA         22.8073  -32.8951  -43.9759 C.3       8 UNK         0.0238 
     51 CB         21.6844  -32.7294  -45.0190 C.3       8 UNK        -0.1912 
     52 C          22.2342  -33.1930  -42.5743 C.2       8 UNK         0.5038 
     53 O          22.5158  -32.4622  -41.6232 O.2       8 UNK        -0.5046 
     54 N          21.4129  -34.2461  -42.4720 N.am      9 UNK        -0.4200 
     55 CA         20.7346  -34.6910  -41.2376 C.3       9 UNK         0.0839 
     56 C          21.6771  -35.3557  -40.1872 C.2       9 UNK         0.5513 
     57 N          22.9022  -35.7296  -40.5368 N.am      9 UNK        -0.7519 
     58 O          21.2827  -35.5712  -39.0437 O.2       9 UNK        -0.4960 
     59 C59        19.8096  -33.6083  -40.5984 C.3       10 UNK        -0.0876 
     60 S60        18.5367  -32.9649  -41.7377 S.3       10 UNK        -0.2414 
     61 C61        19.1342  -31.2695  -42.0396 C.3       10 UNK         0.0169 
     62 H62        22.9772  -30.3909  -48.2934 H         1 UNK         0.0903 
     63 H63        24.1060  -29.3091  -47.4706 H         1 UNK         0.0903 
     64 H64        23.7848  -30.9167  -46.8178 H         1 UNK         0.0903 
     65 H65        21.0581  -29.1798  -48.1196 H         1 UNK         0.3096 
     66 H66        19.7111  -29.0865  -45.5666 H         1 UNK         0.1121 
     67 H67        17.7700  -28.2162  -46.9883 H         1 UNK         0.0849 
     68 H68        18.8105  -28.3048  -48.3817 H         1 UNK         0.0849 
     69 H69        15.9513  -30.1120  -46.9239 H         1 UNK         0.0865 
     70 H70        16.4723  -31.7112  -46.4641 H         1 UNK         0.0865 
     71 H71        18.4429  -31.7774  -44.6238 H         1 UNK         0.1346 
     72 H72        17.6882  -29.0360  -41.4110 H         1 UNK         0.1412 
     73 H73        15.7078  -28.5199  -45.1761 H         1 UNK         0.1426 
     74 H74        15.9042  -27.4156  -41.6077 H         1 UNK         0.0716 
     75 H75        14.8208  -27.5204  -42.9664 H         1 UNK         0.0716 
     76 H76        16.7913  -25.3326  -41.0460 H         1 UNK         0.0695 
     77 H77        17.3229  -24.0378  -42.0823 H         1 UNK         0.0695 
     78 H78        18.8302  -26.6559  -41.5984 H         1 UNK         0.0983 
     79 H79        19.1164  -24.9639  -43.7963 H         1 UNK         0.3095 
     80 H80        20.9790  -24.7224  -45.0752 H         1 UNK         0.0454 
     81 H81        23.5173  -26.1624  -44.1011 H         1 UNK         0.0851 
     82 H82        23.2091  -24.4329  -43.9987 H         1 UNK         0.0851 
     83 H83        23.3785  -25.1992  -45.5687 H         1 UNK         0.0851 
     84 H84        21.8076  -27.5864  -45.1768 H         1 UNK         0.2976 
     85 H85        18.9366  -26.3981  -39.3920 H         1 UNK         0.3116 
     86 H86        19.6953  -25.8726  -37.4173 H         1 UNK         0.0646 
     87 H87        20.1392  -22.9755  -38.3026 H         1 UNK         0.0847 
     88 H88        20.1025  -23.5787  -36.6572 H         1 UNK         0.0847 
     89 H89        18.6411  -23.6188  -37.6299 H         1 UNK         0.0847 
     90 H90        21.7773  -24.7171  -40.0536 H         1 UNK         0.3040 
     91 H91        24.2791  -25.0589  -38.6259 H         1 UNK         0.1015 
     92 H92        24.1202  -23.5882  -40.6201 H         1 UNK         0.0786 
     93 H93        23.6985  -24.9645  -41.6359 H         1 UNK         0.0786 
     94 H94        25.2901  -24.8686  -40.8987 H         1 UNK         0.0786 
     95 H95        22.4094  -27.0573  -40.9067 H         1 UNK         0.3172 
     96 H96        22.1533  -29.2100  -41.2665 H         1 UNK         0.0595 
     97 H97        23.2419  -29.6013  -38.4309 H         1 UNK         0.0839 
     98 H98        22.3511  -30.7936  -39.3648 H         1 UNK         0.0839 
     99 H99        21.5601  -29.3050  -38.8691 H         1 UNK         0.0839 
    100 H100       23.8122  -28.8487  -42.9332 H         1 UNK         0.2998 
    101 H101       26.3378  -30.3279  -42.6343 H         1 UNK         0.0822 
    102 H102       26.3197  -28.4679  -44.2186 H         1 UNK         0.0787 
    103 H103       26.4939  -29.9666  -45.1178 H         1 UNK         0.0787 
    104 H104       24.9448  -29.1372  -45.0855 H         1 UNK         0.0787 
    105 H105       23.1015  -30.8030  -44.0798 H         1 UNK         0.3055 
    106 H106       23.4376  -33.7387  -44.2659 H         1 UNK         0.1106 
    107 H107       21.0672  -33.6245  -45.0985 H         1 UNK         0.0828 
    108 H108       22.0936  -32.5462  -46.0118 H         1 UNK         0.0828 
    109 H109       21.0226  -31.8984  -44.7723 H         1 UNK         0.0828 
    110 H110       21.2305  -34.8073  -43.2909 H         1 UNK         0.2931 
    111 H111       20.0832  -35.5038  -41.5607 H         1 UNK         0.0412 
    112 H112       23.2400  -35.5683  -41.4717 H         1 UNK         0.3472 
    113 H113       23.4982  -36.1690  -39.8526 H         1 UNK         0.3472 
    114 H114       19.2753  -34.0311  -39.7458 H         1 UNK         0.0970 
    115 H115       20.3968  -32.7845  -40.1903 H         1 UNK         0.0970 
    116 H116       19.2763  -30.7648  -41.0827 H         1 UNK         0.0612 
    117 H117       20.1099  -31.2987  -42.5223 H         1 UNK         0.0612 
@<TRIPOS>BOND
     1    1    2 1    
     2    1   62 1    
     3    1   63 1    
     4    1   64 1    
     5    2    3 2    
     6    2    4 am   BACKBONE|DICT|INTERRES
     7    4    5 1    
     8    4   65 1    
     9    5    6 1    
    10    5   25 1    
    11    5   66 1    
    12    6    7 1    
    13    6   67 1    
    14    6   68 1    
    15    7    8 1    
    16    8    9 1    
    17    8   69 1    
    18    8   70 1    
    19    9   10 ar   
    20    9   14 ar   
    21   10   11 ar   
    22   10   71 1    
    23   11   12 ar   
    24   11   61 1    
    25   12   13 ar   
    26   12   72 1    
    27   13   14 ar   
    28   13   15 1    
    29   14   73 1    
    30   15   16 1    
    31   15   74 1    
    32   15   75 1    
    33   16   17 1    
    34   17   18 1    
    35   17   76 1    
    36   17   77 1    
    37   18   19 1    
    38   18   27 1    
    39   18   78 1    
    40   19   20 am   BACKBONE|DICT|INTERRES
    41   19   79 1    
    42   20   21 2    
    43   20   22 1    
    44   22   23 1    
    45   22   24 1    
    46   22   80 1    
    47   23   81 1    
    48   23   82 1    
    49   23   83 1    
    50   24   25 am   BACKBONE|DICT|INTERRES
    51   24   84 1    
    52   25   26 2    
    53   27   28 2    
    54   27   29 am   BACKBONE|DICT|INTERRES
    55   29   30 1    
    56   29   85 1    
    57   30   31 1    
    58   30   32 1    
    59   30   86 1    
    60   31   87 1    
    61   31   88 1    
    62   31   89 1    
    63   32   33 2    
    64   32   34 am   BACKBONE|DICT|INTERRES
    65   34   35 1    
    66   34   90 1    
    67   35   36 1    
    68   35   37 1    
    69   35   91 1    
    70   36   92 1    
    71   36   93 1    
    72   36   94 1    
    73   37   38 2    
    74   37   39 am   BACKBONE|DICT|INTERRES
    75   39   40 1    
    76   39   95 1    
    77   40   41 1    
    78   40   42 1    
    79   40   96 1    
    80   41   97 1    
    81   41   98 1    
    82   41   99 1    
    83   42   43 2    
    84   42   44 am   BACKBONE|DICT|INTERRES
    85   44   45 1    
    86   44  100 1    
    87   45   46 1    
    88   45   47 1    
    89   45  101 1    
    90   46  102 1    
    91   46  103 1    
    92   46  104 1    
    93   47   48 2    
    94   47   49 am   BACKBONE|DICT|INTERRES
    95   49   50 1    
    96   49  105 1    
    97   50   51 1    
    98   50   52 1    
    99   50  106 1    
   100   51  107 1    
   101   51  108 1    
   102   51  109 1    
   103   52   53 2    
   104   52   54 am   BACKBONE|DICT|INTERRES
   105   54   55 1    
   106   54  110 1    
   107   55   56 1    
   108   55   59 1    
   109   55  111 1    
   110   56   57 am   BACKBONE|DICT|INTERRES
   111   56   58 2    
   112   57  112 1    
   113   57  113 1    
   114   59   60 1    
   115   59  114 1    
   116   59  115 1    
   117   60   61 1    
   118   61  116 1    
   119   61  117 1    
@<TRIPOS>SUBSTRUCTURE
     1 UNK         1 GROUP             0       ****    0 ROOT    
