@<TRIPOS>MOLECULE
3R8
117   119    1
SMALL
USER_CHARGES


@<TRIPOS>ATOM
      1 CA         20.7702  -25.5002  -50.5047 C.3       0 UNK        -0.2013 
      2 C          21.0933  -25.7246  -49.0350 C.2       0 UNK         0.4866 
      3 O          22.0140  -25.0991  -48.5075 O.2       0 UNK        -0.5176 
      4 N          20.3501  -26.6187  -48.3724 N.am      1 UNK        -0.4884 
      5 CA         20.4637  -26.9058  -46.9391 C.3       1 UNK         0.0853 
      6 C6         19.8638  -28.2944  -46.5864 C.3       10 UNK        -0.0849 
      7 S7         18.1045  -28.4896  -47.0453 S.3       10 UNK        -0.2776 
      8 C8         17.7361  -30.1458  -46.3848 C.3       10 UNK         0.0316 
      9 C9         17.6840  -30.1682  -44.8626 C.ar      10 UNK        -0.0863 
     10 C10        18.6849  -30.8124  -44.1303 C.ar      10 UNK        -0.1009 
     11 C11        18.6137  -30.8790  -42.7355 C.ar      10 UNK        -0.0712 
     12 C12        17.5387  -30.2838  -42.0685 C.ar      10 UNK        -0.0894 
     13 C13        16.5388  -29.6237  -42.7896 C.ar      10 UNK        -0.0745 
     14 C14        16.6142  -29.5750  -44.1856 C.ar      10 UNK        -0.0972 
     15 C15        15.3602  -28.9819  -42.0726 C.3       10 UNK         0.0209 
     16 S16        15.5203  -27.1697  -42.0049 S.3       10 UNK        -0.2568 
     17 C17        16.5606  -26.9172  -40.5252 C.3       10 UNK        -0.0983 
     18 CA         18.0784  -26.8230  -40.8247 C.3       3 UNK         0.0876 
     19 N          18.3799  -25.9041  -41.9303 N.am      3 UNK        -0.4424 
     20 C          19.5751  -25.7898  -42.5193 C.2       2 UNK         0.4918 
     21 O          20.5990  -26.3525  -42.1238 O.2       2 UNK        -0.4875 
     22 CA         19.6497  -24.9086  -43.7651 C.3       2 UNK         0.0481 
     23 CB         20.5033  -23.6546  -43.5144 C.3       2 UNK        -0.1831 
     24 N          20.2518  -25.7273  -44.8095 N.am      2 UNK        -0.4498 
     25 C          19.8437  -25.7803  -46.0810 C.2       1 UNK         0.5027 
     26 O          18.9961  -25.0213  -46.5614 O.2       1 UNK        -0.4969 
     27 C          18.8559  -26.4953  -39.5326 C.2       3 UNK         0.5005 
     28 O          19.1626  -27.4061  -38.7631 O.2       3 UNK        -0.5279 
     29 N          19.1668  -25.2066  -39.3249 N.am      4 UNK        -0.4463 
     30 CA         19.9700  -24.7122  -38.2043 C.3       4 UNK         0.0283 
     31 CB         19.7893  -23.1905  -38.0808 C.3       4 UNK        -0.1875 
     32 C          21.4625  -25.0661  -38.3298 C.2       4 UNK         0.4949 
     33 O          22.1267  -25.2274  -37.3059 O.2       4 UNK        -0.5039 
     34 N          21.9634  -25.1741  -39.5688 N.am      5 UNK        -0.4663 
     35 CA         23.3342  -25.5924  -39.8661 C.3       5 UNK         0.0242 
     36 CB         23.7816  -24.9998  -41.2132 C.3       5 UNK        -0.1982 
     37 C          23.4434  -27.1226  -39.8740 C.2       5 UNK         0.5017 
     38 O          24.3314  -27.6694  -39.2188 O.2       5 UNK        -0.5012 
     39 N          22.5266  -27.7730  -40.6067 N.am      6 UNK        -0.4439 
     40 CA         22.3246  -29.2155  -40.7900 C.3       6 UNK         0.0297 
     41 CB         21.9531  -29.9018  -39.4612 C.3       6 UNK        -0.2006 
     42 C          23.4726  -29.9661  -41.4900 C.2       6 UNK         0.4892 
     43 O          23.2075  -30.7271  -42.4213 O.2       6 UNK        -0.5089 
     44 N          24.7120  -29.7632  -41.0233 N.am      7 UNK        -0.4243 
     45 CA         25.9287  -30.4950  -41.3887 C.3       7 UNK         0.0196 
     46 CB         26.3497  -30.1740  -42.8419 C.3       7 UNK        -0.2007 
     47 C          25.7640  -31.9971  -41.0808 C.2       7 UNK         0.5020 
     48 O          25.4076  -32.3391  -39.9517 O.2       7 UNK        -0.5147 
     49 N          26.0037  -32.8660  -42.0708 N.am      8 UNK        -0.4734 
     50 CA         25.7720  -34.3104  -41.9680 C.3       8 UNK         0.0238 
     51 CB         26.5730  -35.0273  -43.0675 C.3       8 UNK        -0.1912 
     52 C          24.2822  -34.6957  -42.0535 C.2       8 UNK         0.5038 
     53 O          23.9177  -35.7687  -41.5704 O.2       8 UNK        -0.5046 
     54 N          23.4600  -33.8304  -42.6659 N.am      9 UNK        -0.4200 
     55 CA         22.0346  -34.0407  -42.9598 C.3       9 UNK         0.0839 
     56 C          21.7681  -35.2696  -43.8871 C.2       9 UNK         0.5513 
     57 N          20.5660  -35.8286  -43.8833 N.am      9 UNK        -0.7519 
     58 O          22.6302  -35.6909  -44.6563 O.2       9 UNK        -0.4960 
     59 C59        21.1636  -33.9771  -41.6678 C.3       10 UNK        -0.0876 
     60 S60        19.4614  -33.3969  -41.9881 S.3       10 UNK        -0.2414 
     61 C61        19.7044  -31.5964  -41.9593 C.3       10 UNK         0.0169 
     62 H62        21.6410  -25.7262  -51.1196 H         1 UNK         0.0903 
     63 H63        19.9454  -26.1281  -50.8414 H         1 UNK         0.0903 
     64 H64        20.4944  -24.4595  -50.6731 H         1 UNK         0.0903 
     65 H65        19.5791  -27.0767  -48.8385 H         1 UNK         0.3096 
     66 H66        21.5288  -26.9381  -46.6966 H         1 UNK         0.1121 
     67 H67        20.4337  -29.0738  -47.0950 H         1 UNK         0.0849 
     68 H68        19.9763  -28.4992  -45.5200 H         1 UNK         0.0849 
     69 H69        16.7720  -30.4727  -46.7772 H         1 UNK         0.0865 
     70 H70        18.4718  -30.8581  -46.7619 H         1 UNK         0.0865 
     71 H71        19.5143  -31.2795  -44.6441 H         1 UNK         0.1346 
     72 H72        17.4805  -30.3354  -40.9898 H         1 UNK         0.1412 
     73 H73        15.8379  -29.0729  -44.7472 H         1 UNK         0.1426 
     74 H74        15.2409  -29.3885  -41.0673 H         1 UNK         0.0716 
     75 H75        14.4418  -29.2290  -42.6071 H         1 UNK         0.0716 
     76 H76        16.2135  -25.9980  -40.0489 H         1 UNK         0.0695 
     77 H77        16.3631  -27.7163  -39.8082 H         1 UNK         0.0695 
     78 H78        18.4190  -27.8100  -41.1426 H         1 UNK         0.0983 
     79 H79        17.5845  -25.4281  -42.3318 H         1 UNK         0.3095 
     80 H80        18.6394  -24.6054  -44.0488 H         1 UNK         0.0454 
     81 H81        21.5246  -23.9075  -43.2286 H         1 UNK         0.0851 
     82 H82        20.5535  -23.0294  -44.4059 H         1 UNK         0.0851 
     83 H83        20.0798  -23.0456  -42.7149 H         1 UNK         0.0851 
     84 H84        20.9254  -26.4025  -44.4712 H         1 UNK         0.2976 
     85 H85        18.8528  -24.5258  -40.0015 H         1 UNK         0.3116 
     86 H86        19.5970  -25.1741  -37.2874 H         1 UNK         0.0646 
     87 H87        20.3562  -22.7990  -37.2349 H         1 UNK         0.0847 
     88 H88        18.7446  -22.9257  -37.9172 H         1 UNK         0.0847 
     89 H89        20.1345  -22.6667  -38.9731 H         1 UNK         0.0847 
     90 H90        21.3358  -25.0757  -40.3544 H         1 UNK         0.3040 
     91 H91        24.0041  -25.2110  -39.0916 H         1 UNK         0.1015 
     92 H92        23.7328  -23.9108  -41.2019 H         1 UNK         0.0786 
     93 H93        23.1689  -25.3536  -42.0427 H         1 UNK         0.0786 
     94 H94        24.8141  -25.2747  -41.4332 H         1 UNK         0.0786 
     95 H95        21.8666  -27.1981  -41.1283 H         1 UNK         0.3172 
     96 H96        21.4588  -29.2908  -41.4488 H         1 UNK         0.0595 
     97 H97        21.0465  -29.4719  -39.0353 H         1 UNK         0.0839 
     98 H98        22.7463  -29.8127  -38.7186 H         1 UNK         0.0839 
     99 H99        21.7715  -30.9671  -39.6073 H         1 UNK         0.0839 
    100 H100       24.7975  -29.1119  -40.2456 H         1 UNK         0.2998 
    101 H101       26.7167  -30.1332  -40.7268 H         1 UNK         0.0822 
    102 H102       26.4626  -29.0990  -42.9836 H         1 UNK         0.0787 
    103 H103       27.3121  -30.6264  -43.0844 H         1 UNK         0.0787 
    104 H104       25.6208  -30.5237  -43.5738 H         1 UNK         0.0787 
    105 H105       26.2981  -32.5079  -42.9683 H         1 UNK         0.3055 
    106 H106       26.1403  -34.6549  -40.9986 H         1 UNK         0.1106 
    107 H107       26.4472  -36.1089  -42.9983 H         1 UNK         0.0828 
    108 H108       26.2502  -34.7267  -44.0651 H         1 UNK         0.0828 
    109 H109       27.6400  -34.8215  -42.9813 H         1 UNK         0.0828 
    110 H110       23.8425  -32.9536  -42.9919 H         1 UNK         0.2931 
    111 H111       21.7761  -33.1783  -43.5749 H         1 UNK         0.0412 
    112 H112       19.8388  -35.4592  -43.2881 H         1 UNK         0.3472 
    113 H113       20.3776  -36.6092  -44.4927 H         1 UNK         0.3472 
    114 H114       21.1299  -34.9502  -41.1746 H         1 UNK         0.0970 
    115 H115       21.6140  -33.2978  -40.9418 H         1 UNK         0.0970 
    116 H116       20.6692  -31.3526  -42.4020 H         1 UNK         0.0612 
    117 H117       19.7344  -31.2527  -40.9249 H         1 UNK         0.0612 
@<TRIPOS>BOND
     1    1    2 1    
     2    1   62 1    
     3    1   63 1    
     4    1   64 1    
     5    2    3 2    
     6    2    4 am   BACKBONE|DICT|INTERRES
     7    4    5 1    
     8    4   65 1    
     9    5    6 1    
    10    5   25 1    
    11    5   66 1    
    12    6    7 1    
    13    6   67 1    
    14    6   68 1    
    15    7    8 1    
    16    8    9 1    
    17    8   69 1    
    18    8   70 1    
    19    9   10 ar   
    20    9   14 ar   
    21   10   11 ar   
    22   10   71 1    
    23   11   12 ar   
    24   11   61 1    
    25   12   13 ar   
    26   12   72 1    
    27   13   14 ar   
    28   13   15 1    
    29   14   73 1    
    30   15   16 1    
    31   15   74 1    
    32   15   75 1    
    33   16   17 1    
    34   17   18 1    
    35   17   76 1    
    36   17   77 1    
    37   18   19 1    
    38   18   27 1    
    39   18   78 1    
    40   19   20 am   BACKBONE|DICT|INTERRES
    41   19   79 1    
    42   20   21 2    
    43   20   22 1    
    44   22   23 1    
    45   22   24 1    
    46   22   80 1    
    47   23   81 1    
    48   23   82 1    
    49   23   83 1    
    50   24   25 am   BACKBONE|DICT|INTERRES
    51   24   84 1    
    52   25   26 2    
    53   27   28 2    
    54   27   29 am   BACKBONE|DICT|INTERRES
    55   29   30 1    
    56   29   85 1    
    57   30   31 1    
    58   30   32 1    
    59   30   86 1    
    60   31   87 1    
    61   31   88 1    
    62   31   89 1    
    63   32   33 2    
    64   32   34 am   BACKBONE|DICT|INTERRES
    65   34   35 1    
    66   34   90 1    
    67   35   36 1    
    68   35   37 1    
    69   35   91 1    
    70   36   92 1    
    71   36   93 1    
    72   36   94 1    
    73   37   38 2    
    74   37   39 am   BACKBONE|DICT|INTERRES
    75   39   40 1    
    76   39   95 1    
    77   40   41 1    
    78   40   42 1    
    79   40   96 1    
    80   41   97 1    
    81   41   98 1    
    82   41   99 1    
    83   42   43 2    
    84   42   44 am   BACKBONE|DICT|INTERRES
    85   44   45 1    
    86   44  100 1    
    87   45   46 1    
    88   45   47 1    
    89   45  101 1    
    90   46  102 1    
    91   46  103 1    
    92   46  104 1    
    93   47   48 2    
    94   47   49 am   BACKBONE|DICT|INTERRES
    95   49   50 1    
    96   49  105 1    
    97   50   51 1    
    98   50   52 1    
    99   50  106 1    
   100   51  107 1    
   101   51  108 1    
   102   51  109 1    
   103   52   53 2    
   104   52   54 am   BACKBONE|DICT|INTERRES
   105   54   55 1    
   106   54  110 1    
   107   55   56 1    
   108   55   59 1    
   109   55  111 1    
   110   56   57 am   BACKBONE|DICT|INTERRES
   111   56   58 2    
   112   57  112 1    
   113   57  113 1    
   114   59   60 1    
   115   59  114 1    
   116   59  115 1    
   117   60   61 1    
   118   61  116 1    
   119   61  117 1    
@<TRIPOS>SUBSTRUCTURE
     1 UNK         1 GROUP             0       ****    0 ROOT    
