@<TRIPOS>MOLECULE
3R8
117   119    1
SMALL
USER_CHARGES


@<TRIPOS>ATOM
      1 CA         14.0020  -24.9556  -43.4958 C.3       0 UNK        -0.2013 
      2 C          15.2205  -25.6073  -42.8593 C.2       0 UNK         0.4866 
      3 O          15.4285  -25.4617  -41.6549 O.2       0 UNK        -0.5176 
      4 N          16.0272  -26.3139  -43.6648 N.am      1 UNK        -0.4884 
      5 CA         17.2394  -27.0522  -43.2667 C.3       1 UNK         0.0853 
      6 C6         16.9556  -28.2424  -42.3086 C.3       10 UNK        -0.0849 
      7 S7         15.9414  -29.5117  -43.1397 S.3       10 UNK        -0.2776 
      8 C8         17.0003  -30.9945  -43.0182 C.3       10 UNK         0.0316 
      9 C9         18.3975  -30.8414  -43.6203 C.ar      10 UNK        -0.0863 
     10 C10        19.4887  -31.3955  -42.9465 C.ar      10 UNK        -0.1009 
     11 C11        20.7756  -31.3440  -43.4914 C.ar      10 UNK        -0.0712 
     12 C12        20.9766  -30.6793  -44.7028 C.ar      10 UNK        -0.0894 
     13 C13        19.9038  -30.0816  -45.3702 C.ar      10 UNK        -0.0745 
     14 C14        18.6129  -30.1901  -44.8406 C.ar      10 UNK        -0.0972 
     15 C15        20.1428  -29.3123  -46.6600 C.3       10 UNK         0.0209 
     16 S16        20.2051  -27.5155  -46.3679 S.3       10 UNK        -0.2568 
     17 C17        21.8005  -27.3196  -45.4977 C.3       10 UNK        -0.0983 
     18 CA         22.0514  -25.8427  -45.1028 C.3       3 UNK         0.0876 
     19 N          21.0408  -25.3741  -44.1584 N.am      3 UNK        -0.4424 
     20 C          20.5992  -24.1191  -44.0387 C.2       2 UNK         0.4918 
     21 O          21.0167  -23.1803  -44.7195 O.2       2 UNK        -0.4875 
     22 CA         19.4634  -23.8977  -43.0164 C.3       2 UNK         0.0481 
     23 CB         18.8783  -22.4746  -43.0757 C.3       2 UNK        -0.1831 
     24 N          18.3796  -24.8669  -43.2125 N.am      2 UNK        -0.4498 
     25 C          18.3824  -26.1358  -42.7775 C.2       1 UNK         0.5027 
     26 O          19.2884  -26.5972  -42.0837 O.2       1 UNK        -0.4969 
     27 C          23.4562  -25.6371  -44.5051 C.2       3 UNK         0.5005 
     28 O          23.6090  -25.5680  -43.2822 O.2       3 UNK        -0.5279 
     29 N          24.4631  -25.5378  -45.3844 N.am      4 UNK        -0.4463 
     30 CA         25.8559  -25.2411  -45.0292 C.3       4 UNK         0.0283 
     31 CB         26.6494  -24.9311  -46.3093 C.3       4 UNK        -0.1875 
     32 C          26.5590  -26.3460  -44.2202 C.2       4 UNK         0.4949 
     33 O          27.4977  -26.0397  -43.4846 O.2       4 UNK        -0.5039 
     34 N          26.1140  -27.6004  -44.3786 N.am      5 UNK        -0.4663 
     35 CA         26.6466  -28.7618  -43.6641 C.3       5 UNK         0.0242 
     36 CB         26.1807  -30.0547  -44.3584 C.3       5 UNK        -0.1982 
     37 C          26.2565  -28.7548  -42.1771 C.2       5 UNK         0.5017 
     38 O          27.1381  -28.7572  -41.3175 O.2       5 UNK        -0.5012 
     39 N          24.9441  -28.7462  -41.9198 N.am      6 UNK        -0.4439 
     40 CA         24.2624  -28.8189  -40.6282 C.3       6 UNK         0.0297 
     41 CB         24.6901  -30.0812  -39.8394 C.3       6 UNK        -0.2006 
     42 C          22.7533  -28.8621  -40.9220 C.2       6 UNK         0.4892 
     43 O          22.3660  -28.8717  -42.0923 O.2       6 UNK        -0.5089 
     44 N          21.9395  -28.9419  -39.8617 N.am      7 UNK        -0.4243 
     45 CA         20.5039  -29.2507  -39.9269 C.3       7 UNK         0.0196 
     46 CB         19.7338  -28.1892  -39.1220 C.3       7 UNK        -0.2007 
     47 C          20.1929  -30.6632  -39.3854 C.2       7 UNK         0.5020 
     48 O          19.0288  -31.0605  -39.3601 O.2       7 UNK        -0.5147 
     49 N          21.2249  -31.3960  -38.9415 N.am      8 UNK        -0.4734 
     50 CA         21.1290  -32.6506  -38.1849 C.3       8 UNK         0.0238 
     51 CB         22.4612  -32.8674  -37.4449 C.3       8 UNK        -0.1912 
     52 C          20.7599  -33.9047  -39.0019 C.2       8 UNK         0.5038 
     53 O          20.5795  -34.9643  -38.4002 O.2       8 UNK        -0.5046 
     54 N          20.6769  -33.7894  -40.3338 N.am      9 UNK        -0.4200 
     55 CA         20.3772  -34.8956  -41.2620 C.3       9 UNK         0.0839 
     56 C          18.9537  -35.5110  -41.1127 C.2       9 UNK         0.5513 
     57 N          17.9989  -34.8335  -40.4854 N.am      9 UNK        -0.7519 
     58 O          18.7144  -36.6212  -41.5803 O.2       9 UNK        -0.4960 
     59 C59        20.6312  -34.5268  -42.7510 C.3       10 UNK        -0.0876 
     60 S60        22.2357  -33.7248  -43.1093 S.3       10 UNK        -0.2414 
     61 C61        21.9571  -31.9562  -42.7481 C.3       10 UNK         0.0169 
     62 H62        13.9390  -25.1607  -44.5643 H         1 UNK         0.0903 
     63 H63        14.0398  -23.8751  -43.3594 H         1 UNK         0.0903 
     64 H64        13.0913  -25.3264  -43.0260 H         1 UNK         0.0903 
     65 H65        15.7866  -26.3926  -44.6439 H         1 UNK         0.3096 
     66 H66        17.6372  -27.4770  -44.1899 H         1 UNK         0.1121 
     67 H67        17.8829  -28.7052  -41.9673 H         1 UNK         0.0849 
     68 H68        16.4435  -27.9089  -41.4053 H         1 UNK         0.0849 
     69 H69        17.0687  -31.2717  -41.9645 H         1 UNK         0.0865 
     70 H70        16.4979  -31.8231  -43.5187 H         1 UNK         0.0865 
     71 H71        19.3270  -31.8936  -42.0020 H         1 UNK         0.1346 
     72 H72        21.9741  -30.6066  -45.1134 H         1 UNK         0.1412 
     73 H73        17.7796  -29.7514  -45.3719 H         1 UNK         0.1426 
     74 H74        21.0665  -29.6362  -47.1419 H         1 UNK         0.0716 
     75 H75        19.3388  -29.5271  -47.3655 H         1 UNK         0.0716 
     76 H76        22.5906  -27.6894  -46.1537 H         1 UNK         0.0695 
     77 H77        21.8047  -27.9562  -44.6112 H         1 UNK         0.0695 
     78 H78        21.9869  -25.2324  -46.0069 H         1 UNK         0.0983 
     79 H79        20.6813  -26.0661  -43.5108 H         1 UNK         0.3095 
     80 H80        19.8915  -24.0384  -42.0218 H         1 UNK         0.0454 
     81 H81        18.0985  -22.3350  -42.3269 H         1 UNK         0.0851 
     82 H82        18.4489  -22.2538  -44.0537 H         1 UNK         0.0851 
     83 H83        19.6484  -21.7269  -42.8810 H         1 UNK         0.0851 
     84 H84        17.6147  -24.5765  -43.8044 H         1 UNK         0.2976 
     85 H85        24.2576  -25.6110  -46.3712 H         1 UNK         0.3116 
     86 H86        25.8528  -24.3421  -44.4087 H         1 UNK         0.0646 
     87 H87        26.2250  -24.0827  -46.8463 H         1 UNK         0.0847 
     88 H88        27.6841  -24.6764  -46.0748 H         1 UNK         0.0847 
     89 H89        26.6715  -25.7842  -46.9886 H         1 UNK         0.0847 
     90 H90        25.3426  -27.7572  -45.0098 H         1 UNK         0.3040 
     91 H91        27.7374  -28.7263  -43.7180 H         1 UNK         0.1015 
     92 H92        25.0935  -30.1346  -44.3959 H         1 UNK         0.0786 
     93 H93        26.5535  -30.9348  -43.8323 H         1 UNK         0.0786 
     94 H94        26.5544  -30.1097  -45.3811 H         1 UNK         0.0786 
     95 H95        24.2865  -28.7022  -42.6909 H         1 UNK         0.3172 
     96 H96        24.4886  -27.9168  -40.0574 H         1 UNK         0.0595 
     97 H97        24.1881  -30.1429  -38.8740 H         1 UNK         0.0839 
     98 H98        25.7568  -30.0855  -39.6196 H         1 UNK         0.0839 
     99 H99        24.4631  -30.9953  -40.3899 H         1 UNK         0.0839 
    100 H100       22.3361  -28.8573  -38.9361 H         1 UNK         0.2998 
    101 H101       20.1530  -29.2156  -40.9608 H         1 UNK         0.0822 
    102 H102       19.9454  -27.1852  -39.4901 H         1 UNK         0.0787 
    103 H103       18.6567  -28.3405  -39.2063 H         1 UNK         0.0787 
    104 H104       19.9886  -28.2189  -38.0620 H         1 UNK         0.0787 
    105 H105       22.1513  -31.0120  -39.0410 H         1 UNK         0.3055 
    106 H106       20.3420  -32.5304  -37.4367 H         1 UNK         0.1106 
    107 H107       22.6933  -32.0291  -36.7877 H         1 UNK         0.0828 
    108 H108       22.4241  -33.7602  -36.8189 H         1 UNK         0.0828 
    109 H109       23.2933  -32.9925  -38.1390 H         1 UNK         0.0828 
    110 H110       20.8495  -32.8882  -40.7471 H         1 UNK         0.2931 
    111 H111       21.0779  -35.6940  -41.0099 H         1 UNK         0.0412 
    112 H112       17.0825  -35.2429  -40.3933 H         1 UNK         0.3472 
    113 H113       18.1894  -33.9269  -40.0882 H         1 UNK         0.3472 
    114 H114       20.6153  -35.4435  -43.3437 H         1 UNK         0.0970 
    115 H115       19.8165  -33.9339  -43.1614 H         1 UNK         0.0970 
    116 H116       21.8425  -31.8069  -41.6773 H         1 UNK         0.0612 
    117 H117       22.8693  -31.4189  -43.0124 H         1 UNK         0.0612 
@<TRIPOS>BOND
     1    1    2 1    
     2    1   62 1    
     3    1   63 1    
     4    1   64 1    
     5    2    3 2    
     6    2    4 am   BACKBONE|DICT|INTERRES
     7    4    5 1    
     8    4   65 1    
     9    5    6 1    
    10    5   25 1    
    11    5   66 1    
    12    6    7 1    
    13    6   67 1    
    14    6   68 1    
    15    7    8 1    
    16    8    9 1    
    17    8   69 1    
    18    8   70 1    
    19    9   10 ar   
    20    9   14 ar   
    21   10   11 ar   
    22   10   71 1    
    23   11   12 ar   
    24   11   61 1    
    25   12   13 ar   
    26   12   72 1    
    27   13   14 ar   
    28   13   15 1    
    29   14   73 1    
    30   15   16 1    
    31   15   74 1    
    32   15   75 1    
    33   16   17 1    
    34   17   18 1    
    35   17   76 1    
    36   17   77 1    
    37   18   19 1    
    38   18   27 1    
    39   18   78 1    
    40   19   20 am   BACKBONE|DICT|INTERRES
    41   19   79 1    
    42   20   21 2    
    43   20   22 1    
    44   22   23 1    
    45   22   24 1    
    46   22   80 1    
    47   23   81 1    
    48   23   82 1    
    49   23   83 1    
    50   24   25 am   BACKBONE|DICT|INTERRES
    51   24   84 1    
    52   25   26 2    
    53   27   28 2    
    54   27   29 am   BACKBONE|DICT|INTERRES
    55   29   30 1    
    56   29   85 1    
    57   30   31 1    
    58   30   32 1    
    59   30   86 1    
    60   31   87 1    
    61   31   88 1    
    62   31   89 1    
    63   32   33 2    
    64   32   34 am   BACKBONE|DICT|INTERRES
    65   34   35 1    
    66   34   90 1    
    67   35   36 1    
    68   35   37 1    
    69   35   91 1    
    70   36   92 1    
    71   36   93 1    
    72   36   94 1    
    73   37   38 2    
    74   37   39 am   BACKBONE|DICT|INTERRES
    75   39   40 1    
    76   39   95 1    
    77   40   41 1    
    78   40   42 1    
    79   40   96 1    
    80   41   97 1    
    81   41   98 1    
    82   41   99 1    
    83   42   43 2    
    84   42   44 am   BACKBONE|DICT|INTERRES
    85   44   45 1    
    86   44  100 1    
    87   45   46 1    
    88   45   47 1    
    89   45  101 1    
    90   46  102 1    
    91   46  103 1    
    92   46  104 1    
    93   47   48 2    
    94   47   49 am   BACKBONE|DICT|INTERRES
    95   49   50 1    
    96   49  105 1    
    97   50   51 1    
    98   50   52 1    
    99   50  106 1    
   100   51  107 1    
   101   51  108 1    
   102   51  109 1    
   103   52   53 2    
   104   52   54 am   BACKBONE|DICT|INTERRES
   105   54   55 1    
   106   54  110 1    
   107   55   56 1    
   108   55   59 1    
   109   55  111 1    
   110   56   57 am   BACKBONE|DICT|INTERRES
   111   56   58 2    
   112   57  112 1    
   113   57  113 1    
   114   59   60 1    
   115   59  114 1    
   116   59  115 1    
   117   60   61 1    
   118   61  116 1    
   119   61  117 1    
@<TRIPOS>SUBSTRUCTURE
     1 UNK         1 GROUP             0       ****    0 ROOT    
