@<TRIPOS>MOLECULE
3R8
117   119    1
SMALL
USER_CHARGES


@<TRIPOS>ATOM
      1 CA         16.8030  -23.2880  -42.6840 C.3       0 UNK        -0.2013 
      2 C          17.0985  -24.7301  -43.0662 C.2       0 UNK         0.4866 
      3 O          17.9592  -24.9763  -43.9118 O.2       0 UNK        -0.5176 
      4 N          16.3997  -25.6889  -42.4451 N.am      1 UNK        -0.4884 
      5 CA         16.5304  -27.1334  -42.6789 C.3       1 UNK         0.0853 
      6 C6         15.2337  -27.8889  -42.2920 C.3       10 UNK        -0.0849 
      7 S7         13.9199  -27.5579  -43.5152 S.3       10 UNK        -0.2776 
      8 C8         13.9490  -29.0761  -44.5292 C.3       10 UNK         0.0316 
      9 C9         15.3437  -29.4238  -45.0393 C.ar      10 UNK        -0.0863 
     10 C10        16.0492  -30.4894  -44.4708 C.ar      10 UNK        -0.1009 
     11 C11        17.3257  -30.8211  -44.9307 C.ar      10 UNK        -0.0712 
     12 C12        17.8922  -30.0903  -45.9757 C.ar      10 UNK        -0.0894 
     13 C13        17.2114  -29.0075  -46.5376 C.ar      10 UNK        -0.0745 
     14 C14        15.9315  -28.6840  -46.0716 C.ar      10 UNK        -0.0972 
     15 C15        17.8558  -28.1934  -47.6501 C.3       10 UNK         0.0209 
     16 S16        19.0466  -26.9775  -46.9977 S.3       10 UNK        -0.2568 
     17 C17        20.6092  -27.9254  -46.9866 C.3       10 UNK        -0.0983 
     18 CA         21.5003  -27.6106  -45.7587 C.3       3 UNK         0.0876 
     19 N          20.8055  -27.8432  -44.4812 N.am      3 UNK        -0.4424 
     20 C          21.2456  -27.4545  -43.2740 C.2       2 UNK         0.4918 
     21 O          22.3499  -26.9412  -43.0888 O.2       2 UNK        -0.4875 
     22 CA         20.2895  -27.6718  -42.0916 C.3       2 UNK         0.0481 
     23 CB         20.7218  -26.9247  -40.8152 C.3       2 UNK        -0.1831 
     24 N          18.9513  -27.2549  -42.4914 N.am      2 UNK        -0.4498 
     25 C          17.7933  -27.7022  -41.9996 C.2       1 UNK         0.5027 
     26 O          17.7036  -28.4974  -41.0624 O.2       1 UNK        -0.4969 
     27 C          22.8688  -28.3239  -45.8756 C.2       3 UNK         0.5005 
     28 O          23.6527  -27.9782  -46.7609 O.2       3 UNK        -0.5279 
     29 N          23.1539  -29.2712  -44.9686 N.am      4 UNK        -0.4463 
     30 CA         24.4644  -29.9006  -44.7760 C.3       4 UNK         0.0283 
     31 CB         24.3089  -31.0965  -43.8227 C.3       4 UNK        -0.1875 
     32 C          25.5555  -28.9394  -44.2557 C.2       4 UNK         0.4949 
     33 O          26.7329  -29.2828  -44.3571 O.2       4 UNK        -0.5039 
     34 N          25.1520  -27.7730  -43.7243 N.am      5 UNK        -0.4663 
     35 CA         25.9800  -26.6758  -43.2085 C.3       5 UNK         0.0242 
     36 CB         26.8328  -26.0586  -44.3386 C.3       5 UNK        -0.1982 
     37 C          26.8261  -27.0959  -41.9851 C.2       5 UNK         0.5017 
     38 O          28.0302  -27.3076  -42.1266 O.2       5 UNK        -0.5012 
     39 N          26.2379  -27.2325  -40.7878 N.am      6 UNK        -0.4439 
     40 CA         24.8359  -26.9928  -40.4324 C.3       6 UNK         0.0297 
     41 CB         24.6181  -25.5035  -40.0912 C.3       6 UNK        -0.2006 
     42 C          24.4036  -27.9236  -39.2880 C.2       6 UNK         0.4892 
     43 O          23.6111  -27.5213  -38.4357 O.2       6 UNK        -0.5089 
     44 N          24.9157  -29.1622  -39.2827 N.am      7 UNK        -0.4243 
     45 CA         24.6929  -30.1757  -38.2430 C.3       7 UNK         0.0196 
     46 CB         25.8529  -31.1887  -38.2899 C.3       7 UNK        -0.2007 
     47 C          23.3104  -30.8611  -38.3237 C.2       7 UNK         0.5020 
     48 O          23.2269  -32.0817  -38.1817 O.2       7 UNK        -0.5147 
     49 N          22.2522  -30.0745  -38.5736 N.am      8 UNK        -0.4734 
     50 CA         20.8335  -30.4647  -38.6561 C.3       8 UNK         0.0238 
     51 CB         20.2885  -30.7523  -37.2414 C.3       8 UNK        -0.1912 
     52 C          20.5452  -31.6191  -39.6417 C.2       8 UNK         0.5038 
     53 O          19.6432  -32.4226  -39.3972 O.2       8 UNK        -0.5046 
     54 N          21.3375  -31.6867  -40.7205 N.am      9 UNK        -0.4200 
     55 CA         21.3503  -32.7590  -41.7313 C.3       9 UNK         0.0839 
     56 C          21.8813  -34.1320  -41.2141 C.2       9 UNK         0.5513 
     57 N          22.5305  -34.2086  -40.0583 N.am      9 UNK        -0.7519 
     58 O          21.7338  -35.1477  -41.8892 O.2       9 UNK        -0.4960 
     59 C59        20.0118  -32.8967  -42.5117 C.3       10 UNK        -0.0876 
     60 S60        19.4673  -31.3365  -43.2792 S.3       10 UNK        -0.2414 
     61 C61        18.1009  -31.9643  -44.2999 C.3       10 UNK         0.0169 
     62 H62        16.0192  -23.2175  -41.9300 H         1 UNK         0.0903 
     63 H63        17.7002  -22.8142  -42.2867 H         1 UNK         0.0903 
     64 H64        16.4811  -22.7270  -43.5610 H         1 UNK         0.0903 
     65 H65        15.7161  -25.4256  -41.7494 H         1 UNK         0.3096 
     66 H66        16.6916  -27.2856  -43.7483 H         1 UNK         0.1121 
     67 H67        15.3957  -28.9659  -42.2294 H         1 UNK         0.0849 
     68 H68        14.8885  -27.5863  -41.3019 H         1 UNK         0.0849 
     69 H69        13.5387  -29.8999  -43.9429 H         1 UNK         0.0865 
     70 H70        13.2757  -28.9473  -45.3779 H         1 UNK         0.0865 
     71 H71        15.6073  -31.0590  -43.6645 H         1 UNK         0.1346 
     72 H72        18.8723  -30.3652  -46.3353 H         1 UNK         0.1412 
     73 H73        15.3946  -27.8499  -46.5032 H         1 UNK         0.1426 
     74 H74        17.0883  -27.6569  -48.2101 H         1 UNK         0.0716 
     75 H75        18.3454  -28.8524  -48.3687 H         1 UNK         0.0716 
     76 H76        21.1367  -27.6769  -47.9097 H         1 UNK         0.0695 
     77 H77        20.4065  -28.9937  -47.0426 H         1 UNK         0.0695 
     78 H78        21.7276  -26.5426  -45.7910 H         1 UNK         0.0983 
     79 H79        19.8878  -28.2599  -44.5496 H         1 UNK         0.3095 
     80 H80        20.2817  -28.7426  -41.8810 H         1 UNK         0.0454 
     81 H81        20.0307  -27.1044  -39.9919 H         1 UNK         0.0851 
     82 H82        21.7060  -27.2535  -40.4852 H         1 UNK         0.0851 
     83 H83        20.7744  -25.8479  -40.9793 H         1 UNK         0.0851 
     84 H84        18.9010  -26.5387  -43.2138 H         1 UNK         0.2976 
     85 H85        22.4364  -29.5024  -44.2976 H         1 UNK         0.3116 
     86 H86        24.8002  -30.2766  -45.7448 H         1 UNK         0.0646 
     87 H87        23.9543  -30.7865  -42.8393 H         1 UNK         0.0847 
     88 H88        25.2622  -31.6070  -43.6776 H         1 UNK         0.0847 
     89 H89        23.6114  -31.8319  -44.2234 H         1 UNK         0.0847 
     90 H90        24.1519  -27.6090  -43.6582 H         1 UNK         0.3040 
     91 H91        25.2911  -25.8949  -42.8891 H         1 UNK         0.1015 
     92 H92        27.3868  -25.1916  -43.9765 H         1 UNK         0.0786 
     93 H93        26.2077  -25.7219  -45.1658 H         1 UNK         0.0786 
     94 H94        27.5623  -26.7638  -44.7380 H         1 UNK         0.0786 
     95 H95        26.8250  -27.5112  -40.0130 H         1 UNK         0.3172 
     96 H96        24.1924  -27.2559  -41.2699 H         1 UNK         0.0595 
     97 H97        25.1747  -25.2138  -39.1991 H         1 UNK         0.0839 
     98 H98        23.5643  -25.2973  -39.8981 H         1 UNK         0.0839 
     99 H99        24.9264  -24.8424  -40.8996 H         1 UNK         0.0839 
    100 H100       25.5204  -29.4315  -40.0456 H         1 UNK         0.2998 
    101 H101       24.7316  -29.6794  -37.2707 H         1 UNK         0.0822 
    102 H102       26.8183  -30.6939  -38.1821 H         1 UNK         0.0787 
    103 H103       25.7749  -31.9144  -37.4790 H         1 UNK         0.0787 
    104 H104       25.8629  -31.7467  -39.2272 H         1 UNK         0.0787 
    105 H105       22.4453  -29.0783  -38.6347 H         1 UNK         0.3055 
    106 H106       20.2939  -29.6010  -39.0487 H         1 UNK         0.1106 
    107 H107       20.4700  -29.9147  -36.5681 H         1 UNK         0.0828 
    108 H108       19.2110  -30.9208  -37.2604 H         1 UNK         0.0828 
    109 H109       20.7501  -31.6393  -36.8060 H         1 UNK         0.0828 
    110 H110       22.0670  -30.9965  -40.8064 H         1 UNK         0.2931 
    111 H111       22.0992  -32.4445  -42.4564 H         1 UNK         0.0412 
    112 H112       22.6765  -33.3894  -39.4749 H         1 UNK         0.3472 
    113 H113       22.8749  -35.1038  -39.7503 H         1 UNK         0.3472 
    114 H114       19.2189  -33.2636  -41.8584 H         1 UNK         0.0970 
    115 H115       20.1152  -33.6379  -43.3064 H         1 UNK         0.0970 
    116 H116       18.4984  -32.6149  -45.0804 H         1 UNK         0.0612 
    117 H117       17.4429  -32.5794  -43.6840 H         1 UNK         0.0612 
@<TRIPOS>BOND
     1    1    2 1    
     2    1   62 1    
     3    1   63 1    
     4    1   64 1    
     5    2    3 2    
     6    2    4 am   BACKBONE|DICT|INTERRES
     7    4    5 1    
     8    4   65 1    
     9    5    6 1    
    10    5   25 1    
    11    5   66 1    
    12    6    7 1    
    13    6   67 1    
    14    6   68 1    
    15    7    8 1    
    16    8    9 1    
    17    8   69 1    
    18    8   70 1    
    19    9   10 ar   
    20    9   14 ar   
    21   10   11 ar   
    22   10   71 1    
    23   11   12 ar   
    24   11   61 1    
    25   12   13 ar   
    26   12   72 1    
    27   13   14 ar   
    28   13   15 1    
    29   14   73 1    
    30   15   16 1    
    31   15   74 1    
    32   15   75 1    
    33   16   17 1    
    34   17   18 1    
    35   17   76 1    
    36   17   77 1    
    37   18   19 1    
    38   18   27 1    
    39   18   78 1    
    40   19   20 am   BACKBONE|DICT|INTERRES
    41   19   79 1    
    42   20   21 2    
    43   20   22 1    
    44   22   23 1    
    45   22   24 1    
    46   22   80 1    
    47   23   81 1    
    48   23   82 1    
    49   23   83 1    
    50   24   25 am   BACKBONE|DICT|INTERRES
    51   24   84 1    
    52   25   26 2    
    53   27   28 2    
    54   27   29 am   BACKBONE|DICT|INTERRES
    55   29   30 1    
    56   29   85 1    
    57   30   31 1    
    58   30   32 1    
    59   30   86 1    
    60   31   87 1    
    61   31   88 1    
    62   31   89 1    
    63   32   33 2    
    64   32   34 am   BACKBONE|DICT|INTERRES
    65   34   35 1    
    66   34   90 1    
    67   35   36 1    
    68   35   37 1    
    69   35   91 1    
    70   36   92 1    
    71   36   93 1    
    72   36   94 1    
    73   37   38 2    
    74   37   39 am   BACKBONE|DICT|INTERRES
    75   39   40 1    
    76   39   95 1    
    77   40   41 1    
    78   40   42 1    
    79   40   96 1    
    80   41   97 1    
    81   41   98 1    
    82   41   99 1    
    83   42   43 2    
    84   42   44 am   BACKBONE|DICT|INTERRES
    85   44   45 1    
    86   44  100 1    
    87   45   46 1    
    88   45   47 1    
    89   45  101 1    
    90   46  102 1    
    91   46  103 1    
    92   46  104 1    
    93   47   48 2    
    94   47   49 am   BACKBONE|DICT|INTERRES
    95   49   50 1    
    96   49  105 1    
    97   50   51 1    
    98   50   52 1    
    99   50  106 1    
   100   51  107 1    
   101   51  108 1    
   102   51  109 1    
   103   52   53 2    
   104   52   54 am   BACKBONE|DICT|INTERRES
   105   54   55 1    
   106   54  110 1    
   107   55   56 1    
   108   55   59 1    
   109   55  111 1    
   110   56   57 am   BACKBONE|DICT|INTERRES
   111   56   58 2    
   112   57  112 1    
   113   57  113 1    
   114   59   60 1    
   115   59  114 1    
   116   59  115 1    
   117   60   61 1    
   118   61  116 1    
   119   61  117 1    
@<TRIPOS>SUBSTRUCTURE
     1 UNK         1 GROUP             0       ****    0 ROOT    
