@<TRIPOS>MOLECULE
3R8
117   119    1
SMALL
USER_CHARGES


@<TRIPOS>ATOM
      1 CA         19.1694  -25.3588  -48.0851 C.3       0 UNK        -0.2013 
      2 C          19.0144  -26.3726  -46.9616 C.2       0 UNK         0.4866 
      3 O          19.4889  -27.5020  -47.0856 O.2       0 UNK        -0.5176 
      4 N          18.3516  -25.9813  -45.8661 N.am      1 UNK        -0.4884 
      5 CA         18.1278  -26.8110  -44.6792 C.3       1 UNK         0.0853 
      6 C6         16.9022  -26.3324  -43.8607 C.3       10 UNK        -0.0849 
      7 S7         15.3510  -26.6648  -44.7617 S.3       10 UNK        -0.2776 
      8 C8         14.6344  -28.0449  -43.8024 C.3       10 UNK         0.0316 
      9 C9         15.5928  -29.2169  -43.6043 C.ar      10 UNK        -0.0863 
     10 C10        16.2019  -29.8375  -44.7006 C.ar      10 UNK        -0.1009 
     11 C11        17.0880  -30.9031  -44.5140 C.ar      10 UNK        -0.0712 
     12 C12        17.3258  -31.3802  -43.2225 C.ar      10 UNK        -0.0894 
     13 C13        16.7122  -30.7804  -42.1194 C.ar      10 UNK        -0.0745 
     14 C14        15.8553  -29.6933  -42.3153 C.ar      10 UNK        -0.0972 
     15 C15        16.9476  -31.3359  -40.7226 C.3       10 UNK         0.0209 
     16 S16        18.6817  -31.1799  -40.1986 S.3       10 UNK        -0.2568 
     17 C17        18.7940  -29.4167  -39.7615 C.3       10 UNK        -0.0983 
     18 CA         20.1906  -28.8294  -40.0838 C.3       3 UNK         0.0876 
     19 N          20.4191  -28.6953  -41.5264 N.am      3 UNK        -0.4424 
     20 C          21.6095  -28.4620  -42.0959 C.2       2 UNK         0.4918 
     21 O          22.6816  -28.6001  -41.5028 O.2       2 UNK        -0.4875 
     22 CA         21.6292  -27.9770  -43.5605 C.3       2 UNK         0.0481 
     23 CB         22.4804  -28.8938  -44.4499 C.3       2 UNK        -0.1831 
     24 N          20.3162  -27.7834  -44.1838 N.am      2 UNK        -0.4498 
     25 C          19.4065  -26.8672  -43.8272 C.2       1 UNK         0.5027 
     26 O          19.5487  -26.1028  -42.8708 O.2       1 UNK        -0.4969 
     27 C          20.3898  -27.4896  -39.3419 C.2       3 UNK         0.5005 
     28 O          20.7576  -27.5163  -38.1664 O.2       3 UNK        -0.5279 
     29 N          20.1570  -26.3498  -40.0166 N.am      4 UNK        -0.4463 
     30 CA         20.4059  -25.0130  -39.4683 C.3       4 UNK         0.0283 
     31 CB         19.7102  -23.9491  -40.3333 C.3       4 UNK        -0.1875 
     32 C          21.9111  -24.7268  -39.3479 C.2       4 UNK         0.4949 
     33 O          22.3603  -24.2651  -38.2989 O.2       4 UNK        -0.5039 
     34 N          22.6581  -25.0472  -40.4108 N.am      5 UNK        -0.4663 
     35 CA         24.1149  -25.0034  -40.4780 C.3       5 UNK         0.0242 
     36 CB         24.6232  -23.5476  -40.5159 C.3       5 UNK        -0.1982 
     37 C          24.5456  -25.7580  -41.7470 C.2       5 UNK         0.5017 
     38 O          24.0855  -25.3808  -42.8242 O.2       5 UNK        -0.5012 
     39 N          25.4003  -26.7864  -41.6818 N.am      6 UNK        -0.4439 
     40 CA         25.9471  -27.4552  -40.5001 C.3       6 UNK         0.0297 
     41 CB         27.1113  -26.6344  -39.9014 C.3       6 UNK        -0.2006 
     42 C          26.3652  -28.8830  -40.8910 C.2       6 UNK         0.4892 
     43 O          27.5010  -29.2829  -40.6288 O.2       6 UNK        -0.5089 
     44 N          25.4548  -29.6120  -41.5516 N.am      7 UNK        -0.4243 
     45 CA         25.7086  -30.9590  -42.0833 C.3       7 UNK         0.0196 
     46 CB         26.1754  -30.8541  -43.5476 C.3       7 UNK        -0.2007 
     47 C          24.5136  -31.9176  -41.9527 C.2       7 UNK         0.5020 
     48 O          24.6646  -33.0977  -42.2716 O.2       7 UNK        -0.5147 
     49 N          23.3449  -31.4154  -41.5243 N.am      8 UNK        -0.4734 
     50 CA         22.0871  -32.1511  -41.3091 C.3       8 UNK         0.0238 
     51 CB         22.2167  -33.0973  -40.0974 C.3       8 UNK        -0.1912 
     52 C          21.5219  -32.8664  -42.5555 C.2       8 UNK         0.5038 
     53 O          20.7260  -33.7961  -42.4146 O.2       8 UNK        -0.5046 
     54 N          21.9546  -32.4278  -43.7455 N.am      9 UNK        -0.4200 
     55 CA         21.6913  -33.0438  -45.0564 C.3       9 UNK         0.0839 
     56 C          22.3227  -34.4616  -45.2231 C.2       9 UNK         0.5513 
     57 N          23.3305  -34.8324  -44.4397 N.am      9 UNK        -0.7519 
     58 O          21.9207  -35.2280  -46.0950 O.2       9 UNK        -0.4960 
     59 C59        20.1936  -32.9807  -45.4771 C.3       10 UNK        -0.0876 
     60 S60        19.5838  -31.2683  -45.6509 S.3       10 UNK        -0.2414 
     61 C61        17.7837  -31.5433  -45.7053 C.3       10 UNK         0.0169 
     62 H62        18.6955  -24.4072  -47.8450 H         1 UNK         0.0903 
     63 H63        20.2255  -25.1730  -48.2789 H         1 UNK         0.0903 
     64 H64        18.7172  -25.7415  -48.9996 H         1 UNK         0.0903 
     65 H65        17.9892  -25.0397  -45.8137 H         1 UNK         0.3096 
     66 H66        17.9302  -27.8316  -45.0097 H         1 UNK         0.1121 
     67 H67        16.8612  -26.8251  -42.8872 H         1 UNK         0.0849 
     68 H68        16.9684  -25.2634  -43.6499 H         1 UNK         0.0849 
     69 H69        14.2956  -27.6560  -42.8408 H         1 UNK         0.0865 
     70 H70        13.7416  -28.4038  -44.3161 H         1 UNK         0.0865 
     71 H71        16.0005  -29.4726  -45.6988 H         1 UNK         0.1346 
     72 H72        17.9987  -32.2144  -43.0737 H         1 UNK         0.1412 
     73 H73        15.3782  -29.2290  -41.4627 H         1 UNK         0.1426 
     74 H74        16.6766  -32.3925  -40.7165 H         1 UNK         0.0716 
     75 H75        16.3026  -30.8512  -39.9880 H         1 UNK         0.0716 
     76 H76        18.5746  -29.3439  -38.6941 H         1 UNK         0.0695 
     77 H77        18.0122  -28.8523  -40.2731 H         1 UNK         0.0695 
     78 H78        20.9476  -29.5065  -39.6821 H         1 UNK         0.0983 
     79 H79        19.5942  -28.6197  -42.1018 H         1 UNK         0.3095 
     80 H80        22.1143  -27.0005  -43.5442 H         1 UNK         0.0454 
     81 H81        22.6247  -28.4569  -45.4383 H         1 UNK         0.0851 
     82 H82        23.4713  -29.0512  -44.0250 H         1 UNK         0.0851 
     83 H83        22.0133  -29.8664  -44.5857 H         1 UNK         0.0851 
     84 H84        20.1276  -28.3313  -45.0154 H         1 UNK         0.2976 
     85 H85        19.8653  -26.3918  -40.9896 H         1 UNK         0.3116 
     86 H86        19.9720  -24.9674  -38.4670 H         1 UNK         0.0646 
     87 H87        20.1074  -23.9238  -41.3486 H         1 UNK         0.0847 
     88 H88        19.8453  -22.9540  -39.9075 H         1 UNK         0.0847 
     89 H89        18.6374  -24.1305  -40.3993 H         1 UNK         0.0847 
     90 H90        22.2046  -25.4128  -41.2376 H         1 UNK         0.3040 
     91 H91        24.5011  -25.4806  -39.5790 H         1 UNK         0.1015 
     92 H92        25.7075  -23.5167  -40.6301 H         1 UNK         0.0786 
     93 H93        24.3831  -23.0117  -39.5979 H         1 UNK         0.0786 
     94 H94        24.1914  -22.9919  -41.3493 H         1 UNK         0.0786 
     95 H95        25.6642  -27.2198  -42.5560 H         1 UNK         0.3172 
     96 H96        25.1629  -27.5722  -39.7501 H         1 UNK         0.0595 
     97 H97        27.9283  -26.5235  -40.6154 H         1 UNK         0.0839 
     98 H98        27.5185  -27.1250  -39.0163 H         1 UNK         0.0839 
     99 H99        26.8055  -25.6352  -39.5958 H         1 UNK         0.0839 
    100 H100       24.5334  -29.2100  -41.6954 H         1 UNK         0.2998 
    101 H101       26.5097  -31.4277  -41.5074 H         1 UNK         0.0822 
    102 H102       27.0834  -30.2567  -43.6311 H         1 UNK         0.0787 
    103 H103       26.4018  -31.8384  -43.9602 H         1 UNK         0.0787 
    104 H104       25.4170  -30.4010  -44.1854 H         1 UNK         0.0787 
    105 H105       23.2948  -30.4260  -41.3059 H         1 UNK         0.3055 
    106 H106       21.3464  -31.3971  -41.0568 H         1 UNK         0.1106 
    107 H107       22.5789  -32.5670  -39.2169 H         1 UNK         0.0828 
    108 H108       21.2516  -33.5323  -39.8342 H         1 UNK         0.0828 
    109 H109       22.9013  -33.9213  -40.3002 H         1 UNK         0.0828 
    110 H110       22.6357  -31.6856  -43.7443 H         1 UNK         0.2931 
    111 H111       22.2421  -32.4299  -45.7700 H         1 UNK         0.0412 
    112 H112       23.6900  -34.2145  -43.7204 H         1 UNK         0.3472 
    113 H113       23.7383  -35.7454  -44.5637 H         1 UNK         0.3472 
    114 H114       19.5720  -33.5228  -44.7634 H         1 UNK         0.0970 
    115 H115       20.0433  -33.4699  -46.4410 H         1 UNK         0.0970 
    116 H116       17.4026  -31.1314  -46.6409 H         1 UNK         0.0612 
    117 H117       17.5548  -32.6095  -45.7274 H         1 UNK         0.0612 
@<TRIPOS>BOND
     1    1    2 1    
     2    1   62 1    
     3    1   63 1    
     4    1   64 1    
     5    2    3 2    
     6    2    4 am   BACKBONE|DICT|INTERRES
     7    4    5 1    
     8    4   65 1    
     9    5    6 1    
    10    5   25 1    
    11    5   66 1    
    12    6    7 1    
    13    6   67 1    
    14    6   68 1    
    15    7    8 1    
    16    8    9 1    
    17    8   69 1    
    18    8   70 1    
    19    9   10 ar   
    20    9   14 ar   
    21   10   11 ar   
    22   10   71 1    
    23   11   12 ar   
    24   11   61 1    
    25   12   13 ar   
    26   12   72 1    
    27   13   14 ar   
    28   13   15 1    
    29   14   73 1    
    30   15   16 1    
    31   15   74 1    
    32   15   75 1    
    33   16   17 1    
    34   17   18 1    
    35   17   76 1    
    36   17   77 1    
    37   18   19 1    
    38   18   27 1    
    39   18   78 1    
    40   19   20 am   BACKBONE|DICT|INTERRES
    41   19   79 1    
    42   20   21 2    
    43   20   22 1    
    44   22   23 1    
    45   22   24 1    
    46   22   80 1    
    47   23   81 1    
    48   23   82 1    
    49   23   83 1    
    50   24   25 am   BACKBONE|DICT|INTERRES
    51   24   84 1    
    52   25   26 2    
    53   27   28 2    
    54   27   29 am   BACKBONE|DICT|INTERRES
    55   29   30 1    
    56   29   85 1    
    57   30   31 1    
    58   30   32 1    
    59   30   86 1    
    60   31   87 1    
    61   31   88 1    
    62   31   89 1    
    63   32   33 2    
    64   32   34 am   BACKBONE|DICT|INTERRES
    65   34   35 1    
    66   34   90 1    
    67   35   36 1    
    68   35   37 1    
    69   35   91 1    
    70   36   92 1    
    71   36   93 1    
    72   36   94 1    
    73   37   38 2    
    74   37   39 am   BACKBONE|DICT|INTERRES
    75   39   40 1    
    76   39   95 1    
    77   40   41 1    
    78   40   42 1    
    79   40   96 1    
    80   41   97 1    
    81   41   98 1    
    82   41   99 1    
    83   42   43 2    
    84   42   44 am   BACKBONE|DICT|INTERRES
    85   44   45 1    
    86   44  100 1    
    87   45   46 1    
    88   45   47 1    
    89   45  101 1    
    90   46  102 1    
    91   46  103 1    
    92   46  104 1    
    93   47   48 2    
    94   47   49 am   BACKBONE|DICT|INTERRES
    95   49   50 1    
    96   49  105 1    
    97   50   51 1    
    98   50   52 1    
    99   50  106 1    
   100   51  107 1    
   101   51  108 1    
   102   51  109 1    
   103   52   53 2    
   104   52   54 am   BACKBONE|DICT|INTERRES
   105   54   55 1    
   106   54  110 1    
   107   55   56 1    
   108   55   59 1    
   109   55  111 1    
   110   56   57 am   BACKBONE|DICT|INTERRES
   111   56   58 2    
   112   57  112 1    
   113   57  113 1    
   114   59   60 1    
   115   59  114 1    
   116   59  115 1    
   117   60   61 1    
   118   61  116 1    
   119   61  117 1    
@<TRIPOS>SUBSTRUCTURE
     1 UNK         1 GROUP             0       ****    0 ROOT    
