@<TRIPOS>MOLECULE
3R8
117   119    1
SMALL
USER_CHARGES


@<TRIPOS>ATOM
      1 CA         16.0141  -26.3882  -48.1124 C.3       0 UNK        -0.2013 
      2 C          17.5190  -26.1641  -48.1255 C.2       0 UNK         0.4866 
      3 O          18.1029  -25.9883  -49.1955 O.2       0 UNK        -0.5176 
      4 N          18.1414  -26.1675  -46.9433 N.am      1 UNK        -0.4884 
      5 CA         19.5697  -25.9164  -46.7204 C.3       1 UNK         0.0853 
      6 C6         20.3615  -27.2026  -46.3226 C.3       10 UNK        -0.0849 
      7 S7         20.0207  -28.6557  -47.3826 S.3       10 UNK        -0.2776 
      8 C8         20.2083  -30.0618  -46.2222 C.3       10 UNK         0.0316 
      9 C9         19.2950  -30.0675  -44.9915 C.ar      10 UNK        -0.0863 
     10 C10        19.6215  -30.9154  -43.9284 C.ar      10 UNK        -0.1009 
     11 C11        18.8775  -30.9077  -42.7451 C.ar      10 UNK        -0.0712 
     12 C12        17.7793  -30.0517  -42.6302 C.ar      10 UNK        -0.0894 
     13 C13        17.4162  -29.2233  -43.6955 C.ar      10 UNK        -0.0745 
     14 C14        18.1615  -29.2524  -44.8773 C.ar      10 UNK        -0.0972 
     15 C15        16.2269  -28.2837  -43.5723 C.3       10 UNK         0.0209 
     16 S16        16.7573  -26.5508  -43.3915 S.3       10 UNK        -0.2568 
     17 C17        17.5288  -26.5544  -41.7353 C.3       10 UNK        -0.0983 
     18 CA         19.0779  -26.5283  -41.7865 C.3       3 UNK         0.0876 
     19 N          19.5742  -25.3691  -42.5396 N.am      3 UNK        -0.4424 
     20 C          20.8453  -24.9668  -42.6859 C.2       2 UNK         0.4918 
     21 O          21.8001  -25.4233  -42.0590 O.2       2 UNK        -0.4875 
     22 CA         21.0956  -23.9402  -43.8087 C.3       2 UNK         0.0481 
     23 CB         22.5126  -23.3383  -43.7618 C.3       2 UNK        -0.1831 
     24 N          20.8871  -24.6010  -45.1016 N.am      2 UNK        -0.4498 
     25 C          19.6756  -24.8337  -45.6251 C.2       1 UNK         0.5027 
     26 O          18.6561  -24.2768  -45.2040 O.2       1 UNK        -0.4969 
     27 C          19.6582  -26.6360  -40.3619 C.2       3 UNK         0.5005 
     28 O          19.8082  -25.6186  -39.6805 O.2       3 UNK        -0.5279 
     29 N          19.9764  -27.8708  -39.9495 N.am      4 UNK        -0.4463 
     30 CA         20.6236  -28.2810  -38.6947 C.3       4 UNK         0.0283 
     31 CB         19.8990  -27.7456  -37.4437 C.3       4 UNK        -0.1875 
     32 C          22.1326  -27.9824  -38.6499 C.2       4 UNK         0.4949 
     33 O          22.8833  -28.8188  -38.1476 O.2       4 UNK        -0.5039 
     34 N          22.5645  -26.8305  -39.1822 N.am      5 UNK        -0.4663 
     35 CA         23.9793  -26.4839  -39.3465 C.3       5 UNK         0.0242 
     36 CB         24.1360  -24.9616  -39.4966 C.3       5 UNK        -0.1982 
     37 C          24.6013  -27.2324  -40.5367 C.2       5 UNK         0.5017 
     38 O          25.6810  -27.8078  -40.3947 O.2       5 UNK        -0.5012 
     39 N          23.8904  -27.2347  -41.6692 N.am      6 UNK        -0.4439 
     40 CA         24.1809  -28.0091  -42.8692 C.3       6 UNK         0.0297 
     41 CB         24.4350  -27.0441  -44.0395 C.3       6 UNK        -0.2006 
     42 C          22.9470  -28.8813  -43.1593 C.2       6 UNK         0.4892 
     43 O          21.8398  -28.3455  -43.1578 O.2       6 UNK        -0.5089 
     44 N          23.0854  -30.1839  -43.4258 N.am      7 UNK        -0.4243 
     45 CA         24.2775  -31.0229  -43.3592 C.3       7 UNK         0.0196 
     46 CB         25.1283  -30.8640  -44.6327 C.3       7 UNK        -0.2007 
     47 C          23.8041  -32.4701  -43.1970 C.2       7 UNK         0.5020 
     48 O          22.7607  -32.8266  -43.7488 O.2       7 UNK        -0.5147 
     49 N          24.5770  -33.2675  -42.4450 N.am      8 UNK        -0.4734 
     50 CA         24.3205  -34.6768  -42.1028 C.3       8 UNK         0.0238 
     51 CB         24.4349  -35.5712  -43.3567 C.3       8 UNK        -0.1912 
     52 C          22.9999  -34.8983  -41.3318 C.2       8 UNK         0.5038 
     53 O          22.3743  -35.9507  -41.4751 O.2       8 UNK        -0.5046 
     54 N          22.6012  -33.9007  -40.5309 N.am      9 UNK        -0.4200 
     55 CA         21.3464  -33.8838  -39.7616 C.3       9 UNK         0.0839 
     56 C          21.3387  -34.7969  -38.5011 C.2       9 UNK         0.5513 
     57 N          22.4654  -35.3519  -38.0704 N.am      9 UNK        -0.7519 
     58 O          20.2858  -35.0087  -37.9051 O.2       9 UNK        -0.4960 
     59 C59        20.9055  -32.4391  -39.3997 C.3       10 UNK        -0.0876 
     60 S60        20.8289  -31.3104  -40.8319 S.3       10 UNK        -0.2414 
     61 C61        19.2623  -31.8267  -41.5960 C.3       10 UNK         0.0169 
     62 H62        15.6320  -26.5321  -47.1016 H         1 UNK         0.0903 
     63 H63        15.5027  -25.5311  -48.5497 H         1 UNK         0.0903 
     64 H64        15.7621  -27.2718  -48.6982 H         1 UNK         0.0903 
     65 H65        17.5951  -26.2086  -46.0926 H         1 UNK         0.3096 
     66 H66        20.0167  -25.4943  -47.6231 H         1 UNK         0.1121 
     67 H67        20.1603  -27.4664  -45.2828 H         1 UNK         0.0849 
     68 H68        21.4354  -27.0164  -46.3705 H         1 UNK         0.0849 
     69 H69        20.0434  -30.9866  -46.7764 H         1 UNK         0.0865 
     70 H70        21.2486  -30.0832  -45.8933 H         1 UNK         0.0865 
     71 H71        20.4728  -31.5762  -44.0101 H         1 UNK         0.1346 
     72 H72        17.2037  -30.0343  -41.7149 H         1 UNK         0.1412 
     73 H73        17.8686  -28.6089  -45.6931 H         1 UNK         0.1426 
     74 H74        15.5911  -28.5614  -42.7301 H         1 UNK         0.0716 
     75 H75        15.6057  -28.3706  -44.4649 H         1 UNK         0.0716 
     76 H76        17.1744  -27.4259  -41.1816 H         1 UNK         0.0695 
     77 H77        17.1555  -25.6836  -41.1928 H         1 UNK         0.0695 
     78 H78        19.4131  -27.4045  -42.3461 H         1 UNK         0.0983 
     79 H79        18.8854  -24.9324  -43.1400 H         1 UNK         0.3095 
     80 H80        20.3838  -23.1211  -43.6859 H         1 UNK         0.0454 
     81 H81        23.2866  -24.0955  -43.8852 H         1 UNK         0.0851 
     82 H82        22.6921  -22.8461  -42.8051 H         1 UNK         0.0851 
     83 H83        22.6500  -22.5893  -44.5416 H         1 UNK         0.0851 
     84 H84        21.6840  -25.0900  -45.4825 H         1 UNK         0.2976 
     85 H85        19.8550  -28.6257  -40.6129 H         1 UNK         0.3116 
     86 H86        20.5255  -29.3664  -38.6662 H         1 UNK         0.0646 
     87 H87        20.0128  -26.6675  -37.3299 H         1 UNK         0.0847 
     88 H88        18.8332  -27.9716  -37.4733 H         1 UNK         0.0847 
     89 H89        20.3029  -28.2046  -36.5406 H         1 UNK         0.0847 
     90 H90        21.8773  -26.1946  -39.5730 H         1 UNK         0.3040 
     91 H91        24.5189  -26.7873  -38.4461 H         1 UNK         0.1015 
     92 H92        25.1874  -24.6880  -39.5945 H         1 UNK         0.0786 
     93 H93        23.7446  -24.4365  -38.6253 H         1 UNK         0.0786 
     94 H94        23.6187  -24.5794  -40.3765 H         1 UNK         0.0786 
     95 H95        23.0100  -26.7196  -41.6995 H         1 UNK         0.3172 
     96 H96        25.0762  -28.6093  -42.7191 H         1 UNK         0.0595 
     97 H97        23.5565  -26.4356  -44.2545 H         1 UNK         0.0839 
     98 H98        24.6813  -27.5892  -44.9510 H         1 UNK         0.0839 
     99 H99        25.2655  -26.3711  -43.8262 H         1 UNK         0.0839 
    100 H100       22.2458  -30.7247  -43.5867 H         1 UNK         0.2998 
    101 H101       24.8627  -30.7627  -42.4755 H         1 UNK         0.0822 
    102 H102       25.9821  -31.5428  -44.6181 H         1 UNK         0.0787 
    103 H103       24.5498  -31.0889  -45.5298 H         1 UNK         0.0787 
    104 H104       25.5256  -29.8557  -44.7370 H         1 UNK         0.0787 
    105 H105       25.4183  -32.8738  -42.0441 H         1 UNK         0.3055 
    106 H106       25.1144  -34.9764  -41.4165 H         1 UNK         0.1106 
    107 H107       25.3805  -35.4109  -43.8743 H         1 UNK         0.0828 
    108 H108       24.3893  -36.6280  -43.0907 H         1 UNK         0.0828 
    109 H109       23.6280  -35.3806  -44.0650 H         1 UNK         0.0828 
    110 H110       23.1675  -33.0681  -40.4761 H         1 UNK         0.2931 
    111 H111       20.5746  -34.2942  -40.4154 H         1 UNK         0.0412 
    112 H112       22.4447  -35.9440  -37.2547 H         1 UNK         0.3472 
    113 H113       23.3343  -35.1862  -38.5522 H         1 UNK         0.3472 
    114 H114       19.9290  -32.4445  -38.9115 H         1 UNK         0.0970 
    115 H115       21.5979  -32.0061  -38.6751 H         1 UNK         0.0970 
    116 H116       19.3613  -32.8470  -41.9687 H         1 UNK         0.0612 
    117 H117       18.4778  -31.8438  -40.8379 H         1 UNK         0.0612 
@<TRIPOS>BOND
     1    1    2 1    
     2    1   62 1    
     3    1   63 1    
     4    1   64 1    
     5    2    3 2    
     6    2    4 am   BACKBONE|DICT|INTERRES
     7    4    5 1    
     8    4   65 1    
     9    5    6 1    
    10    5   25 1    
    11    5   66 1    
    12    6    7 1    
    13    6   67 1    
    14    6   68 1    
    15    7    8 1    
    16    8    9 1    
    17    8   69 1    
    18    8   70 1    
    19    9   10 ar   
    20    9   14 ar   
    21   10   11 ar   
    22   10   71 1    
    23   11   12 ar   
    24   11   61 1    
    25   12   13 ar   
    26   12   72 1    
    27   13   14 ar   
    28   13   15 1    
    29   14   73 1    
    30   15   16 1    
    31   15   74 1    
    32   15   75 1    
    33   16   17 1    
    34   17   18 1    
    35   17   76 1    
    36   17   77 1    
    37   18   19 1    
    38   18   27 1    
    39   18   78 1    
    40   19   20 am   BACKBONE|DICT|INTERRES
    41   19   79 1    
    42   20   21 2    
    43   20   22 1    
    44   22   23 1    
    45   22   24 1    
    46   22   80 1    
    47   23   81 1    
    48   23   82 1    
    49   23   83 1    
    50   24   25 am   BACKBONE|DICT|INTERRES
    51   24   84 1    
    52   25   26 2    
    53   27   28 2    
    54   27   29 am   BACKBONE|DICT|INTERRES
    55   29   30 1    
    56   29   85 1    
    57   30   31 1    
    58   30   32 1    
    59   30   86 1    
    60   31   87 1    
    61   31   88 1    
    62   31   89 1    
    63   32   33 2    
    64   32   34 am   BACKBONE|DICT|INTERRES
    65   34   35 1    
    66   34   90 1    
    67   35   36 1    
    68   35   37 1    
    69   35   91 1    
    70   36   92 1    
    71   36   93 1    
    72   36   94 1    
    73   37   38 2    
    74   37   39 am   BACKBONE|DICT|INTERRES
    75   39   40 1    
    76   39   95 1    
    77   40   41 1    
    78   40   42 1    
    79   40   96 1    
    80   41   97 1    
    81   41   98 1    
    82   41   99 1    
    83   42   43 2    
    84   42   44 am   BACKBONE|DICT|INTERRES
    85   44   45 1    
    86   44  100 1    
    87   45   46 1    
    88   45   47 1    
    89   45  101 1    
    90   46  102 1    
    91   46  103 1    
    92   46  104 1    
    93   47   48 2    
    94   47   49 am   BACKBONE|DICT|INTERRES
    95   49   50 1    
    96   49  105 1    
    97   50   51 1    
    98   50   52 1    
    99   50  106 1    
   100   51  107 1    
   101   51  108 1    
   102   51  109 1    
   103   52   53 2    
   104   52   54 am   BACKBONE|DICT|INTERRES
   105   54   55 1    
   106   54  110 1    
   107   55   56 1    
   108   55   59 1    
   109   55  111 1    
   110   56   57 am   BACKBONE|DICT|INTERRES
   111   56   58 2    
   112   57  112 1    
   113   57  113 1    
   114   59   60 1    
   115   59  114 1    
   116   59  115 1    
   117   60   61 1    
   118   61  116 1    
   119   61  117 1    
@<TRIPOS>SUBSTRUCTURE
     1 UNK         1 GROUP             0       ****    0 ROOT    
