@<TRIPOS>MOLECULE
3R8
117   119    1
SMALL
USER_CHARGES


@<TRIPOS>ATOM
      1 CA         17.5128  -24.0879  -39.8245 C.3       0 UNK        -0.2013 
      2 C          17.1458  -24.3969  -41.2681 C.2       0 UNK         0.4866 
      3 O          16.4059  -23.6348  -41.8901 O.2       0 UNK        -0.5176 
      4 N          17.6596  -25.5111  -41.8055 N.am      1 UNK        -0.4884 
      5 CA         17.3842  -26.0006  -43.1649 C.3       1 UNK         0.0853 
      6 C6         17.8251  -27.4739  -43.3610 C.3       10 UNK        -0.0849 
      7 S7         17.3089  -28.6215  -42.0343 S.3       10 UNK        -0.2776 
      8 C8         17.1536  -30.1987  -42.9412 C.3       10 UNK         0.0316 
      9 C9         18.4426  -30.5561  -43.6685 C.ar      10 UNK        -0.0863 
     10 C10        19.4949  -31.1792  -42.9911 C.ar      10 UNK        -0.1009 
     11 C11        20.7040  -31.4371  -43.6465 C.ar      10 UNK        -0.0712 
     12 C12        20.8567  -31.0626  -44.9847 C.ar      10 UNK        -0.0894 
     13 C13        19.8080  -30.4445  -45.6713 C.ar      10 UNK        -0.0745 
     14 C14        18.5960  -30.2214  -45.0166 C.ar      10 UNK        -0.0972 
     15 C15        19.9935  -29.9655  -47.1034 C.3       10 UNK         0.0209 
     16 S16        20.0832  -28.1455  -47.1898 S.3       10 UNK        -0.2568 
     17 C17        21.5730  -27.8299  -46.1900 C.3       10 UNK        -0.0983 
     18 CA         21.9936  -26.3386  -46.1822 C.3       3 UNK         0.0876 
     19 N          20.9637  -25.5007  -45.5612 N.am      3 UNK        -0.4424 
     20 C          20.8563  -24.1738  -45.6914 C.2       2 UNK         0.4918 
     21 O          21.5435  -23.5131  -46.4721 O.2       2 UNK        -0.4875 
     22 CA         19.8513  -23.4458  -44.7715 C.3       2 UNK         0.0481 
     23 CB         18.9815  -22.4333  -45.5461 C.3       2 UNK        -0.1831 
     24 N          19.0357  -24.3275  -43.9186 N.am      2 UNK        -0.4498 
     25 C          18.0199  -25.1314  -44.2765 C.2       1 UNK         0.5027 
     26 O          17.6054  -25.2407  -45.4301 O.2       1 UNK        -0.4969 
     27 C          23.3380  -26.1893  -45.4375 C.2       3 UNK         0.5005 
     28 O          23.3755  -25.7019  -44.3032 O.2       3 UNK        -0.5279 
     29 N          24.4193  -26.6836  -46.0560 N.am      4 UNK        -0.4463 
     30 CA         25.6963  -26.9246  -45.3811 C.3       4 UNK         0.0283 
     31 CB         26.7744  -27.2741  -46.4200 C.3       4 UNK        -0.1875 
     32 C          25.5290  -28.0592  -44.3548 C.2       4 UNK         0.4949 
     33 O          25.0731  -29.1414  -44.7296 O.2       4 UNK        -0.5039 
     34 N          25.8655  -27.7722  -43.0892 N.am      5 UNK        -0.4663 
     35 CA         25.6713  -28.6326  -41.9119 C.3       5 UNK         0.0242 
     36 CB         26.5681  -29.8879  -41.9879 C.3       5 UNK        -0.1982 
     37 C          24.1872  -28.9680  -41.6462 C.2       5 UNK         0.5017 
     38 O          23.8715  -30.0996  -41.2748 O.2       5 UNK        -0.5012 
     39 N          23.3066  -27.9734  -41.8434 N.am      6 UNK        -0.4439 
     40 CA         21.8568  -28.0454  -41.6309 C.3       6 UNK         0.0297 
     41 CB         21.2442  -26.6537  -41.8514 C.3       6 UNK        -0.2006 
     42 C          21.4531  -28.5610  -40.2387 C.2       6 UNK         0.4892 
     43 O          22.1242  -28.2586  -39.2503 O.2       6 UNK        -0.5089 
     44 N          20.3441  -29.3116  -40.2058 N.am      7 UNK        -0.4243 
     45 CA         19.6839  -29.9190  -39.0405 C.3       7 UNK         0.0196 
     46 CB         19.2298  -28.8390  -38.0368 C.3       7 UNK        -0.2007 
     47 C          20.4628  -31.0531  -38.3397 C.2       7 UNK         0.5020 
     48 O          19.8831  -31.7174  -37.4806 O.2       7 UNK        -0.5147 
     49 N          21.7279  -31.2959  -38.7128 N.am      8 UNK        -0.4734 
     50 CA         22.5499  -32.3924  -38.1828 C.3       8 UNK         0.0238 
     51 CB         24.0333  -32.0769  -38.4344 C.3       8 UNK        -0.1912 
     52 C          22.1865  -33.7640  -38.7822 C.2       8 UNK         0.5038 
     53 O          22.5016  -34.7903  -38.1787 O.2       8 UNK        -0.5046 
     54 N          21.5530  -33.7502  -39.9603 N.am      9 UNK        -0.4200 
     55 CA         21.0746  -34.9188  -40.7073 C.3       9 UNK         0.0839 
     56 C          19.9335  -35.6607  -39.9617 C.2       9 UNK         0.5513 
     57 N          19.9467  -36.9864  -39.9672 N.am      9 UNK        -0.7519 
     58 O          19.0153  -35.0457  -39.4238 O.2       9 UNK        -0.4960 
     59 C59        20.6209  -34.5160  -42.1350 C.3       10 UNK        -0.0876 
     60 S60        21.9880  -33.8639  -43.1561 S.3       10 UNK        -0.2414 
     61 C61        21.8718  -32.0637  -42.9015 C.3       10 UNK         0.0169 
     62 H62        18.1776  -24.8409  -39.4011 H         1 UNK         0.0903 
     63 H63        18.0123  -23.1214  -39.7628 H         1 UNK         0.0903 
     64 H64        16.6137  -24.0464  -39.2102 H         1 UNK         0.0903 
     65 H65        18.2056  -26.1317  -41.2258 H         1 UNK         0.3096 
     66 H66        16.3025  -25.9533  -43.3116 H         1 UNK         0.1121 
     67 H67        18.9090  -27.5549  -43.4607 H         1 UNK         0.0849 
     68 H68        17.4097  -27.8310  -44.3041 H         1 UNK         0.0849 
     69 H69        16.8920  -30.9912  -42.2384 H         1 UNK         0.0865 
     70 H70        16.3225  -30.1307  -43.6451 H         1 UNK         0.0865 
     71 H71        19.3755  -31.4468  -41.9508 H         1 UNK         0.1346 
     72 H72        21.8014  -31.2330  -45.4831 H         1 UNK         0.1412 
     73 H73        17.7893  -29.7379  -45.5504 H         1 UNK         0.1426 
     74 H74        19.1572  -30.3107  -47.7129 H         1 UNK         0.0716 
     75 H75        20.8946  -30.3938  -47.5450 H         1 UNK         0.0716 
     76 H76        21.3918  -28.1757  -45.1701 H         1 UNK         0.0695 
     77 H77        22.3704  -28.4606  -46.5882 H         1 UNK         0.0695 
     78 H78        22.1406  -26.0041  -47.2117 H         1 UNK         0.0983 
     79 H79        20.3560  -25.9614  -44.9049 H         1 UNK         0.3095 
     80 H80        20.4641  -22.8704  -44.0763 H         1 UNK         0.0454 
     81 H81        19.6003  -21.6714  -46.0216 H         1 UNK         0.0851 
     82 H82        18.2871  -21.9166  -44.8837 H         1 UNK         0.0851 
     83 H83        18.4018  -22.9121  -46.3353 H         1 UNK         0.0851 
     84 H84        19.2801  -24.3203  -42.9380 H         1 UNK         0.2976 
     85 H85        24.3118  -27.0975  -46.9711 H         1 UNK         0.3116 
     86 H86        25.9972  -26.0080  -44.8687 H         1 UNK         0.0646 
     87 H87        26.5262  -28.1806  -46.9737 H         1 UNK         0.0847 
     88 H88        27.7381  -27.4424  -45.9374 H         1 UNK         0.0847 
     89 H89        26.9101  -26.4667  -47.1398 H         1 UNK         0.0847 
     90 H90        26.2216  -26.8456  -42.8949 H         1 UNK         0.3040 
     91 H91        26.0003  -28.0516  -41.0487 H         1 UNK         0.1015 
     92 H92        26.2569  -30.5619  -42.7867 H         1 UNK         0.0786 
     93 H93        26.5274  -30.4529  -41.0556 H         1 UNK         0.0786 
     94 H94        27.6111  -29.6220  -42.1590 H         1 UNK         0.0786 
     95 H95        23.6618  -27.0906  -42.1848 H         1 UNK         0.3172 
     96 H96        21.4554  -28.7274  -42.3836 H         1 UNK         0.0595 
     97 H97        21.7352  -25.8957  -41.2395 H         1 UNK         0.0839 
     98 H98        20.1882  -26.6439  -41.5871 H         1 UNK         0.0839 
     99 H99        21.3182  -26.3467  -42.8917 H         1 UNK         0.0839 
    100 H100       19.8674  -29.4657  -41.0839 H         1 UNK         0.2998 
    101 H101       18.7811  -30.3880  -39.4355 H         1 UNK         0.0822 
    102 H102       18.6199  -29.2745  -37.2442 H         1 UNK         0.0787 
    103 H103       20.0757  -28.3458  -37.5573 H         1 UNK         0.0787 
    104 H104       18.6255  -28.0741  -38.5246 H         1 UNK         0.0787 
    105 H105       22.1663  -30.6753  -39.3820 H         1 UNK         0.3055 
    106 H106       22.3921  -32.4556  -37.1036 H         1 UNK         0.1106 
    107 H107       24.3144  -31.1131  -38.0092 H         1 UNK         0.0828 
    108 H108       24.6747  -32.8321  -37.9780 H         1 UNK         0.0828 
    109 H109       24.2667  -32.0550  -39.4994 H         1 UNK         0.0828 
    110 H110       21.3285  -32.8514  -40.3535 H         1 UNK         0.2931 
    111 H111       21.9194  -35.6046  -40.8011 H         1 UNK         0.0412 
    112 H112       20.6909  -37.4986  -40.4160 H         1 UNK         0.3472 
    113 H113       19.2042  -37.4867  -39.5032 H         1 UNK         0.3472 
    114 H114       19.7992  -33.8008  -42.0986 H         1 UNK         0.0970 
    115 H115       20.2260  -35.3880  -42.6601 H         1 UNK         0.0970 
    116 H116       22.8014  -31.6123  -43.2518 H         1 UNK         0.0612 
    117 H117       21.8141  -31.8318  -41.8390 H         1 UNK         0.0612 
@<TRIPOS>BOND
     1    1    2 1    
     2    1   62 1    
     3    1   63 1    
     4    1   64 1    
     5    2    3 2    
     6    2    4 am   BACKBONE|DICT|INTERRES
     7    4    5 1    
     8    4   65 1    
     9    5    6 1    
    10    5   25 1    
    11    5   66 1    
    12    6    7 1    
    13    6   67 1    
    14    6   68 1    
    15    7    8 1    
    16    8    9 1    
    17    8   69 1    
    18    8   70 1    
    19    9   10 ar   
    20    9   14 ar   
    21   10   11 ar   
    22   10   71 1    
    23   11   12 ar   
    24   11   61 1    
    25   12   13 ar   
    26   12   72 1    
    27   13   14 ar   
    28   13   15 1    
    29   14   73 1    
    30   15   16 1    
    31   15   74 1    
    32   15   75 1    
    33   16   17 1    
    34   17   18 1    
    35   17   76 1    
    36   17   77 1    
    37   18   19 1    
    38   18   27 1    
    39   18   78 1    
    40   19   20 am   BACKBONE|DICT|INTERRES
    41   19   79 1    
    42   20   21 2    
    43   20   22 1    
    44   22   23 1    
    45   22   24 1    
    46   22   80 1    
    47   23   81 1    
    48   23   82 1    
    49   23   83 1    
    50   24   25 am   BACKBONE|DICT|INTERRES
    51   24   84 1    
    52   25   26 2    
    53   27   28 2    
    54   27   29 am   BACKBONE|DICT|INTERRES
    55   29   30 1    
    56   29   85 1    
    57   30   31 1    
    58   30   32 1    
    59   30   86 1    
    60   31   87 1    
    61   31   88 1    
    62   31   89 1    
    63   32   33 2    
    64   32   34 am   BACKBONE|DICT|INTERRES
    65   34   35 1    
    66   34   90 1    
    67   35   36 1    
    68   35   37 1    
    69   35   91 1    
    70   36   92 1    
    71   36   93 1    
    72   36   94 1    
    73   37   38 2    
    74   37   39 am   BACKBONE|DICT|INTERRES
    75   39   40 1    
    76   39   95 1    
    77   40   41 1    
    78   40   42 1    
    79   40   96 1    
    80   41   97 1    
    81   41   98 1    
    82   41   99 1    
    83   42   43 2    
    84   42   44 am   BACKBONE|DICT|INTERRES
    85   44   45 1    
    86   44  100 1    
    87   45   46 1    
    88   45   47 1    
    89   45  101 1    
    90   46  102 1    
    91   46  103 1    
    92   46  104 1    
    93   47   48 2    
    94   47   49 am   BACKBONE|DICT|INTERRES
    95   49   50 1    
    96   49  105 1    
    97   50   51 1    
    98   50   52 1    
    99   50  106 1    
   100   51  107 1    
   101   51  108 1    
   102   51  109 1    
   103   52   53 2    
   104   52   54 am   BACKBONE|DICT|INTERRES
   105   54   55 1    
   106   54  110 1    
   107   55   56 1    
   108   55   59 1    
   109   55  111 1    
   110   56   57 am   BACKBONE|DICT|INTERRES
   111   56   58 2    
   112   57  112 1    
   113   57  113 1    
   114   59   60 1    
   115   59  114 1    
   116   59  115 1    
   117   60   61 1    
   118   61  116 1    
   119   61  117 1    
@<TRIPOS>SUBSTRUCTURE
     1 UNK         1 GROUP             0       ****    0 ROOT    
