@<TRIPOS>MOLECULE
3R8
117   119    1
SMALL
USER_CHARGES


@<TRIPOS>ATOM
      1 CA         13.3001  -24.9370  -42.7074 C.3       0 UNK        -0.2013 
      2 C          14.2251  -25.3679  -43.8356 C.2       0 UNK         0.4866 
      3 O          14.0722  -24.9014  -44.9646 O.2       0 UNK        -0.5176 
      4 N          15.1835  -26.2561  -43.5395 N.am      1 UNK        -0.4884 
      5 CA         16.1551  -26.7948  -44.5031 C.3       1 UNK         0.0853 
      6 C6         16.8763  -28.0476  -43.9543 C.3       10 UNK        -0.0849 
      7 S7         15.7389  -29.4086  -43.5218 S.3       10 UNK        -0.2776 
      8 C8         16.8052  -30.4370  -42.4582 C.3       10 UNK         0.0316 
      9 C9         18.0103  -30.9650  -43.2230 C.ar      10 UNK        -0.0863 
     10 C10        17.9227  -32.1555  -43.9505 C.ar      10 UNK        -0.1009 
     11 C11        19.0180  -32.6151  -44.6890 C.ar      10 UNK        -0.0712 
     12 C12        20.2002  -31.8684  -44.7068 C.ar      10 UNK        -0.0894 
     13 C13        20.2988  -30.6774  -43.9821 C.ar      10 UNK        -0.0745 
     14 C14        19.2072  -30.2435  -43.2258 C.ar      10 UNK        -0.0972 
     15 C15        21.5847  -29.8647  -44.0036 C.3       10 UNK         0.0209 
     16 S16        21.3144  -28.2100  -44.7204 S.3       10 UNK        -0.2568 
     17 C17        21.7240  -27.1594  -43.2924 C.3       10 UNK        -0.0983 
     18 CA         21.6401  -25.6503  -43.6332 C.3       3 UNK         0.0876 
     19 N          20.2545  -25.1914  -43.7706 N.am      3 UNK        -0.4424 
     20 C          19.8890  -24.0664  -44.3995 C.2       2 UNK         0.4918 
     21 O          20.6742  -23.3604  -45.0354 O.2       2 UNK        -0.4875 
     22 CA         18.4096  -23.6411  -44.2727 C.3       2 UNK         0.0481 
     23 CB         17.9516  -22.7229  -45.4263 C.3       2 UNK        -0.1831 
     24 N          17.4726  -24.7578  -44.0865 N.am      2 UNK        -0.4498 
     25 C          17.2003  -25.7492  -44.9514 C.2       1 UNK         0.5027 
     26 O          17.7358  -25.8689  -46.0539 O.2       1 UNK        -0.4969 
     27 C          22.3724  -24.8262  -42.5557 C.2       3 UNK         0.5005 
     28 O          21.7480  -24.3519  -41.6020 O.2       3 UNK        -0.5279 
     29 N          23.6951  -24.7236  -42.7063 N.am      4 UNK        -0.4463 
     30 CA         24.6299  -24.1813  -41.7279 C.3       4 UNK         0.0283 
     31 CB         24.9244  -22.7053  -42.0428 C.3       4 UNK        -0.1875 
     32 C          25.9007  -25.0317  -41.8084 C.2       4 UNK         0.4949 
     33 O          26.2208  -25.5310  -42.8912 O.2       4 UNK        -0.5039 
     34 N          26.5843  -25.2004  -40.6688 N.am      5 UNK        -0.4663 
     35 CA         27.7945  -26.0082  -40.4314 C.3       5 UNK         0.0242 
     36 CB         28.9849  -25.5071  -41.2733 C.3       5 UNK        -0.1982 
     37 C          27.5989  -27.5297  -40.5949 C.2       5 UNK         0.5017 
     38 O          28.0461  -28.2880  -39.7334 O.2       5 UNK        -0.5012 
     39 N          26.9363  -27.9483  -41.6789 N.am      6 UNK        -0.4439 
     40 CA         26.5343  -29.3256  -41.9608 C.3       6 UNK         0.0297 
     41 CB         26.0436  -29.4139  -43.4155 C.3       6 UNK        -0.2006 
     42 C          25.4312  -29.8015  -41.0014 C.2       6 UNK         0.4892 
     43 O          24.5565  -29.0129  -40.6330 O.2       6 UNK        -0.5089 
     44 N          25.4782  -31.0909  -40.6457 N.am      7 UNK        -0.4243 
     45 CA         24.4558  -31.7643  -39.8440 C.3       7 UNK         0.0196 
     46 CB         25.0244  -33.0895  -39.3107 C.3       7 UNK        -0.2007 
     47 C          23.1831  -32.0183  -40.6678 C.2       7 UNK         0.5020 
     48 O          23.2725  -32.2724  -41.8715 O.2       7 UNK        -0.5147 
     49 N          22.0263  -31.9679  -39.9991 N.am      8 UNK        -0.4734 
     50 CA         20.7229  -32.2447  -40.6026 C.3       8 UNK         0.0238 
     51 CB         19.6266  -31.5489  -39.7788 C.3       8 UNK        -0.1912 
     52 C          20.4496  -33.7521  -40.7087 C.2       8 UNK         0.5038 
     53 O          20.9642  -34.5275  -39.8985 O.2       8 UNK        -0.5046 
     54 N          19.6091  -34.1276  -41.6802 N.am      9 UNK        -0.4200 
     55 CA         19.1543  -35.5098  -41.9079 C.3       9 UNK         0.0839 
     56 C          18.1696  -36.0583  -40.8328 C.2       9 UNK         0.5513 
     57 N          17.6014  -35.2332  -39.9611 N.am      9 UNK        -0.7519 
     58 O          17.9189  -37.2599  -40.7897 O.2       9 UNK        -0.4960 
     59 C59        18.5639  -35.6991  -43.3302 C.3       10 UNK        -0.0876 
     60 S60        19.7493  -35.2925  -44.6580 S.3       10 UNK        -0.2414 
     61 C61        18.9230  -33.9022  -45.4944 C.3       10 UNK         0.0169 
     62 H62        13.3703  -23.8603  -42.5552 H         1 UNK         0.0903 
     63 H63        12.2673  -25.1794  -42.9565 H         1 UNK         0.0903 
     64 H64        13.5460  -25.4294  -41.7668 H         1 UNK         0.0903 
     65 H65        15.2395  -26.6351  -42.6044 H         1 UNK         0.3096 
     66 H66        15.6043  -27.0890  -45.3997 H         1 UNK         0.1121 
     67 H67        17.4636  -27.7864  -43.0721 H         1 UNK         0.0849 
     68 H68        17.5823  -28.4303  -44.6950 H         1 UNK         0.0849 
     69 H69        17.1255  -29.8575  -41.5908 H         1 UNK         0.0865 
     70 H70        16.2193  -31.2700  -42.0665 H         1 UNK         0.0865 
     71 H71        16.9954  -32.7124  -43.9562 H         1 UNK         0.1346 
     72 H72        21.0434  -32.2188  -45.2866 H         1 UNK         0.1412 
     73 H73        19.2853  -29.3244  -42.6620 H         1 UNK         0.1426 
     74 H74        21.9755  -29.7894  -42.9875 H         1 UNK         0.0716 
     75 H75        22.3551  -30.3734  -44.5852 H         1 UNK         0.0716 
     76 H76        22.7341  -27.4330  -42.9779 H         1 UNK         0.0695 
     77 H77        21.0665  -27.4090  -42.4573 H         1 UNK         0.0695 
     78 H78        22.1520  -25.4799  -44.5836 H         1 UNK         0.0983 
     79 H79        19.5601  -25.6947  -43.2414 H         1 UNK         0.3095 
     80 H80        18.3527  -23.0550  -43.3545 H         1 UNK         0.0454 
     81 H81        16.9096  -22.4259  -45.3081 H         1 UNK         0.0851 
     82 H82        18.5450  -21.8084  -45.4590 H         1 UNK         0.0851 
     83 H83        18.0539  -23.2090  -46.3969 H         1 UNK         0.0851 
     84 H84        16.9660  -24.7618  -43.2118 H         1 UNK         0.2976 
     85 H85        24.1511  -25.1858  -43.4846 H         1 UNK         0.3116 
     86 H86        24.2105  -24.2671  -40.7229 H         1 UNK         0.0646 
     87 H87        24.0168  -22.1030  -41.9997 H         1 UNK         0.0847 
     88 H88        25.3598  -22.5838  -43.0355 H         1 UNK         0.0847 
     89 H89        25.6278  -22.2846  -41.3232 H         1 UNK         0.0847 
     90 H90        26.2081  -24.7612  -39.8388 H         1 UNK         0.3040 
     91 H91        28.0519  -25.8463  -39.3830 H         1 UNK         0.1015 
     92 H92        29.8975  -26.0451  -41.0128 H         1 UNK         0.0786 
     93 H93        29.1738  -24.4476  -41.1008 H         1 UNK         0.0786 
     94 H94        28.8222  -25.6488  -42.3420 H         1 UNK         0.0786 
     95 H95        26.5997  -27.2257  -42.3112 H         1 UNK         0.3172 
     96 H96        27.4110  -29.9665  -41.8449 H         1 UNK         0.0595 
     97 H97        25.1753  -28.7758  -43.5872 H         1 UNK         0.0839 
     98 H98        25.7511  -30.4340  -43.6689 H         1 UNK         0.0839 
     99 H99        26.8229  -29.1163  -44.1175 H         1 UNK         0.0839 
    100 H100       26.2040  -31.6765  -41.0327 H         1 UNK         0.2998 
    101 H101       24.2067  -31.1239  -38.9947 H         1 UNK         0.0822 
    102 H102       25.9099  -32.9241  -38.6967 H         1 UNK         0.0787 
    103 H103       24.2917  -33.6067  -38.6894 H         1 UNK         0.0787 
    104 H104       25.2977  -33.7666  -40.1213 H         1 UNK         0.0787 
    105 H105       22.0400  -31.8114  -39.0014 H         1 UNK         0.3055 
    106 H106       20.7211  -31.8319  -41.6097 H         1 UNK         0.1106 
    107 H107       19.7871  -30.4714  -39.7373 H         1 UNK         0.0828 
    108 H108       18.6421  -31.7087  -40.2197 H         1 UNK         0.0828 
    109 H109       19.5901  -31.9238  -38.7552 H         1 UNK         0.0828 
    110 H110       19.2447  -33.4335  -42.3179 H         1 UNK         0.2931 
    111 H111       20.0400  -36.1452  -41.8435 H         1 UNK         0.0412 
    112 H112       16.9688  -35.6058  -39.2702 H         1 UNK         0.3472 
    113 H113       17.8008  -34.2469  -39.9826 H         1 UNK         0.3472 
    114 H114       17.6527  -35.1105  -43.4462 H         1 UNK         0.0970 
    115 H115       18.2648  -36.7385  -43.4803 H         1 UNK         0.0970 
    116 H116       17.8828  -34.1604  -45.6989 H         1 UNK         0.0612 
    117 H117       19.3935  -33.7524  -46.4673 H         1 UNK         0.0612 
@<TRIPOS>BOND
     1    1    2 1    
     2    1   62 1    
     3    1   63 1    
     4    1   64 1    
     5    2    3 2    
     6    2    4 am   BACKBONE|DICT|INTERRES
     7    4    5 1    
     8    4   65 1    
     9    5    6 1    
    10    5   25 1    
    11    5   66 1    
    12    6    7 1    
    13    6   67 1    
    14    6   68 1    
    15    7    8 1    
    16    8    9 1    
    17    8   69 1    
    18    8   70 1    
    19    9   10 ar   
    20    9   14 ar   
    21   10   11 ar   
    22   10   71 1    
    23   11   12 ar   
    24   11   61 1    
    25   12   13 ar   
    26   12   72 1    
    27   13   14 ar   
    28   13   15 1    
    29   14   73 1    
    30   15   16 1    
    31   15   74 1    
    32   15   75 1    
    33   16   17 1    
    34   17   18 1    
    35   17   76 1    
    36   17   77 1    
    37   18   19 1    
    38   18   27 1    
    39   18   78 1    
    40   19   20 am   BACKBONE|DICT|INTERRES
    41   19   79 1    
    42   20   21 2    
    43   20   22 1    
    44   22   23 1    
    45   22   24 1    
    46   22   80 1    
    47   23   81 1    
    48   23   82 1    
    49   23   83 1    
    50   24   25 am   BACKBONE|DICT|INTERRES
    51   24   84 1    
    52   25   26 2    
    53   27   28 2    
    54   27   29 am   BACKBONE|DICT|INTERRES
    55   29   30 1    
    56   29   85 1    
    57   30   31 1    
    58   30   32 1    
    59   30   86 1    
    60   31   87 1    
    61   31   88 1    
    62   31   89 1    
    63   32   33 2    
    64   32   34 am   BACKBONE|DICT|INTERRES
    65   34   35 1    
    66   34   90 1    
    67   35   36 1    
    68   35   37 1    
    69   35   91 1    
    70   36   92 1    
    71   36   93 1    
    72   36   94 1    
    73   37   38 2    
    74   37   39 am   BACKBONE|DICT|INTERRES
    75   39   40 1    
    76   39   95 1    
    77   40   41 1    
    78   40   42 1    
    79   40   96 1    
    80   41   97 1    
    81   41   98 1    
    82   41   99 1    
    83   42   43 2    
    84   42   44 am   BACKBONE|DICT|INTERRES
    85   44   45 1    
    86   44  100 1    
    87   45   46 1    
    88   45   47 1    
    89   45  101 1    
    90   46  102 1    
    91   46  103 1    
    92   46  104 1    
    93   47   48 2    
    94   47   49 am   BACKBONE|DICT|INTERRES
    95   49   50 1    
    96   49  105 1    
    97   50   51 1    
    98   50   52 1    
    99   50  106 1    
   100   51  107 1    
   101   51  108 1    
   102   51  109 1    
   103   52   53 2    
   104   52   54 am   BACKBONE|DICT|INTERRES
   105   54   55 1    
   106   54  110 1    
   107   55   56 1    
   108   55   59 1    
   109   55  111 1    
   110   56   57 am   BACKBONE|DICT|INTERRES
   111   56   58 2    
   112   57  112 1    
   113   57  113 1    
   114   59   60 1    
   115   59  114 1    
   116   59  115 1    
   117   60   61 1    
   118   61  116 1    
   119   61  117 1    
@<TRIPOS>SUBSTRUCTURE
     1 UNK         1 GROUP             0       ****    0 ROOT    
