@<TRIPOS>MOLECULE
3R8
117   119    1
SMALL
USER_CHARGES


@<TRIPOS>ATOM
      1 CA         19.6254  -23.9551  -40.2144 C.3       0 UNK        -0.2013 
      2 C          19.1930  -23.8624  -41.6702 C.2       0 UNK         0.4866 
      3 O          19.2000  -22.7732  -42.2453 O.2       0 UNK        -0.5176 
      4 N          18.8076  -24.9974  -42.2655 N.am      1 UNK        -0.4884 
      5 CA         18.4196  -25.1291  -43.6751 C.3       1 UNK         0.0853 
      6 C6         17.7628  -26.5043  -43.9615 C.3       10 UNK        -0.0849 
      7 S7         16.3373  -26.8702  -42.8833 S.3       10 UNK        -0.2776 
      8 C8         15.4123  -28.0708  -43.8981 C.3       10 UNK         0.0316 
      9 C9         16.2613  -29.2779  -44.2760 C.ar      10 UNK        -0.0863 
     10 C10        16.6308  -30.2117  -43.3030 C.ar      10 UNK        -0.1009 
     11 C11        17.4305  -31.3085  -43.6390 C.ar      10 UNK        -0.0712 
     12 C12        17.8538  -31.4716  -44.9610 C.ar      10 UNK        -0.0894 
     13 C13        17.4956  -30.5427  -45.9420 C.ar      10 UNK        -0.0745 
     14 C14        16.6889  -29.4542  -45.5961 C.ar      10 UNK        -0.0972 
     15 C15        17.9996  -30.7088  -47.3696 C.3       10 UNK         0.0209 
     16 S16        19.0901  -29.3435  -47.8903 S.3       10 UNK        -0.2568 
     17 C17        20.4018  -29.3975  -46.6195 C.3       10 UNK        -0.0983 
     18 CA         21.4127  -28.2283  -46.7498 C.3       3 UNK         0.0876 
     19 N          20.7239  -26.9329  -46.7716 N.am      3 UNK        -0.4424 
     20 C          21.2235  -25.7699  -47.2082 C.2       2 UNK         0.4918 
     21 O          22.3270  -25.6559  -47.7408 O.2       2 UNK        -0.4875 
     22 CA         20.3625  -24.5112  -46.9665 C.3       2 UNK         0.0481 
     23 CB         19.6527  -24.0962  -48.2649 C.3       2 UNK        -0.1831 
     24 N          19.3648  -24.6438  -45.8914 N.am      2 UNK        -0.4498 
     25 C          19.6334  -24.9396  -44.6096 C.2       1 UNK         0.5027 
     26 O          20.7740  -25.1518  -44.1880 O.2       1 UNK        -0.4969 
     27 C          22.4938  -28.3239  -45.6419 C.2       3 UNK         0.5005 
     28 O          23.1579  -29.3573  -45.5537 O.2       3 UNK        -0.5279 
     29 N          22.6427  -27.2731  -44.8161 N.am      4 UNK        -0.4463 
     30 CA         23.5194  -27.1514  -43.6456 C.3       4 UNK         0.0283 
     31 CB         25.0053  -27.3744  -44.0022 C.3       4 UNK        -0.1875 
     32 C          23.0384  -28.0203  -42.4724 C.2       4 UNK         0.4949 
     33 O          23.8530  -28.6339  -41.7818 O.2       4 UNK        -0.5039 
     34 N          21.7158  -28.0558  -42.2585 N.am      5 UNK        -0.4663 
     35 CA         21.0740  -28.7870  -41.1635 C.3       5 UNK         0.0242 
     36 CB         19.5470  -28.6776  -41.2947 C.3       5 UNK        -0.1982 
     37 C          21.5450  -28.2799  -39.7887 C.2       5 UNK         0.5017 
     38 O          21.6073  -27.0655  -39.5893 O.2       5 UNK        -0.5012 
     39 N          21.8718  -29.2288  -38.9021 N.am      6 UNK        -0.4439 
     40 CA         22.5058  -29.1177  -37.5798 C.3       6 UNK         0.0297 
     41 CB         22.2011  -27.8128  -36.8156 C.3       6 UNK        -0.2006 
     42 C          24.0113  -29.4241  -37.6362 C.2       6 UNK         0.4892 
     43 O          24.5487  -29.9106  -36.6403 O.2       6 UNK        -0.5089 
     44 N          24.6543  -29.2003  -38.7921 N.am      7 UNK        -0.4243 
     45 CA         25.9488  -29.8001  -39.1277 C.3       7 UNK         0.0196 
     46 CB         26.7838  -28.8349  -39.9870 C.3       7 UNK        -0.2007 
     47 C          25.6906  -31.1321  -39.8481 C.2       7 UNK         0.5020 
     48 O          26.1951  -32.1709  -39.4214 O.2       7 UNK        -0.5147 
     49 N          24.8496  -31.0779  -40.8878 N.am      8 UNK        -0.4734 
     50 CA         24.1896  -32.2243  -41.5081 C.3       8 UNK         0.0238 
     51 CB         23.8874  -31.8703  -42.9763 C.3       8 UNK        -0.1912 
     52 C          22.8913  -32.5658  -40.7514 C.2       8 UNK         0.5038 
     53 O          22.4962  -31.8405  -39.8331 O.2       8 UNK        -0.5046 
     54 N          22.2296  -33.6466  -41.1824 N.am      9 UNK        -0.4200 
     55 CA         20.9401  -34.1431  -40.6611 C.3       9 UNK         0.0839 
     56 C          21.0397  -34.8836  -39.2932 C.2       9 UNK         0.5513 
     57 N          22.2281  -35.1983  -38.7920 N.am      9 UNK        -0.7519 
     58 O          20.0213  -35.2087  -38.6878 O.2       9 UNK        -0.4960 
     59 C59        19.7967  -33.0817  -40.6662 C.3       10 UNK        -0.0876 
     60 S60        19.6383  -32.1752  -42.2431 S.3       10 UNK        -0.2414 
     61 C61        17.8559  -32.3067  -42.5735 C.3       10 UNK         0.0169 
     62 H62        20.6487  -23.5969  -40.1045 H         1 UNK         0.0903 
     63 H63        18.9786  -23.3405  -39.5890 H         1 UNK         0.0903 
     64 H64        19.5874  -24.9789  -39.8415 H         1 UNK         0.0903 
     65 H65        18.8011  -25.8549  -41.7348 H         1 UNK         0.3096 
     66 H66        17.6972  -24.3399  -43.8958 H         1 UNK         0.1121 
     67 H67        18.4861  -27.3141  -43.8469 H         1 UNK         0.0849 
     68 H68        17.4211  -26.5484  -44.9975 H         1 UNK         0.0849 
     69 H69        14.5364  -28.4061  -43.3409 H         1 UNK         0.0865 
     70 H70        15.0314  -27.5689  -44.7890 H         1 UNK         0.0865 
     71 H71        16.3095  -30.0706  -42.2799 H         1 UNK         0.1346 
     72 H72        18.4833  -32.3131  -45.2166 H         1 UNK         0.1412 
     73 H73        16.4150  -28.7337  -46.3549 H         1 UNK         0.1426 
     74 H74        17.1455  -30.7571  -48.0464 H         1 UNK         0.0716 
     75 H75        18.5374  -31.6511  -47.4861 H         1 UNK         0.0716 
     76 H76        20.9109  -30.3598  -46.7023 H         1 UNK         0.0695 
     77 H77        19.9376  -29.3789  -45.6316 H         1 UNK         0.0695 
     78 H78        21.9368  -28.3407  -47.7014 H         1 UNK         0.0983 
     79 H79        19.7885  -26.9330  -46.3961 H         1 UNK         0.3095 
     80 H80        21.0434  -23.7076  -46.6789 H         1 UNK         0.0454 
     81 H81        19.1207  -23.1524  -48.1446 H         1 UNK         0.0851 
     82 H82        18.9346  -24.8495  -48.5917 H         1 UNK         0.0851 
     83 H83        20.3698  -23.9582  -49.0755 H         1 UNK         0.0851 
     84 H84        18.4025  -24.4952  -46.1619 H         1 UNK         0.2976 
     85 H85        22.0157  -26.4841  -44.9429 H         1 UNK         0.3116 
     86 H86        23.4212  -26.1181  -43.3094 H         1 UNK         0.0646 
     87 H87        25.2144  -28.4154  -44.2495 H         1 UNK         0.0847 
     88 H88        25.6481  -27.1110  -43.1615 H         1 UNK         0.0847 
     89 H89        25.3089  -26.7583  -44.8482 H         1 UNK         0.0847 
     90 H90        21.1240  -27.4835  -42.8416 H         1 UNK         0.3040 
     91 H91        21.3531  -29.8367  -41.2725 H         1 UNK         0.1015 
     92 H92        19.2002  -27.6524  -41.1729 H         1 UNK         0.0786 
     93 H93        19.0492  -29.2813  -40.5347 H         1 UNK         0.0786 
     94 H94        19.2045  -29.0409  -42.2637 H         1 UNK         0.0786 
     95 H95        21.8440  -30.1926  -39.2362 H         1 UNK         0.3172 
     96 H96        22.0603  -29.9280  -37.0006 H         1 UNK         0.0595 
     97 H97        22.7039  -26.9532  -37.2597 H         1 UNK         0.0839 
     98 H98        22.5466  -27.8833  -35.7836 H         1 UNK         0.0839 
     99 H99        21.1315  -27.6052  -36.7861 H         1 UNK         0.0839 
    100 H100       24.1305  -28.8077  -39.5646 H         1 UNK         0.2998 
    101 H101       26.5153  -30.0099  -38.2177 H         1 UNK         0.0822 
    102 H102       26.9647  -27.8971  -39.4616 H         1 UNK         0.0787 
    103 H103       27.7569  -29.2692  -40.2195 H         1 UNK         0.0787 
    104 H104       26.3019  -28.5970  -40.9348 H         1 UNK         0.0787 
    105 H105       24.4917  -30.1661  -41.1706 H         1 UNK         0.3055 
    106 H106       24.8534  -33.0909  -41.4739 H         1 UNK         0.1106 
    107 H107       23.4994  -32.7299  -43.5233 H         1 UNK         0.0828 
    108 H108       23.1449  -31.0748  -43.0568 H         1 UNK         0.0828 
    109 H109       24.7843  -31.5373  -43.4989 H         1 UNK         0.0828 
    110 H110       22.6218  -34.1870  -41.9395 H         1 UNK         0.2931 
    111 H111       20.6439  -34.9193  -41.3675 H         1 UNK         0.0412 
    112 H112       23.0726  -34.9441  -39.2785 H         1 UNK         0.3472 
    113 H113       22.2792  -35.6872  -37.9118 H         1 UNK         0.3472 
    114 H114       19.9453  -32.3501  -39.8707 H         1 UNK         0.0970 
    115 H115       18.8456  -33.5677  -40.4420 H         1 UNK         0.0970 
    116 H116       17.3024  -32.1330  -41.6493 H         1 UNK         0.0612 
    117 H117       17.6192  -33.3210  -42.8979 H         1 UNK         0.0612 
@<TRIPOS>BOND
     1    1    2 1    
     2    1   62 1    
     3    1   63 1    
     4    1   64 1    
     5    2    3 2    
     6    2    4 am   BACKBONE|DICT|INTERRES
     7    4    5 1    
     8    4   65 1    
     9    5    6 1    
    10    5   25 1    
    11    5   66 1    
    12    6    7 1    
    13    6   67 1    
    14    6   68 1    
    15    7    8 1    
    16    8    9 1    
    17    8   69 1    
    18    8   70 1    
    19    9   10 ar   
    20    9   14 ar   
    21   10   11 ar   
    22   10   71 1    
    23   11   12 ar   
    24   11   61 1    
    25   12   13 ar   
    26   12   72 1    
    27   13   14 ar   
    28   13   15 1    
    29   14   73 1    
    30   15   16 1    
    31   15   74 1    
    32   15   75 1    
    33   16   17 1    
    34   17   18 1    
    35   17   76 1    
    36   17   77 1    
    37   18   19 1    
    38   18   27 1    
    39   18   78 1    
    40   19   20 am   BACKBONE|DICT|INTERRES
    41   19   79 1    
    42   20   21 2    
    43   20   22 1    
    44   22   23 1    
    45   22   24 1    
    46   22   80 1    
    47   23   81 1    
    48   23   82 1    
    49   23   83 1    
    50   24   25 am   BACKBONE|DICT|INTERRES
    51   24   84 1    
    52   25   26 2    
    53   27   28 2    
    54   27   29 am   BACKBONE|DICT|INTERRES
    55   29   30 1    
    56   29   85 1    
    57   30   31 1    
    58   30   32 1    
    59   30   86 1    
    60   31   87 1    
    61   31   88 1    
    62   31   89 1    
    63   32   33 2    
    64   32   34 am   BACKBONE|DICT|INTERRES
    65   34   35 1    
    66   34   90 1    
    67   35   36 1    
    68   35   37 1    
    69   35   91 1    
    70   36   92 1    
    71   36   93 1    
    72   36   94 1    
    73   37   38 2    
    74   37   39 am   BACKBONE|DICT|INTERRES
    75   39   40 1    
    76   39   95 1    
    77   40   41 1    
    78   40   42 1    
    79   40   96 1    
    80   41   97 1    
    81   41   98 1    
    82   41   99 1    
    83   42   43 2    
    84   42   44 am   BACKBONE|DICT|INTERRES
    85   44   45 1    
    86   44  100 1    
    87   45   46 1    
    88   45   47 1    
    89   45  101 1    
    90   46  102 1    
    91   46  103 1    
    92   46  104 1    
    93   47   48 2    
    94   47   49 am   BACKBONE|DICT|INTERRES
    95   49   50 1    
    96   49  105 1    
    97   50   51 1    
    98   50   52 1    
    99   50  106 1    
   100   51  107 1    
   101   51  108 1    
   102   51  109 1    
   103   52   53 2    
   104   52   54 am   BACKBONE|DICT|INTERRES
   105   54   55 1    
   106   54  110 1    
   107   55   56 1    
   108   55   59 1    
   109   55  111 1    
   110   56   57 am   BACKBONE|DICT|INTERRES
   111   56   58 2    
   112   57  112 1    
   113   57  113 1    
   114   59   60 1    
   115   59  114 1    
   116   59  115 1    
   117   60   61 1    
   118   61  116 1    
   119   61  117 1    
@<TRIPOS>SUBSTRUCTURE
     1 UNK         1 GROUP             0       ****    0 ROOT    
