@<TRIPOS>MOLECULE
3R8
117   119    1
SMALL
USER_CHARGES


@<TRIPOS>ATOM
      1 CA         12.3835  -23.6119  -45.9173 C.3       0 UNK        -0.2013 
      2 C          13.5733  -24.5592  -45.8692 C.2       0 UNK         0.4866 
      3 O          13.8577  -25.2358  -46.8583 O.2       0 UNK        -0.5176 
      4 N          14.2640  -24.6208  -44.7244 N.am      1 UNK        -0.4884 
      5 CA         15.4638  -25.4376  -44.5189 C.3       1 UNK         0.0853 
      6 C6         15.8309  -25.5576  -43.0198 C.3       10 UNK        -0.0849 
      7 S7         14.6565  -26.5590  -42.0484 S.3       10 UNK        -0.2776 
      8 C8         15.3013  -28.2611  -42.2718 C.3       10 UNK         0.0316 
      9 C9         16.7436  -28.5262  -41.8219 C.ar      10 UNK        -0.0863 
     10 C10        17.3694  -29.6983  -42.2620 C.ar      10 UNK        -0.1009 
     11 C11        18.6890  -29.9878  -41.9009 C.ar      10 UNK        -0.0712 
     12 C12        19.3974  -29.0867  -41.1038 C.ar      10 UNK        -0.0894 
     13 C13        18.7990  -27.9007  -40.6766 C.ar      10 UNK        -0.0745 
     14 C14        17.4632  -27.6473  -41.0004 C.ar      10 UNK        -0.0972 
     15 C15        19.5977  -26.8679  -39.8994 C.3       10 UNK         0.0209 
     16 S16        20.1283  -25.5053  -40.9879 S.3       10 UNK        -0.2568 
     17 C17        21.6217  -26.1688  -41.8105 C.3       10 UNK        -0.0983 
     18 CA         21.3597  -26.8483  -43.1844 C.3       3 UNK         0.0876 
     19 N          20.5462  -26.0199  -44.0795 N.am      3 UNK        -0.4424 
     20 C          19.8680  -26.4825  -45.1368 C.2       2 UNK         0.4918 
     21 O          19.8358  -27.6682  -45.4706 O.2       2 UNK        -0.4875 
     22 CA         19.0150  -25.4714  -45.9079 C.3       2 UNK         0.0481 
     23 CB         19.2007  -25.5920  -47.4305 C.3       2 UNK        -0.1831 
     24 N          17.6389  -25.7737  -45.5434 N.am      2 UNK        -0.4498 
     25 C          16.6854  -24.8773  -45.2749 C.2       1 UNK         0.5027 
     26 O          16.7827  -23.6689  -45.5059 O.2       1 UNK        -0.4969 
     27 C          22.6725  -27.2251  -43.9045 C.2       3 UNK         0.5005 
     28 O          23.6336  -26.4544  -43.8618 O.2       3 UNK        -0.5279 
     29 N          22.6600  -28.3576  -44.6212 N.am      4 UNK        -0.4463 
     30 CA         23.7022  -28.7613  -45.5697 C.3       4 UNK         0.0283 
     31 CB         23.2017  -29.9516  -46.4036 C.3       4 UNK        -0.1875 
     32 C          25.0653  -29.0810  -44.9346 C.2       4 UNK         0.4949 
     33 O          26.0911  -28.7808  -45.5464 O.2       4 UNK        -0.5039 
     34 N          25.0631  -29.6774  -43.7364 N.am      5 UNK        -0.4663 
     35 CA         26.2685  -30.0471  -42.9961 C.3       5 UNK         0.0242 
     36 CB         26.9116  -31.3075  -43.6075 C.3       5 UNK        -0.1982 
     37 C          25.9027  -30.3045  -41.5345 C.2       5 UNK         0.5017 
     38 O          24.9502  -31.0463  -41.2849 O.2       5 UNK        -0.5012 
     39 N          26.6620  -29.7079  -40.6028 N.am      6 UNK        -0.4439 
     40 CA         26.6651  -29.9469  -39.1467 C.3       6 UNK         0.0297 
     41 CB         27.3058  -31.3220  -38.8604 C.3       6 UNK        -0.2006 
     42 C          25.3058  -29.8047  -38.4230 C.2       6 UNK         0.4892 
     43 O          25.1665  -30.3012  -37.3044 O.2       6 UNK        -0.5089 
     44 N          24.3236  -29.1713  -39.0823 N.am      7 UNK        -0.4243 
     45 CA         22.8949  -29.1402  -38.7386 C.3       7 UNK         0.0196 
     46 CB         22.6489  -28.3340  -37.4457 C.3       7 UNK        -0.2007 
     47 C          22.2288  -30.5366  -38.7128 C.2       7 UNK         0.5020 
     48 O          21.1888  -30.7013  -38.0747 O.2       7 UNK        -0.5147 
     49 N          22.8270  -31.5084  -39.4145 N.am      8 UNK        -0.4734 
     50 CA         22.3799  -32.9009  -39.5042 C.3       8 UNK         0.0238 
     51 CB         23.4484  -33.8056  -38.8682 C.3       8 UNK        -0.1912 
     52 C          22.1152  -33.3310  -40.9554 C.2       8 UNK         0.5038 
     53 O          21.3139  -34.2415  -41.1668 O.2       8 UNK        -0.5046 
     54 N          22.7727  -32.6711  -41.9198 N.am      9 UNK        -0.4200 
     55 CA         22.6724  -32.9004  -43.3713 C.3       9 UNK         0.0839 
     56 C          23.2711  -34.2569  -43.8521 C.2       9 UNK         0.5513 
     57 N          24.1238  -34.9124  -43.0736 N.am      9 UNK        -0.7519 
     58 O          22.9878  -34.7096  -44.9583 O.2       9 UNK        -0.4960 
     59 C59        21.2510  -32.6257  -43.9451 C.3       10 UNK        -0.0876 
     60 S60        20.6546  -30.9350  -43.5989 S.3       10 UNK        -0.2414 
     61 C61        19.3560  -31.2703  -42.3694 C.3       10 UNK         0.0169 
     62 H62        11.4719  -24.1653  -46.1411 H         1 UNK         0.0903 
     63 H63        12.2392  -23.0895  -44.9717 H         1 UNK         0.0903 
     64 H64        12.5299  -22.8658  -46.6978 H         1 UNK         0.0903 
     65 H65        13.9934  -24.0371  -43.9457 H         1 UNK         0.3096 
     66 H66        15.2593  -26.4359  -44.9130 H         1 UNK         0.1121 
     67 H67        16.8288  -25.9794  -42.9018 H         1 UNK         0.0849 
     68 H68        15.8866  -24.5670  -42.5639 H         1 UNK         0.0849 
     69 H69        14.6457  -28.9436  -41.7293 H         1 UNK         0.0865 
     70 H70        15.2023  -28.5215  -43.3267 H         1 UNK         0.0865 
     71 H71        16.8260  -30.3906  -42.8909 H         1 UNK         0.1346 
     72 H72        20.4246  -29.2996  -40.8459 H         1 UNK         0.1412 
     73 H73        17.0079  -26.7350  -40.6422 H         1 UNK         0.1426 
     74 H74        20.4596  -27.3177  -39.4082 H         1 UNK         0.0716 
     75 H75        18.9761  -26.4574  -39.1022 H         1 UNK         0.0716 
     76 H76        22.3032  -25.3242  -41.9288 H         1 UNK         0.0695 
     77 H77        22.1253  -26.8614  -41.1359 H         1 UNK         0.0695 
     78 H78        20.8080  -27.7697  -42.9936 H         1 UNK         0.0983 
     79 H79        20.5075  -25.0363  -43.8559 H         1 UNK         0.3095 
     80 H80        19.2840  -24.4604  -45.5935 H         1 UNK         0.0454 
     81 H81        20.2382  -25.4078  -47.7114 H         1 UNK         0.0851 
     82 H82        18.9337  -26.5844  -47.7961 H         1 UNK         0.0851 
     83 H83        18.5855  -24.8652  -47.9609 H         1 UNK         0.0851 
     84 H84        17.4808  -26.7447  -45.3055 H         1 UNK         0.2976 
     85 H85        21.8053  -28.9016  -44.6353 H         1 UNK         0.3116 
     86 H86        23.8564  -27.9223  -46.2518 H         1 UNK         0.0646 
     87 H87        23.9424  -30.2448  -47.1489 H         1 UNK         0.0847 
     88 H88        22.2854  -29.7035  -46.9397 H         1 UNK         0.0847 
     89 H89        23.0010  -30.8256  -45.7849 H         1 UNK         0.0847 
     90 H90        24.1838  -29.8762  -43.2792 H         1 UNK         0.3040 
     91 H91        26.9809  -29.2204  -43.0461 H         1 UNK         0.1015 
     92 H92        27.2436  -31.1339  -44.6310 H         1 UNK         0.0786 
     93 H93        26.2159  -32.1478  -43.6204 H         1 UNK         0.0786 
     94 H94        27.7870  -31.6173  -43.0349 H         1 UNK         0.0786 
     95 H95        27.3878  -29.0817  -40.9256 H         1 UNK         0.3172 
     96 H96        27.3127  -29.1823  -38.7152 H         1 UNK         0.0595 
     97 H97        28.2824  -31.4131  -39.3359 H         1 UNK         0.0839 
     98 H98        26.6801  -32.1393  -39.2212 H         1 UNK         0.0839 
     99 H99        27.4569  -31.4756  -37.7911 H         1 UNK         0.0839 
    100 H100       24.5609  -28.7977  -39.9902 H         1 UNK         0.2998 
    101 H101       22.4124  -28.6054  -39.5550 H         1 UNK         0.0822 
    102 H102       23.1019  -27.3444  -37.5035 H         1 UNK         0.0787 
    103 H103       21.5824  -28.1902  -37.2685 H         1 UNK         0.0787 
    104 H104       23.0556  -28.8394  -36.5695 H         1 UNK         0.0787 
    105 H105       23.6739  -31.2747  -39.9258 H         1 UNK         0.3055 
    106 H106       21.4435  -33.0349  -38.9580 H         1 UNK         0.1106 
    107 H107       24.4098  -33.7135  -39.3751 H         1 UNK         0.0828 
    108 H108       23.6008  -33.5561  -37.8180 H         1 UNK         0.0828 
    109 H109       23.1518  -34.8545  -38.9128 H         1 UNK         0.0828 
    110 H110       23.4757  -31.9907  -41.6461 H         1 UNK         0.2931 
    111 H111       23.3365  -32.1549  -43.8086 H         1 UNK         0.0412 
    112 H112       24.5160  -35.7839  -43.3940 H         1 UNK         0.3472 
    113 H113       24.3777  -34.5445  -42.1711 H         1 UNK         0.3472 
    114 H114       20.5361  -33.3610  -43.5731 H         1 UNK         0.0970 
    115 H115       21.2530  -32.7414  -45.0303 H         1 UNK         0.0970 
    116 H116       19.7858  -31.7797  -41.5075 H         1 UNK         0.0612 
    117 H117       18.6213  -31.9521  -42.8004 H         1 UNK         0.0612 
@<TRIPOS>BOND
     1    1    2 1    
     2    1   62 1    
     3    1   63 1    
     4    1   64 1    
     5    2    3 2    
     6    2    4 am   BACKBONE|DICT|INTERRES
     7    4    5 1    
     8    4   65 1    
     9    5    6 1    
    10    5   25 1    
    11    5   66 1    
    12    6    7 1    
    13    6   67 1    
    14    6   68 1    
    15    7    8 1    
    16    8    9 1    
    17    8   69 1    
    18    8   70 1    
    19    9   10 ar   
    20    9   14 ar   
    21   10   11 ar   
    22   10   71 1    
    23   11   12 ar   
    24   11   61 1    
    25   12   13 ar   
    26   12   72 1    
    27   13   14 ar   
    28   13   15 1    
    29   14   73 1    
    30   15   16 1    
    31   15   74 1    
    32   15   75 1    
    33   16   17 1    
    34   17   18 1    
    35   17   76 1    
    36   17   77 1    
    37   18   19 1    
    38   18   27 1    
    39   18   78 1    
    40   19   20 am   BACKBONE|DICT|INTERRES
    41   19   79 1    
    42   20   21 2    
    43   20   22 1    
    44   22   23 1    
    45   22   24 1    
    46   22   80 1    
    47   23   81 1    
    48   23   82 1    
    49   23   83 1    
    50   24   25 am   BACKBONE|DICT|INTERRES
    51   24   84 1    
    52   25   26 2    
    53   27   28 2    
    54   27   29 am   BACKBONE|DICT|INTERRES
    55   29   30 1    
    56   29   85 1    
    57   30   31 1    
    58   30   32 1    
    59   30   86 1    
    60   31   87 1    
    61   31   88 1    
    62   31   89 1    
    63   32   33 2    
    64   32   34 am   BACKBONE|DICT|INTERRES
    65   34   35 1    
    66   34   90 1    
    67   35   36 1    
    68   35   37 1    
    69   35   91 1    
    70   36   92 1    
    71   36   93 1    
    72   36   94 1    
    73   37   38 2    
    74   37   39 am   BACKBONE|DICT|INTERRES
    75   39   40 1    
    76   39   95 1    
    77   40   41 1    
    78   40   42 1    
    79   40   96 1    
    80   41   97 1    
    81   41   98 1    
    82   41   99 1    
    83   42   43 2    
    84   42   44 am   BACKBONE|DICT|INTERRES
    85   44   45 1    
    86   44  100 1    
    87   45   46 1    
    88   45   47 1    
    89   45  101 1    
    90   46  102 1    
    91   46  103 1    
    92   46  104 1    
    93   47   48 2    
    94   47   49 am   BACKBONE|DICT|INTERRES
    95   49   50 1    
    96   49  105 1    
    97   50   51 1    
    98   50   52 1    
    99   50  106 1    
   100   51  107 1    
   101   51  108 1    
   102   51  109 1    
   103   52   53 2    
   104   52   54 am   BACKBONE|DICT|INTERRES
   105   54   55 1    
   106   54  110 1    
   107   55   56 1    
   108   55   59 1    
   109   55  111 1    
   110   56   57 am   BACKBONE|DICT|INTERRES
   111   56   58 2    
   112   57  112 1    
   113   57  113 1    
   114   59   60 1    
   115   59  114 1    
   116   59  115 1    
   117   60   61 1    
   118   61  116 1    
   119   61  117 1    
@<TRIPOS>SUBSTRUCTURE
     1 UNK         1 GROUP             0       ****    0 ROOT    
