@<TRIPOS>MOLECULE
3R8
117   119    1
SMALL
USER_CHARGES


@<TRIPOS>ATOM
      1 CA         19.8038  -29.0916  -41.6719 C.3       0 UNK        -0.2013 
      2 C          19.0021  -27.8024  -41.6007 C.2       0 UNK         0.4866 
      3 O          18.5416  -27.4242  -40.5233 O.2       0 UNK        -0.5176 
      4 N          18.8550  -27.1189  -42.7405 N.am      1 UNK        -0.4884 
      5 CA         18.1897  -25.8173  -42.8587 C.3       1 UNK         0.0853 
      6 C6         16.8438  -25.8869  -43.6352 C.3       10 UNK        -0.0849 
      7 S7         15.6006  -26.9898  -42.8728 S.3       10 UNK        -0.2776 
      8 C8         15.2434  -28.1735  -44.2149 C.3       10 UNK         0.0316 
      9 C9         16.3677  -29.1829  -44.3930 C.ar      10 UNK        -0.0863 
     10 C10        16.3896  -30.3567  -43.6332 C.ar      10 UNK        -0.1009 
     11 C11        17.4460  -31.2648  -43.7599 C.ar      10 UNK        -0.0712 
     12 C12        18.4806  -30.9973  -44.6623 C.ar      10 UNK        -0.0894 
     13 C13        18.4680  -29.8244  -45.4218 C.ar      10 UNK        -0.0745 
     14 C14        17.3996  -28.9340  -45.3012 C.ar      10 UNK        -0.0972 
     15 C15        19.6376  -29.4748  -46.3222 C.3       10 UNK         0.0209 
     16 S16        20.8568  -28.5187  -45.3743 S.3       10 UNK        -0.2568 
     17 C17        21.4031  -27.2931  -46.6128 C.3       10 UNK        -0.0983 
     18 CA         22.5891  -26.4181  -46.1201 C.3       3 UNK         0.0876 
     19 N          22.2229  -25.6993  -44.8999 N.am      3 UNK        -0.4424 
     20 C          22.0276  -24.3850  -44.7775 C.2       2 UNK         0.4918 
     21 O          22.1853  -23.5711  -45.6896 O.2       2 UNK        -0.4875 
     22 CA         21.5384  -23.9303  -43.3889 C.3       2 UNK         0.0481 
     23 CB         21.2318  -22.4193  -43.3113 C.3       2 UNK        -0.1831 
     24 N          20.3994  -24.7379  -42.9242 N.am      2 UNK        -0.4498 
     25 C          19.1815  -24.8183  -43.4889 C.2       1 UNK         0.5027 
     26 O          18.8441  -24.1644  -44.4776 O.2       1 UNK        -0.4969 
     27 C          23.8829  -27.2206  -45.8653 C.2       3 UNK         0.5005 
     28 O          24.6003  -26.9418  -44.9011 O.2       3 UNK        -0.5279 
     29 N          24.1446  -28.2424  -46.6944 N.am      4 UNK        -0.4463 
     30 CA         25.2464  -29.2004  -46.5305 C.3       4 UNK         0.0283 
     31 CB         25.2892  -30.1378  -47.7477 C.3       4 UNK        -0.1875 
     32 C          25.1725  -30.0195  -45.2254 C.2       4 UNK         0.4949 
     33 O          26.2115  -30.4500  -44.7258 O.2       4 UNK        -0.5039 
     34 N          23.9586  -30.1910  -44.6819 N.am      5 UNK        -0.4663 
     35 CA         23.7038  -30.7996  -43.3730 C.3       5 UNK         0.0242 
     36 CB         22.3048  -31.4422  -43.3834 C.3       5 UNK        -0.1982 
     37 C          23.8446  -29.8036  -42.2034 C.2       5 UNK         0.5017 
     38 O          23.6498  -30.2101  -41.0581 O.2       5 UNK        -0.5012 
     39 N          24.1587  -28.5279  -42.4886 N.am      6 UNK        -0.4439 
     40 CA         24.2924  -27.4101  -41.5488 C.3       6 UNK         0.0297 
     41 CB         25.5358  -27.5890  -40.6483 C.3       6 UNK        -0.2006 
     42 C          22.9863  -27.1748  -40.7727 C.2       6 UNK         0.4892 
     43 O          22.0773  -26.5433  -41.3133 O.2       6 UNK        -0.5089 
     44 N          22.9114  -27.7128  -39.5508 N.am      7 UNK        -0.4243 
     45 CA         21.7314  -27.7144  -38.6897 C.3       7 UNK         0.0196 
     46 CB         21.8670  -26.5900  -37.6452 C.3       7 UNK        -0.2007 
     47 C          21.5085  -29.0962  -38.0438 C.2       7 UNK         0.5020 
     48 O          20.8519  -29.1692  -37.0042 O.2       7 UNK        -0.5147 
     49 N          22.0654  -30.1665  -38.6315 N.am      8 UNK        -0.4734 
     50 CA         22.0395  -31.5208  -38.0794 C.3       8 UNK         0.0238 
     51 CB         23.3958  -31.8153  -37.4110 C.3       8 UNK        -0.1912 
     52 C          21.7123  -32.5309  -39.1874 C.2       8 UNK         0.5038 
     53 O          22.6216  -33.0166  -39.8621 O.2       8 UNK        -0.5046 
     54 N          20.4184  -32.8348  -39.3500 N.am      9 UNK        -0.4200 
     55 CA         19.9052  -33.8460  -40.2940 C.3       9 UNK         0.0839 
     56 C          20.2756  -35.3180  -39.9436 C.2       9 UNK         0.5513 
     57 N          20.7182  -35.6260  -38.7301 N.am      9 UNK        -0.7519 
     58 O          20.1568  -36.1970  -40.7931 O.2       9 UNK        -0.4960 
     59 C59        18.3731  -33.7142  -40.5016 C.3       10 UNK        -0.0876 
     60 S60        17.9053  -32.0852  -41.1694 S.3       10 UNK        -0.2414 
     61 C61        17.4935  -32.5107  -42.8900 C.3       10 UNK         0.0169 
     62 H62        19.4063  -29.7448  -42.4434 H         1 UNK         0.0903 
     63 H63        20.8461  -28.8843  -41.9057 H         1 UNK         0.0903 
     64 H64        19.7661  -29.6280  -40.7243 H         1 UNK         0.0903 
     65 H65        19.2528  -27.4868  -43.5953 H         1 UNK         0.3096 
     66 H66        17.9696  -25.4173  -41.8665 H         1 UNK         0.1121 
     67 H67        16.3934  -24.8936  -43.6829 H         1 UNK         0.0849 
     68 H68        17.0144  -26.1769  -44.6713 H         1 UNK         0.0849 
     69 H69        14.3157  -28.6981  -43.9813 H         1 UNK         0.0865 
     70 H70        15.0571  -27.6346  -45.1452 H         1 UNK         0.0865 
     71 H71        15.6008  -30.5505  -42.9191 H         1 UNK         0.1346 
     72 H72        19.3154  -31.6798  -44.7447 H         1 UNK         0.1412 
     73 H73        17.3951  -28.0284  -45.8909 H         1 UNK         0.1426 
     74 H74        19.2876  -28.9012  -47.1819 H         1 UNK         0.0716 
     75 H75        20.1071  -30.3767  -46.7176 H         1 UNK         0.0716 
     76 H76        20.5528  -26.6477  -46.8398 H         1 UNK         0.0695 
     77 H77        21.6403  -27.7997  -47.5496 H         1 UNK         0.0695 
     78 H78        22.8342  -25.7029  -46.9081 H         1 UNK         0.0983 
     79 H79        22.1164  -26.2757  -44.0773 H         1 UNK         0.3095 
     80 H80        22.3569  -24.1302  -42.6958 H         1 UNK         0.0454 
     81 H81        22.1215  -21.8316  -43.5402 H         1 UNK         0.0851 
     82 H82        20.9027  -22.1323  -42.3129 H         1 UNK         0.0851 
     83 H83        20.4585  -22.1202  -44.0192 H         1 UNK         0.0851 
     84 H84        20.6149  -25.3680  -42.1563 H         1 UNK         0.2976 
     85 H85        23.5112  -28.4143  -47.4622 H         1 UNK         0.3116 
     86 H86        26.1778  -28.6308  -46.5042 H         1 UNK         0.0646 
     87 H87        25.4319  -29.5817  -48.6745 H         1 UNK         0.0847 
     88 H88        24.3726  -30.7216  -47.8418 H         1 UNK         0.0847 
     89 H89        26.1169  -30.8440  -47.6668 H         1 UNK         0.0847 
     90 H90        23.1575  -29.8038  -45.1620 H         1 UNK         0.3040 
     91 H91        24.4350  -31.5924  -43.1997 H         1 UNK         0.1015 
     92 H92        22.1018  -31.9553  -42.4423 H         1 UNK         0.0786 
     93 H93        22.2134  -32.1823  -44.1783 H         1 UNK         0.0786 
     94 H94        21.5182  -30.7022  -43.5226 H         1 UNK         0.0786 
     95 H95        24.2992  -28.2724  -43.4612 H         1 UNK         0.3172 
     96 H96        24.4542  -26.5156  -42.1523 H         1 UNK         0.0595 
     97 H97        25.6302  -26.7634  -39.9415 H         1 UNK         0.0839 
     98 H98        26.4467  -27.6014  -41.2468 H         1 UNK         0.0839 
     99 H99        25.5128  -28.5157  -40.0744 H         1 UNK         0.0839 
    100 H100       23.7025  -28.2469  -39.2185 H         1 UNK         0.2998 
    101 H101       20.8422  -27.5134  -39.2863 H         1 UNK         0.0822 
    102 H102       22.0010  -25.6201  -38.1246 H         1 UNK         0.0787 
    103 H103       20.9737  -26.5192  -37.0234 H         1 UNK         0.0787 
    104 H104       22.7169  -26.7580  -36.9829 H         1 UNK         0.0787 
    105 H105       22.5599  -30.0693  -39.5180 H         1 UNK         0.3055 
    106 H106       21.2657  -31.6120  -37.3136 H         1 UNK         0.1106 
    107 H107       23.5754  -31.1459  -36.5697 H         1 UNK         0.0828 
    108 H108       23.4299  -32.8357  -37.0272 H         1 UNK         0.0828 
    109 H109       24.2244  -31.7009  -38.1115 H         1 UNK         0.0828 
    110 H110       19.7268  -32.3760  -38.7758 H         1 UNK         0.2931 
    111 H111       20.3798  -33.6452  -41.2569 H         1 UNK         0.0412 
    112 H112       20.8159  -34.9159  -38.0228 H         1 UNK         0.3472 
    113 H113       20.9558  -36.5830  -38.5200 H         1 UNK         0.3472 
    114 H114       18.0017  -34.4914  -41.1728 H         1 UNK         0.0970 
    115 H115       17.8472  -33.8625  -39.5567 H         1 UNK         0.0970 
    116 H116       16.5298  -33.0211  -42.9181 H         1 UNK         0.0612 
    117 H117       18.2332  -33.2137  -43.2767 H         1 UNK         0.0612 
@<TRIPOS>BOND
     1    1    2 1    
     2    1   62 1    
     3    1   63 1    
     4    1   64 1    
     5    2    3 2    
     6    2    4 am   BACKBONE|DICT|INTERRES
     7    4    5 1    
     8    4   65 1    
     9    5    6 1    
    10    5   25 1    
    11    5   66 1    
    12    6    7 1    
    13    6   67 1    
    14    6   68 1    
    15    7    8 1    
    16    8    9 1    
    17    8   69 1    
    18    8   70 1    
    19    9   10 ar   
    20    9   14 ar   
    21   10   11 ar   
    22   10   71 1    
    23   11   12 ar   
    24   11   61 1    
    25   12   13 ar   
    26   12   72 1    
    27   13   14 ar   
    28   13   15 1    
    29   14   73 1    
    30   15   16 1    
    31   15   74 1    
    32   15   75 1    
    33   16   17 1    
    34   17   18 1    
    35   17   76 1    
    36   17   77 1    
    37   18   19 1    
    38   18   27 1    
    39   18   78 1    
    40   19   20 am   BACKBONE|DICT|INTERRES
    41   19   79 1    
    42   20   21 2    
    43   20   22 1    
    44   22   23 1    
    45   22   24 1    
    46   22   80 1    
    47   23   81 1    
    48   23   82 1    
    49   23   83 1    
    50   24   25 am   BACKBONE|DICT|INTERRES
    51   24   84 1    
    52   25   26 2    
    53   27   28 2    
    54   27   29 am   BACKBONE|DICT|INTERRES
    55   29   30 1    
    56   29   85 1    
    57   30   31 1    
    58   30   32 1    
    59   30   86 1    
    60   31   87 1    
    61   31   88 1    
    62   31   89 1    
    63   32   33 2    
    64   32   34 am   BACKBONE|DICT|INTERRES
    65   34   35 1    
    66   34   90 1    
    67   35   36 1    
    68   35   37 1    
    69   35   91 1    
    70   36   92 1    
    71   36   93 1    
    72   36   94 1    
    73   37   38 2    
    74   37   39 am   BACKBONE|DICT|INTERRES
    75   39   40 1    
    76   39   95 1    
    77   40   41 1    
    78   40   42 1    
    79   40   96 1    
    80   41   97 1    
    81   41   98 1    
    82   41   99 1    
    83   42   43 2    
    84   42   44 am   BACKBONE|DICT|INTERRES
    85   44   45 1    
    86   44  100 1    
    87   45   46 1    
    88   45   47 1    
    89   45  101 1    
    90   46  102 1    
    91   46  103 1    
    92   46  104 1    
    93   47   48 2    
    94   47   49 am   BACKBONE|DICT|INTERRES
    95   49   50 1    
    96   49  105 1    
    97   50   51 1    
    98   50   52 1    
    99   50  106 1    
   100   51  107 1    
   101   51  108 1    
   102   51  109 1    
   103   52   53 2    
   104   52   54 am   BACKBONE|DICT|INTERRES
   105   54   55 1    
   106   54  110 1    
   107   55   56 1    
   108   55   59 1    
   109   55  111 1    
   110   56   57 am   BACKBONE|DICT|INTERRES
   111   56   58 2    
   112   57  112 1    
   113   57  113 1    
   114   59   60 1    
   115   59  114 1    
   116   59  115 1    
   117   60   61 1    
   118   61  116 1    
   119   61  117 1    
@<TRIPOS>SUBSTRUCTURE
     1 UNK         1 GROUP             0       ****    0 ROOT    
