@<TRIPOS>MOLECULE
3R8
117   119    1
SMALL
USER_CHARGES


@<TRIPOS>ATOM
      1 CA         22.8005  -28.7022  -47.6245 C.3       0 UNK        -0.2013 
      2 C          21.4874  -28.8634  -46.8777 C.2       0 UNK         0.4866 
      3 O          21.1123  -29.9848  -46.5484 O.2       0 UNK        -0.5176 
      4 N          20.7951  -27.7509  -46.6139 N.am      1 UNK        -0.4884 
      5 CA         19.5616  -27.6820  -45.8222 C.3       1 UNK         0.0853 
      6 C6         18.2902  -27.6094  -46.7144 C.3       10 UNK        -0.0849 
      7 S7         17.8329  -29.2169  -47.4455 S.3       10 UNK        -0.2776 
      8 C8         16.3570  -29.6659  -46.4714 C.3       10 UNK         0.0316 
      9 C9         16.7103  -30.3166  -45.1392 C.ar      10 UNK        -0.0863 
     10 C10        16.6776  -31.7084  -45.0138 C.ar      10 UNK        -0.1009 
     11 C11        16.9585  -32.3198  -43.7893 C.ar      10 UNK        -0.0712 
     12 C12        17.2845  -31.5261  -42.6861 C.ar      10 UNK        -0.0894 
     13 C13        17.3384  -30.1324  -42.7928 C.ar      10 UNK        -0.0745 
     14 C14        17.0401  -29.5353  -44.0263 C.ar      10 UNK        -0.0972 
     15 C15        17.7712  -29.3292  -41.5645 C.3       10 UNK         0.0209 
     16 S16        17.3065  -27.5640  -41.5723 S.3       10 UNK        -0.2568 
     17 C17        18.2014  -26.9585  -40.0996 C.3       10 UNK        -0.0983 
     18 CA         19.7110  -26.7178  -40.3571 C.3       3 UNK         0.0876 
     19 N          19.9458  -25.8968  -41.5547 N.am      3 UNK        -0.4424 
     20 C          21.1378  -25.6023  -42.0866 C.2       2 UNK         0.4918 
     21 O          22.2078  -25.8219  -41.5262 O.2       2 UNK        -0.4875 
     22 CA         21.1302  -25.0178  -43.5029 C.3       2 UNK         0.0481 
     23 CB         22.4625  -24.3380  -43.8633 C.3       2 UNK        -0.1831 
     24 N          20.8743  -26.1020  -44.4489 N.am      2 UNK        -0.4498 
     25 C          19.6530  -26.4964  -44.8368 C.2       1 UNK         0.5027 
     26 O          18.6247  -25.9449  -44.4424 O.2       1 UNK        -0.4969 
     27 C          20.4297  -26.2551  -39.0676 C.2       3 UNK         0.5005 
     28 O          20.6224  -27.0718  -38.1663 O.2       3 UNK        -0.5279 
     29 N          20.8338  -24.9795  -39.0017 N.am      4 UNK        -0.4463 
     30 CA         21.6497  -24.4131  -37.9251 C.3       4 UNK         0.0283 
     31 CB         21.4873  -22.8851  -37.9345 C.3       4 UNK        -0.1875 
     32 C          23.1450  -24.7887  -38.0024 C.2       4 UNK         0.4949 
     33 O          23.8484  -24.6078  -37.0081 O.2       4 UNK        -0.5039 
     34 N          23.6189  -25.2700  -39.1588 N.am      5 UNK        -0.4663 
     35 CA         25.0171  -25.5994  -39.4249 C.3       5 UNK         0.0242 
     36 CB         25.7456  -24.3583  -39.9816 C.3       5 UNK        -0.1982 
     37 C          25.0796  -26.8247  -40.3483 C.2       5 UNK         0.5017 
     38 O          25.0073  -27.9520  -39.8556 O.2       5 UNK        -0.5012 
     39 N          25.2041  -26.5966  -41.6638 N.am      6 UNK        -0.4439 
     40 CA         25.2316  -27.6174  -42.7166 C.3       6 UNK         0.0297 
     41 CB         25.8588  -27.0168  -43.9878 C.3       6 UNK        -0.2006 
     42 C          23.8353  -28.2172  -42.9750 C.2       6 UNK         0.4892 
     43 O          23.2341  -27.9738  -44.0231 O.2       6 UNK        -0.5089 
     44 N          23.3422  -28.9717  -41.9867 N.am      7 UNK        -0.4243 
     45 CA         22.0401  -29.6378  -41.9876 C.3       7 UNK         0.0196 
     46 CB         21.7140  -30.0712  -40.5479 C.3       7 UNK        -0.2007 
     47 C          21.9719  -30.8566  -42.9210 C.2       7 UNK         0.5020 
     48 O          20.8721  -31.2316  -43.3233 O.2       7 UNK        -0.5147 
     49 N          23.1318  -31.4743  -43.1983 N.am      8 UNK        -0.4734 
     50 CA         23.3778  -32.6935  -43.9873 C.3       8 UNK         0.0238 
     51 CB         22.9484  -32.5170  -45.4552 C.3       8 UNK        -0.1912 
     52 C          22.7756  -33.9763  -43.3844 C.2       8 UNK         0.5038 
     53 O          23.4953  -34.9648  -43.2352 O.2       8 UNK        -0.5046 
     54 N          21.4833  -33.9379  -43.0486 N.am      9 UNK        -0.4200 
     55 CA         20.7375  -34.9899  -42.3498 C.3       9 UNK         0.0839 
     56 C          21.2639  -35.2221  -40.9074 C.2       9 UNK         0.5513 
     57 N          21.2683  -36.4638  -40.4424 N.am      9 UNK        -0.7519 
     58 O          21.6221  -34.2866  -40.1946 O.2       9 UNK        -0.4960 
     59 C59        19.2215  -34.6725  -42.3265 C.3       10 UNK        -0.0876 
     60 S60        18.4877  -34.6296  -43.9965 S.3       10 UNK        -0.2414 
     61 C61        16.8848  -33.8351  -43.6608 C.3       10 UNK         0.0169 
     62 H62        22.8014  -29.3201  -48.5220 H         1 UNK         0.0903 
     63 H63        22.9789  -27.6690  -47.9205 H         1 UNK         0.0903 
     64 H64        23.6264  -29.0194  -46.9902 H         1 UNK         0.0903 
     65 H65        21.1541  -26.8583  -46.9230 H         1 UNK         0.3096 
     66 H66        19.4903  -28.5681  -45.1872 H         1 UNK         0.1121 
     67 H67        18.4396  -26.8923  -47.5225 H         1 UNK         0.0849 
     68 H68        17.4252  -27.2408  -46.1635 H         1 UNK         0.0849 
     69 H69        15.7259  -28.7911  -46.3086 H         1 UNK         0.0865 
     70 H70        15.7535  -30.3524  -47.0672 H         1 UNK         0.0865 
     71 H71        16.4240  -32.3195  -45.8695 H         1 UNK         0.1346 
     72 H72        17.5065  -31.9959  -41.7385 H         1 UNK         0.1412 
     73 H73        17.0720  -28.4608  -44.1318 H         1 UNK         0.1426 
     74 H74        18.8547  -29.4075  -41.4912 H         1 UNK         0.0716 
     75 H75        17.3606  -29.7856  -40.6624 H         1 UNK         0.0716 
     76 H76        17.7221  -26.0320  -39.7784 H         1 UNK         0.0695 
     77 H77        18.0558  -27.6733  -39.2872 H         1 UNK         0.0695 
     78 H78        20.1536  -27.6850  -40.5865 H         1 UNK         0.0983 
     79 H79        19.1236  -25.7114  -42.1156 H         1 UNK         0.3095 
     80 H80        20.3437  -24.2630  -43.5615 H         1 UNK         0.0454 
     81 H81        22.6958  -23.5392  -43.1589 H         1 UNK         0.0851 
     82 H82        23.2931  -25.0420  -43.8446 H         1 UNK         0.0851 
     83 H83        22.4240  -23.8938  -44.8577 H         1 UNK         0.0851 
     84 H84        21.6722  -26.6796  -44.6938 H         1 UNK         0.2976 
     85 H85        20.6406  -24.3808  -39.7911 H         1 UNK         0.3116 
     86 H86        21.2704  -24.7869  -36.9726 H         1 UNK         0.0646 
     87 H87        22.0495  -22.4273  -37.1197 H         1 UNK         0.0847 
     88 H88        20.4445  -22.5954  -37.8077 H         1 UNK         0.0847 
     89 H89        21.8493  -22.4460  -38.8640 H         1 UNK         0.0847 
     90 H90        22.9776  -25.4427  -39.9320 H         1 UNK         0.3040 
     91 H91        25.5085  -25.8946  -38.4954 H         1 UNK         0.1015 
     92 H92        25.8072  -23.5739  -39.2271 H         1 UNK         0.0786 
     93 H93        25.2370  -23.9362  -40.8486 H         1 UNK         0.0786 
     94 H94        26.7679  -24.5989  -40.2752 H         1 UNK         0.0786 
     95 H95        25.1998  -25.6361  -41.9726 H         1 UNK         0.3172 
     96 H96        25.8785  -28.4332  -42.3882 H         1 UNK         0.0595 
     97 H97        26.8780  -26.6771  -43.8049 H         1 UNK         0.0839 
     98 H98        25.2870  -26.1706  -44.3672 H         1 UNK         0.0839 
     99 H99        25.9048  -27.7592  -44.7854 H         1 UNK         0.0839 
    100 H100       23.8869  -29.0228  -41.1320 H         1 UNK         0.2998 
    101 H101       21.2903  -28.9197  -42.3255 H         1 UNK         0.0822 
    102 H102       21.7481  -29.2308  -39.8549 H         1 UNK         0.0787 
    103 H103       20.7184  -30.5113  -40.4840 H         1 UNK         0.0787 
    104 H104       22.4185  -30.8221  -40.1873 H         1 UNK         0.0787 
    105 H105       23.9560  -31.0782  -42.7686 H         1 UNK         0.3055 
    106 H106       24.4605  -32.8314  -43.9832 H         1 UNK         0.1106 
    107 H107       21.8685  -32.4014  -45.5521 H         1 UNK         0.0828 
    108 H108       23.4178  -31.6416  -45.9035 H         1 UNK         0.0828 
    109 H109       23.2351  -33.3831  -46.0525 H         1 UNK         0.0828 
    110 H110       20.9966  -33.0561  -43.1934 H         1 UNK         0.2931 
    111 H111       20.8841  -35.9136  -42.9136 H         1 UNK         0.0412 
    112 H112       21.5906  -36.6344  -39.5023 H         1 UNK         0.3472 
    113 H113       20.9665  -37.2366  -41.0160 H         1 UNK         0.3472 
    114 H114       19.0488  -33.7178  -41.8284 H         1 UNK         0.0970 
    115 H115       18.6801  -35.4239  -41.7483 H         1 UNK         0.0970 
    116 H116       16.5274  -34.1179  -42.6694 H         1 UNK         0.0612 
    117 H117       16.1512  -34.2273  -44.3668 H         1 UNK         0.0612 
@<TRIPOS>BOND
     1    1    2 1    
     2    1   62 1    
     3    1   63 1    
     4    1   64 1    
     5    2    3 2    
     6    2    4 am   BACKBONE|DICT|INTERRES
     7    4    5 1    
     8    4   65 1    
     9    5    6 1    
    10    5   25 1    
    11    5   66 1    
    12    6    7 1    
    13    6   67 1    
    14    6   68 1    
    15    7    8 1    
    16    8    9 1    
    17    8   69 1    
    18    8   70 1    
    19    9   10 ar   
    20    9   14 ar   
    21   10   11 ar   
    22   10   71 1    
    23   11   12 ar   
    24   11   61 1    
    25   12   13 ar   
    26   12   72 1    
    27   13   14 ar   
    28   13   15 1    
    29   14   73 1    
    30   15   16 1    
    31   15   74 1    
    32   15   75 1    
    33   16   17 1    
    34   17   18 1    
    35   17   76 1    
    36   17   77 1    
    37   18   19 1    
    38   18   27 1    
    39   18   78 1    
    40   19   20 am   BACKBONE|DICT|INTERRES
    41   19   79 1    
    42   20   21 2    
    43   20   22 1    
    44   22   23 1    
    45   22   24 1    
    46   22   80 1    
    47   23   81 1    
    48   23   82 1    
    49   23   83 1    
    50   24   25 am   BACKBONE|DICT|INTERRES
    51   24   84 1    
    52   25   26 2    
    53   27   28 2    
    54   27   29 am   BACKBONE|DICT|INTERRES
    55   29   30 1    
    56   29   85 1    
    57   30   31 1    
    58   30   32 1    
    59   30   86 1    
    60   31   87 1    
    61   31   88 1    
    62   31   89 1    
    63   32   33 2    
    64   32   34 am   BACKBONE|DICT|INTERRES
    65   34   35 1    
    66   34   90 1    
    67   35   36 1    
    68   35   37 1    
    69   35   91 1    
    70   36   92 1    
    71   36   93 1    
    72   36   94 1    
    73   37   38 2    
    74   37   39 am   BACKBONE|DICT|INTERRES
    75   39   40 1    
    76   39   95 1    
    77   40   41 1    
    78   40   42 1    
    79   40   96 1    
    80   41   97 1    
    81   41   98 1    
    82   41   99 1    
    83   42   43 2    
    84   42   44 am   BACKBONE|DICT|INTERRES
    85   44   45 1    
    86   44  100 1    
    87   45   46 1    
    88   45   47 1    
    89   45  101 1    
    90   46  102 1    
    91   46  103 1    
    92   46  104 1    
    93   47   48 2    
    94   47   49 am   BACKBONE|DICT|INTERRES
    95   49   50 1    
    96   49  105 1    
    97   50   51 1    
    98   50   52 1    
    99   50  106 1    
   100   51  107 1    
   101   51  108 1    
   102   51  109 1    
   103   52   53 2    
   104   52   54 am   BACKBONE|DICT|INTERRES
   105   54   55 1    
   106   54  110 1    
   107   55   56 1    
   108   55   59 1    
   109   55  111 1    
   110   56   57 am   BACKBONE|DICT|INTERRES
   111   56   58 2    
   112   57  112 1    
   113   57  113 1    
   114   59   60 1    
   115   59  114 1    
   116   59  115 1    
   117   60   61 1    
   118   61  116 1    
   119   61  117 1    
@<TRIPOS>SUBSTRUCTURE
     1 UNK         1 GROUP             0       ****    0 ROOT    
