@<TRIPOS>MOLECULE
3R8
117   119    1
SMALL
USER_CHARGES


@<TRIPOS>ATOM
      1 CA         16.4703  -23.8244  -40.3641 C.3       0 UNK        -0.2013 
      2 C          16.6212  -23.6695  -41.8699 C.2       0 UNK         0.4866 
      3 O          16.4749  -22.5632  -42.3897 O.2       0 UNK        -0.5176 
      4 N          16.9115  -24.7712  -42.5744 N.am      1 UNK        -0.4884 
      5 CA         17.0819  -24.8116  -44.0334 C.3       1 UNK         0.0853 
      6 C6         17.1023  -26.2594  -44.5663 C.3       10 UNK        -0.0849 
      7 S7         15.5494  -27.1858  -44.3056 S.3       10 UNK        -0.2776 
      8 C8         16.1058  -28.6772  -43.3926 C.3       10 UNK         0.0316 
      9 C9         17.2080  -29.5225  -44.0450 C.ar      10 UNK        -0.0863 
     10 C10        17.7453  -30.5908  -43.3187 C.ar      10 UNK        -0.1009 
     11 C11        18.8016  -31.3571  -43.8301 C.ar      10 UNK        -0.0712 
     12 C12        19.3438  -31.0199  -45.0759 C.ar      10 UNK        -0.0894 
     13 C13        18.8106  -29.9654  -45.8225 C.ar      10 UNK        -0.0745 
     14 C14        17.7156  -29.2615  -45.3232 C.ar      10 UNK        -0.0972 
     15 C15        19.4060  -29.5695  -47.1689 C.3       10 UNK         0.0209 
     16 S16        20.0004  -27.8396  -47.1774 S.3       10 UNK        -0.2568 
     17 C17        21.4298  -27.9711  -46.0608 C.3       10 UNK        -0.0983 
     18 CA         22.1345  -26.6177  -45.7758 C.3       3 UNK         0.0876 
     19 N          21.2602  -25.6478  -45.1018 N.am      3 UNK        -0.4424 
     20 C          21.5531  -24.3456  -44.9623 C.2       2 UNK         0.4918 
     21 O          22.4612  -23.7885  -45.5824 O.2       2 UNK        -0.4875 
     22 CA         20.7435  -23.5439  -43.9184 C.3       2 UNK         0.0481 
     23 CB         20.7087  -22.0295  -44.2180 C.3       2 UNK        -0.1831 
     24 N          19.3975  -24.0725  -43.6641 N.am      2 UNK        -0.4498 
     25 C          18.3630  -24.1000  -44.5187 C.2       1 UNK         0.5027 
     26 O          18.3961  -23.6345  -45.6584 O.2       1 UNK        -0.4969 
     27 C          23.3701  -26.8836  -44.8921 C.2       3 UNK         0.5005 
     28 O          23.2715  -26.7830  -43.6666 O.2       3 UNK        -0.5279 
     29 N          24.4836  -27.3134  -45.5022 N.am      4 UNK        -0.4463 
     30 CA         25.6917  -27.7483  -44.7850 C.3       4 UNK         0.0283 
     31 CB         26.8061  -28.0630  -45.7957 C.3       4 UNK        -0.1875 
     32 C          25.4492  -28.9550  -43.8556 C.2       4 UNK         0.4949 
     33 O          26.0899  -29.0575  -42.8098 O.2       4 UNK        -0.5039 
     34 N          24.5068  -29.8258  -44.2427 N.am      5 UNK        -0.4663 
     35 CA         24.0668  -30.9804  -43.4608 C.3       5 UNK         0.0242 
     36 CB         23.4429  -32.0167  -44.4095 C.3       5 UNK        -0.1982 
     37 C          23.0688  -30.6293  -42.3445 C.2       5 UNK         0.5017 
     38 O          22.9475  -31.4176  -41.4077 O.2       5 UNK        -0.5012 
     39 N          22.3742  -29.4817  -42.4388 N.am      6 UNK        -0.4439 
     40 CA         21.2441  -29.1081  -41.5696 C.3       6 UNK         0.0297 
     41 CB         20.5143  -27.8760  -42.1329 C.3       6 UNK        -0.2006 
     42 C          21.5926  -28.9074  -40.0827 C.2       6 UNK         0.4892 
     43 O          20.6827  -28.8349  -39.2561 O.2       6 UNK        -0.5089 
     44 N          22.8909  -28.8433  -39.7617 N.am      7 UNK        -0.4243 
     45 CA         23.4221  -28.8156  -38.4003 C.3       7 UNK         0.0196 
     46 CB         24.9162  -28.4575  -38.4597 C.3       7 UNK        -0.2007 
     47 C          23.2165  -30.1308  -37.6217 C.2       7 UNK         0.5020 
     48 O          23.2763  -30.0956  -36.3919 O.2       7 UNK        -0.5147 
     49 N          22.9954  -31.2580  -38.3171 N.am      8 UNK        -0.4734 
     50 CA         22.8145  -32.5723  -37.6881 C.3       8 UNK         0.0238 
     51 CB         24.1863  -33.2100  -37.3971 C.3       8 UNK        -0.1912 
     52 C          21.9353  -33.5368  -38.4973 C.2       8 UNK         0.5038 
     53 O          21.2202  -34.3328  -37.8873 O.2       8 UNK        -0.5046 
     54 N          22.0135  -33.4787  -39.8337 N.am      9 UNK        -0.4200 
     55 CA         21.3323  -34.3709  -40.7895 C.3       9 UNK         0.0839 
     56 C          21.7519  -35.8709  -40.6988 C.2       9 UNK         0.5513 
     57 N          22.9140  -36.1958  -40.1446 N.am      9 UNK        -0.7519 
     58 O          21.0357  -36.7538  -41.1646 O.2       9 UNK        -0.4960 
     59 C59        19.7905  -34.1680  -40.8242 C.3       10 UNK        -0.0876 
     60 S60        19.3146  -32.4647  -41.2725 S.3       10 UNK        -0.2414 
     61 C61        19.3347  -32.5867  -43.0943 C.3       10 UNK         0.0169 
     62 H62        15.4708  -23.5201  -40.0545 H         1 UNK         0.0903 
     63 H63        16.6261  -24.8536  -40.0412 H         1 UNK         0.0903 
     64 H64        17.1936  -23.1938  -39.8478 H         1 UNK         0.0903 
     65 H65        16.9836  -25.6595  -42.0993 H         1 UNK         0.3096 
     66 H66        16.2364  -24.2883  -44.4863 H         1 UNK         0.1121 
     67 H67        17.2865  -26.2547  -45.6432 H         1 UNK         0.0849 
     68 H68        17.9351  -26.8045  -44.1184 H         1 UNK         0.0849 
     69 H69        15.2362  -29.3141  -43.2247 H         1 UNK         0.0865 
     70 H70        16.4468  -28.3610  -42.4056 H         1 UNK         0.0865 
     71 H71        17.3295  -30.8287  -42.3494 H         1 UNK         0.1346 
     72 H72        20.1684  -31.5935  -45.4757 H         1 UNK         0.1412 
     73 H73        17.2958  -28.4822  -45.9387 H         1 UNK         0.1426 
     74 H74        18.6428  -29.6836  -47.9399 H         1 UNK         0.0716 
     75 H75        20.2262  -30.2336  -47.4460 H         1 UNK         0.0716 
     76 H76        22.1263  -28.6735  -46.5228 H         1 UNK         0.0695 
     77 H77        21.1015  -28.4406  -45.1334 H         1 UNK         0.0695 
     78 H78        22.4693  -26.1853  -46.7214 H         1 UNK         0.0983 
     79 H79        20.5109  -26.0321  -44.5499 H         1 UNK         0.3095 
     80 H80        21.2836  -23.6693  -42.9789 H         1 UNK         0.0454 
     81 H81        20.1362  -21.4883  -43.4648 H         1 UNK         0.0851 
     82 H82        20.2682  -21.8168  -45.1922 H         1 UNK         0.0851 
     83 H83        21.7147  -21.6085  -44.2212 H         1 UNK         0.0851 
     84 H84        19.2487  -24.4716  -42.7476 H         1 UNK         0.2976 
     85 H85        24.5026  -27.3792  -46.5107 H         1 UNK         0.3116 
     86 H86        26.0231  -26.9164  -44.1597 H         1 UNK         0.0646 
     87 H87        27.7209  -28.3661  -45.2843 H         1 UNK         0.0847 
     88 H88        27.0517  -27.1910  -46.4021 H         1 UNK         0.0847 
     89 H89        26.5266  -28.8743  -46.4690 H         1 UNK         0.0847 
     90 H90        24.0527  -29.6750  -45.1311 H         1 UNK         0.3040 
     91 H91        24.9383  -31.4355  -42.9842 H         1 UNK         0.1015 
     92 H92        24.1600  -32.3495  -45.1602 H         1 UNK         0.0786 
     93 H93        22.5725  -31.6160  -44.9299 H         1 UNK         0.0786 
     94 H94        23.1164  -32.9024  -43.8621 H         1 UNK         0.0786 
     95 H95        22.6268  -28.8184  -43.1597 H         1 UNK         0.3172 
     96 H96        20.5373  -29.9360  -41.6043 H         1 UNK         0.0595 
     97 H97        21.1649  -27.0032  -42.1785 H         1 UNK         0.0839 
     98 H98        19.6624  -27.6095  -41.5057 H         1 UNK         0.0839 
     99 H99        20.1169  -28.0708  -43.1275 H         1 UNK         0.0839 
    100 H100       23.5633  -28.9072  -40.5125 H         1 UNK         0.2998 
    101 H101       22.9009  -28.0281  -37.8516 H         1 UNK         0.0822 
    102 H102       25.4877  -29.2034  -39.0140 H         1 UNK         0.0787 
    103 H103       25.0745  -27.4899  -38.9366 H         1 UNK         0.0787 
    104 H104       25.3440  -28.3969  -37.4580 H         1 UNK         0.0787 
    105 H105       22.9281  -31.2055  -39.3278 H         1 UNK         0.3055 
    106 H106       22.2971  -32.4331  -36.7356 H         1 UNK         0.1106 
    107 H107       24.0733  -34.1993  -36.9512 H         1 UNK         0.0828 
    108 H108       24.7774  -33.3249  -38.3063 H         1 UNK         0.0828 
    109 H109       24.7645  -32.6073  -36.6966 H         1 UNK         0.0828 
    110 H110       22.5870  -32.7672  -40.2779 H         1 UNK         0.2931 
    111 H111       21.7088  -34.0621  -41.7651 H         1 UNK         0.0412 
    112 H112       23.5207  -35.4826  -39.7737 H         1 UNK         0.3472 
    113 H113       23.1851  -37.1656  -40.0980 H         1 UNK         0.3472 
    114 H114       19.3207  -34.8504  -41.5344 H         1 UNK         0.0970 
    115 H115       19.3534  -34.4067  -39.8537 H         1 UNK         0.0970 
    116 H116       20.3598  -32.7912  -43.4067 H         1 UNK         0.0612 
    117 H117       18.7358  -33.4454  -43.4000 H         1 UNK         0.0612 
@<TRIPOS>BOND
     1    1    2 1    
     2    1   62 1    
     3    1   63 1    
     4    1   64 1    
     5    2    3 2    
     6    2    4 am   BACKBONE|DICT|INTERRES
     7    4    5 1    
     8    4   65 1    
     9    5    6 1    
    10    5   25 1    
    11    5   66 1    
    12    6    7 1    
    13    6   67 1    
    14    6   68 1    
    15    7    8 1    
    16    8    9 1    
    17    8   69 1    
    18    8   70 1    
    19    9   10 ar   
    20    9   14 ar   
    21   10   11 ar   
    22   10   71 1    
    23   11   12 ar   
    24   11   61 1    
    25   12   13 ar   
    26   12   72 1    
    27   13   14 ar   
    28   13   15 1    
    29   14   73 1    
    30   15   16 1    
    31   15   74 1    
    32   15   75 1    
    33   16   17 1    
    34   17   18 1    
    35   17   76 1    
    36   17   77 1    
    37   18   19 1    
    38   18   27 1    
    39   18   78 1    
    40   19   20 am   BACKBONE|DICT|INTERRES
    41   19   79 1    
    42   20   21 2    
    43   20   22 1    
    44   22   23 1    
    45   22   24 1    
    46   22   80 1    
    47   23   81 1    
    48   23   82 1    
    49   23   83 1    
    50   24   25 am   BACKBONE|DICT|INTERRES
    51   24   84 1    
    52   25   26 2    
    53   27   28 2    
    54   27   29 am   BACKBONE|DICT|INTERRES
    55   29   30 1    
    56   29   85 1    
    57   30   31 1    
    58   30   32 1    
    59   30   86 1    
    60   31   87 1    
    61   31   88 1    
    62   31   89 1    
    63   32   33 2    
    64   32   34 am   BACKBONE|DICT|INTERRES
    65   34   35 1    
    66   34   90 1    
    67   35   36 1    
    68   35   37 1    
    69   35   91 1    
    70   36   92 1    
    71   36   93 1    
    72   36   94 1    
    73   37   38 2    
    74   37   39 am   BACKBONE|DICT|INTERRES
    75   39   40 1    
    76   39   95 1    
    77   40   41 1    
    78   40   42 1    
    79   40   96 1    
    80   41   97 1    
    81   41   98 1    
    82   41   99 1    
    83   42   43 2    
    84   42   44 am   BACKBONE|DICT|INTERRES
    85   44   45 1    
    86   44  100 1    
    87   45   46 1    
    88   45   47 1    
    89   45  101 1    
    90   46  102 1    
    91   46  103 1    
    92   46  104 1    
    93   47   48 2    
    94   47   49 am   BACKBONE|DICT|INTERRES
    95   49   50 1    
    96   49  105 1    
    97   50   51 1    
    98   50   52 1    
    99   50  106 1    
   100   51  107 1    
   101   51  108 1    
   102   51  109 1    
   103   52   53 2    
   104   52   54 am   BACKBONE|DICT|INTERRES
   105   54   55 1    
   106   54  110 1    
   107   55   56 1    
   108   55   59 1    
   109   55  111 1    
   110   56   57 am   BACKBONE|DICT|INTERRES
   111   56   58 2    
   112   57  112 1    
   113   57  113 1    
   114   59   60 1    
   115   59  114 1    
   116   59  115 1    
   117   60   61 1    
   118   61  116 1    
   119   61  117 1    
@<TRIPOS>SUBSTRUCTURE
     1 UNK         1 GROUP             0       ****    0 ROOT    
