@<TRIPOS>MOLECULE
3R8
117   119    1
SMALL
USER_CHARGES


@<TRIPOS>ATOM
      1 CA         15.1898  -25.1751  -40.1168 C.3       0 UNK        -0.2013 
      2 C          16.1263  -24.8827  -41.2795 C.2       0 UNK         0.4866 
      3 O          16.9759  -23.9986  -41.1720 O.2       0 UNK        -0.5176 
      4 N          15.9675  -25.6123  -42.3907 N.am      1 UNK        -0.4884 
      5 CA         16.8036  -25.5371  -43.5928 C.3       1 UNK         0.0853 
      6 C6         16.1308  -26.2096  -44.8252 C.3       10 UNK        -0.0849 
      7 S7         15.3018  -27.8070  -44.4716 S.3       10 UNK        -0.2776 
      8 C8         15.8808  -28.8986  -45.8144 C.3       10 UNK         0.0316 
      9 C9         17.0503  -29.7850  -45.3991 C.ar      10 UNK        -0.0863 
     10 C10        16.9084  -30.6787  -44.3326 C.ar      10 UNK        -0.1009 
     11 C11        17.9474  -31.5462  -43.9866 C.ar      10 UNK        -0.0712 
     12 C12        19.1394  -31.5132  -44.7149 C.ar      10 UNK        -0.0894 
     13 C13        19.3008  -30.6347  -45.7913 C.ar      10 UNK        -0.0745 
     14 C14        18.2448  -29.7730  -46.1275 C.ar      10 UNK        -0.0972 
     15 C15        20.6047  -30.7104  -46.5916 C.3       10 UNK         0.0209 
     16 S16        20.9411  -29.3032  -47.7094 S.3       10 UNK        -0.2568 
     17 C17        22.0873  -28.2706  -46.7350 C.3       10 UNK        -0.0983 
     18 CA         21.3761  -27.0661  -46.0602 C.3       3 UNK         0.0876 
     19 N          20.4042  -27.4852  -45.0391 N.am      3 UNK        -0.4424 
     20 C          20.6832  -28.0162  -43.8386 C.2       2 UNK         0.4918 
     21 O          21.8235  -28.2995  -43.4788 O.2       2 UNK        -0.4875 
     22 CA         19.5140  -28.1937  -42.8463 C.3       2 UNK         0.0481 
     23 CB         19.9605  -27.9326  -41.3936 C.3       2 UNK        -0.1831 
     24 N          18.3115  -27.4066  -43.1496 N.am      2 UNK        -0.4498 
     25 C          18.2182  -26.0798  -43.3203 C.2       1 UNK         0.5027 
     26 O          19.1819  -25.3108  -43.2938 O.2       1 UNK        -0.4969 
     27 C          22.3738  -26.0014  -45.5296 C.2       3 UNK         0.5005 
     28 O          23.4832  -25.8870  -46.0541 O.2       3 UNK        -0.5279 
     29 N          21.9689  -25.2541  -44.4861 N.am      4 UNK        -0.4463 
     30 CA         22.7665  -24.3040  -43.7005 C.3       4 UNK         0.0283 
     31 CB         23.1497  -23.0739  -44.5506 C.3       4 UNK        -0.1875 
     32 C          23.9849  -24.9358  -42.9873 C.2       4 UNK         0.4949 
     33 O          24.9281  -24.2151  -42.6569 O.2       4 UNK        -0.5039 
     34 N          23.9537  -26.2534  -42.7445 N.am      5 UNK        -0.4663 
     35 CA         25.0251  -27.0146  -42.1085 C.3       5 UNK         0.0242 
     36 CB         25.9540  -27.5939  -43.1928 C.3       5 UNK        -0.1982 
     37 C          24.3823  -28.1070  -41.2498 C.2       5 UNK         0.5017 
     38 O          24.1371  -29.2037  -41.7494 O.2       5 UNK        -0.5012 
     39 N          24.1016  -27.7818  -39.9790 N.am      6 UNK        -0.4439 
     40 CA         23.3468  -28.5931  -39.0098 C.3       6 UNK         0.0297 
     41 CB         23.3921  -27.9092  -37.6341 C.3       6 UNK        -0.2006 
     42 C          23.7625  -30.0720  -38.8815 C.2       6 UNK         0.4892 
     43 O          22.9031  -30.9101  -38.6130 O.2       6 UNK        -0.5089 
     44 N          25.0474  -30.3751  -39.1149 N.am      7 UNK        -0.4243 
     45 CA         25.6032  -31.7320  -39.1578 C.3       7 UNK         0.0196 
     46 CB         27.1320  -31.6407  -39.2907 C.3       7 UNK        -0.2007 
     47 C          25.0206  -32.6256  -40.2729 C.2       7 UNK         0.5020 
     48 O          25.0750  -33.8487  -40.1447 O.2       7 UNK        -0.5147 
     49 N          24.4667  -32.0210  -41.3338 N.am      8 UNK        -0.4734 
     50 CA         23.7884  -32.7142  -42.4336 C.3       8 UNK         0.0238 
     51 CB         23.9022  -31.8561  -43.7074 C.3       8 UNK        -0.1912 
     52 C          22.3104  -33.0312  -42.1323 C.2       8 UNK         0.5038 
     53 O          21.6441  -33.6078  -42.9931 O.2       8 UNK        -0.5046 
     54 N          21.8098  -32.6382  -40.9549 N.am      9 UNK        -0.4200 
     55 CA         20.4093  -32.7644  -40.5415 C.3       9 UNK         0.0839 
     56 C          20.3006  -33.1279  -39.0330 C.2       9 UNK         0.5513 
     57 N          19.1676  -32.8675  -38.3961 N.am      9 UNK        -0.7519 
     58 O          21.2161  -33.6961  -38.4410 O.2       9 UNK        -0.4960 
     59 C59        19.6041  -31.5113  -40.9911 C.3       10 UNK        -0.0876 
     60 S60        17.8178  -31.8085  -41.2103 S.3       10 UNK        -0.2414 
     61 C61        17.7569  -32.5607  -42.8674 C.3       10 UNK         0.0169 
     62 H62        14.4847  -25.9726  -40.3509 H         1 UNK         0.0903 
     63 H63        14.6192  -24.2827  -39.8608 H         1 UNK         0.0903 
     64 H64        15.7631  -25.4763  -39.2404 H         1 UNK         0.0903 
     65 H65        15.2509  -26.3252  -42.4207 H         1 UNK         0.3096 
     66 H66        16.9297  -24.4788  -43.8344 H         1 UNK         0.1121 
     67 H67        15.3618  -25.5388  -45.2115 H         1 UNK         0.0849 
     68 H68        16.8435  -26.3238  -45.6443 H         1 UNK         0.0849 
     69 H69        15.0532  -29.5465  -46.1068 H         1 UNK         0.0865 
     70 H70        16.1212  -28.3089  -46.7002 H         1 UNK         0.0865 
     71 H71        15.9783  -30.7136  -43.7812 H         1 UNK         0.1346 
     72 H72        19.9380  -32.1965  -44.4590 H         1 UNK         0.1412 
     73 H73        18.3344  -29.1082  -46.9744 H         1 UNK         0.1426 
     74 H74        21.4468  -30.8444  -45.9110 H         1 UNK         0.0716 
     75 H75        20.5651  -31.6135  -47.2018 H         1 UNK         0.0716 
     76 H76        22.8457  -27.9244  -47.4392 H         1 UNK         0.0695 
     77 H77        22.6210  -28.8756  -46.0006 H         1 UNK         0.0695 
     78 H78        20.8022  -26.5485  -46.8305 H         1 UNK         0.0983 
     79 H79        19.4369  -27.2943  -45.2497 H         1 UNK         0.3095 
     80 H80        19.2099  -29.2350  -42.9215 H         1 UNK         0.0454 
     81 H81        19.1471  -28.1096  -40.6901 H         1 UNK         0.0851 
     82 H82        20.3091  -26.9087  -41.2553 H         1 UNK         0.0851 
     83 H83        20.7797  -28.5947  -41.1134 H         1 UNK         0.0851 
     84 H84        17.4567  -27.9415  -43.2442 H         1 UNK         0.2976 
     85 H85        21.0270  -25.4069  -44.1350 H         1 UNK         0.3116 
     86 H86        22.1068  -23.9568  -42.9039 H         1 UNK         0.0646 
     87 H87        22.2758  -22.6358  -45.0323 H         1 UNK         0.0847 
     88 H88        23.6002  -22.2955  -43.9337 H         1 UNK         0.0847 
     89 H89        23.8707  -23.3275  -45.3281 H         1 UNK         0.0847 
     90 H90        23.1472  -26.8023  -43.0318 H         1 UNK         0.3040 
     91 H91        25.6175  -26.3707  -41.4543 H         1 UNK         0.1015 
     92 H92        25.4053  -28.2122  -43.9052 H         1 UNK         0.0786 
     93 H93        26.7330  -28.2156  -42.7499 H         1 UNK         0.0786 
     94 H94        26.4484  -26.8008  -43.7538 H         1 UNK         0.0786 
     95 H95        24.3463  -26.8512  -39.6714 H         1 UNK         0.3172 
     96 H96        22.3092  -28.5912  -39.3459 H         1 UNK         0.0595 
     97 H97        24.4128  -27.8244  -37.2590 H         1 UNK         0.0839 
     98 H98        22.8208  -28.4753  -36.8966 H         1 UNK         0.0839 
     99 H99        22.9618  -26.9083  -37.6711 H         1 UNK         0.0839 
    100 H100       25.6762  -29.6196  -39.3445 H         1 UNK         0.2998 
    101 H101       25.3688  -32.2131  -38.2058 H         1 UNK         0.0822 
    102 H102       27.5719  -31.0900  -38.4589 H         1 UNK         0.0787 
    103 H103       27.5839  -32.6337  -39.2940 H         1 UNK         0.0787 
    104 H104       27.4268  -31.1457  -40.2171 H         1 UNK         0.0787 
    105 H105       24.4388  -31.0026  -41.3686 H         1 UNK         0.3055 
    106 H106       24.2906  -33.6663  -42.6188 H         1 UNK         0.1106 
    107 H107       24.9394  -31.6039  -43.9278 H         1 UNK         0.0828 
    108 H108       23.5071  -32.3870  -44.5745 H         1 UNK         0.0828 
    109 H109       23.3427  -30.9235  -43.6176 H         1 UNK         0.0828 
    110 H110       22.4220  -32.2136  -40.2668 H         1 UNK         0.2931 
    111 H111       19.9982  -33.6368  -41.0518 H         1 UNK         0.0412 
    112 H112       18.3982  -32.4353  -38.8868 H         1 UNK         0.3472 
    113 H113       19.0758  -33.1155  -37.4234 H         1 UNK         0.3472 
    114 H114       19.7435  -30.6957  -40.2801 H         1 UNK         0.0970 
    115 H115       19.9925  -31.1410  -41.9397 H         1 UNK         0.0970 
    116 H116       18.5007  -33.3560  -42.9345 H         1 UNK         0.0612 
    117 H117       16.7872  -33.0448  -42.9907 H         1 UNK         0.0612 
@<TRIPOS>BOND
     1    1    2 1    
     2    1   62 1    
     3    1   63 1    
     4    1   64 1    
     5    2    3 2    
     6    2    4 am   BACKBONE|DICT|INTERRES
     7    4    5 1    
     8    4   65 1    
     9    5    6 1    
    10    5   25 1    
    11    5   66 1    
    12    6    7 1    
    13    6   67 1    
    14    6   68 1    
    15    7    8 1    
    16    8    9 1    
    17    8   69 1    
    18    8   70 1    
    19    9   10 ar   
    20    9   14 ar   
    21   10   11 ar   
    22   10   71 1    
    23   11   12 ar   
    24   11   61 1    
    25   12   13 ar   
    26   12   72 1    
    27   13   14 ar   
    28   13   15 1    
    29   14   73 1    
    30   15   16 1    
    31   15   74 1    
    32   15   75 1    
    33   16   17 1    
    34   17   18 1    
    35   17   76 1    
    36   17   77 1    
    37   18   19 1    
    38   18   27 1    
    39   18   78 1    
    40   19   20 am   BACKBONE|DICT|INTERRES
    41   19   79 1    
    42   20   21 2    
    43   20   22 1    
    44   22   23 1    
    45   22   24 1    
    46   22   80 1    
    47   23   81 1    
    48   23   82 1    
    49   23   83 1    
    50   24   25 am   BACKBONE|DICT|INTERRES
    51   24   84 1    
    52   25   26 2    
    53   27   28 2    
    54   27   29 am   BACKBONE|DICT|INTERRES
    55   29   30 1    
    56   29   85 1    
    57   30   31 1    
    58   30   32 1    
    59   30   86 1    
    60   31   87 1    
    61   31   88 1    
    62   31   89 1    
    63   32   33 2    
    64   32   34 am   BACKBONE|DICT|INTERRES
    65   34   35 1    
    66   34   90 1    
    67   35   36 1    
    68   35   37 1    
    69   35   91 1    
    70   36   92 1    
    71   36   93 1    
    72   36   94 1    
    73   37   38 2    
    74   37   39 am   BACKBONE|DICT|INTERRES
    75   39   40 1    
    76   39   95 1    
    77   40   41 1    
    78   40   42 1    
    79   40   96 1    
    80   41   97 1    
    81   41   98 1    
    82   41   99 1    
    83   42   43 2    
    84   42   44 am   BACKBONE|DICT|INTERRES
    85   44   45 1    
    86   44  100 1    
    87   45   46 1    
    88   45   47 1    
    89   45  101 1    
    90   46  102 1    
    91   46  103 1    
    92   46  104 1    
    93   47   48 2    
    94   47   49 am   BACKBONE|DICT|INTERRES
    95   49   50 1    
    96   49  105 1    
    97   50   51 1    
    98   50   52 1    
    99   50  106 1    
   100   51  107 1    
   101   51  108 1    
   102   51  109 1    
   103   52   53 2    
   104   52   54 am   BACKBONE|DICT|INTERRES
   105   54   55 1    
   106   54  110 1    
   107   55   56 1    
   108   55   59 1    
   109   55  111 1    
   110   56   57 am   BACKBONE|DICT|INTERRES
   111   56   58 2    
   112   57  112 1    
   113   57  113 1    
   114   59   60 1    
   115   59  114 1    
   116   59  115 1    
   117   60   61 1    
   118   61  116 1    
   119   61  117 1    
@<TRIPOS>SUBSTRUCTURE
     1 UNK         1 GROUP             0       ****    0 ROOT    
