@<TRIPOS>MOLECULE
3R8
117   119    1
SMALL
USER_CHARGES


@<TRIPOS>ATOM
      1 CA         16.8386  -23.0079  -46.7521 C.3       0 UNK        -0.2013 
      2 C          17.0991  -24.1846  -45.8237 C.2       0 UNK         0.4866 
      3 O          18.1196  -24.2069  -45.1356 O.2       0 UNK        -0.5176 
      4 N          16.1887  -25.1656  -45.8055 N.am      1 UNK        -0.4884 
      5 CA         16.2586  -26.3549  -44.9490 C.3       1 UNK         0.0853 
      6 C6         15.2620  -27.4491  -45.4082 C.3       10 UNK        -0.0849 
      7 S7         15.5470  -27.9858  -47.1281 S.3       10 UNK        -0.2776 
      8 C8         16.0599  -29.7201  -46.9026 C.3       10 UNK         0.0316 
      9 C9         17.4103  -29.8531  -46.2094 C.ar      10 UNK        -0.0863 
     10 C10        17.5298  -30.5942  -45.0294 C.ar      10 UNK        -0.1009 
     11 C11        18.7774  -30.7621  -44.4204 C.ar      10 UNK        -0.0712 
     12 C12        19.9110  -30.1873  -45.0009 C.ar      10 UNK        -0.0894 
     13 C13        19.8014  -29.4288  -46.1705 C.ar      10 UNK        -0.0745 
     14 C14        18.5498  -29.2697  -46.7709 C.ar      10 UNK        -0.0972 
     15 C15        21.0297  -28.7940  -46.8048 C.3       10 UNK         0.0209 
     16 S16        21.3300  -27.1163  -46.1618 S.3       10 UNK        -0.2568 
     17 C17        22.1556  -27.4781  -44.5767 C.3       10 UNK        -0.0983 
     18 CA         21.3838  -26.9579  -43.3360 C.3       3 UNK         0.0876 
     19 N          20.0023  -27.4484  -43.2837 N.am      3 UNK        -0.4424 
     20 C          19.0125  -26.8703  -42.5945 C.2       2 UNK         0.4918 
     21 O          19.1451  -25.8283  -41.9473 O.2       2 UNK        -0.4875 
     22 CA         17.6675  -27.6107  -42.5705 C.3       2 UNK         0.0481 
     23 CB         17.6118  -28.5465  -41.3522 C.3       2 UNK        -0.1831 
     24 N          16.5663  -26.6516  -42.4760 N.am      2 UNK        -0.4498 
     25 C          15.9709  -25.9818  -43.4730 C.2       1 UNK         0.5027 
     26 O          15.1384  -25.1044  -43.2355 O.2       1 UNK        -0.4969 
     27 C          22.1140  -27.3143  -42.0222 C.2       3 UNK         0.5005 
     28 O          22.9380  -28.2340  -42.0030 O.2       3 UNK        -0.5279 
     29 N          21.7554  -26.6199  -40.9332 N.am      4 UNK        -0.4463 
     30 CA         22.2951  -26.7925  -39.5820 C.3       4 UNK         0.0283 
     31 CB         21.6243  -25.7855  -38.6355 C.3       4 UNK        -0.1875 
     32 C          23.8232  -26.6368  -39.5393 C.2       4 UNK         0.4949 
     33 O          24.3616  -25.7373  -40.1881 O.2       4 UNK        -0.5039 
     34 N          24.4867  -27.5407  -38.8063 N.am      5 UNK        -0.4663 
     35 CA         25.9411  -27.7197  -38.6558 C.3       5 UNK         0.0242 
     36 CB         26.6045  -26.4724  -38.0391 C.3       5 UNK        -0.1982 
     37 C          26.6765  -28.1613  -39.9377 C.2       5 UNK         0.5017 
     38 O          27.5811  -28.9916  -39.8478 O.2       5 UNK        -0.5012 
     39 N          26.2822  -27.6169  -41.0959 N.am      6 UNK        -0.4439 
     40 CA         26.8172  -27.9356  -42.4209 C.3       6 UNK         0.0297 
     41 CB         26.2822  -26.9209  -43.4430 C.3       6 UNK        -0.2006 
     42 C          26.5053  -29.3744  -42.8660 C.2       6 UNK         0.4892 
     43 O          27.3825  -30.0317  -43.4282 O.2       6 UNK        -0.5089 
     44 N          25.2791  -29.8367  -42.5928 N.am      7 UNK        -0.4243 
     45 CA         24.8333  -31.2099  -42.8348 C.3       7 UNK         0.0196 
     46 CB         24.0595  -31.2922  -44.1607 C.3       7 UNK        -0.2007 
     47 C          23.9824  -31.7291  -41.6706 C.2       7 UNK         0.5020 
     48 O          24.1338  -32.8906  -41.2928 O.2       7 UNK        -0.5147 
     49 N          23.1037  -30.8735  -41.1251 N.am      8 UNK        -0.4734 
     50 CA         22.2069  -31.0640  -39.9727 C.3       8 UNK         0.0238 
     51 CB         23.0164  -31.3039  -38.6837 C.3       8 UNK        -0.1912 
     52 C          21.1034  -32.1300  -40.1290 C.2       8 UNK         0.5038 
     53 O          20.0261  -31.9454  -39.5627 O.2       8 UNK        -0.5046 
     54 N          21.3757  -33.2052  -40.8776 N.am      9 UNK        -0.4200 
     55 CA         20.5083  -34.3764  -41.0997 C.3       9 UNK         0.0839 
     56 C          20.2927  -35.2603  -39.8321 C.2       9 UNK         0.5513 
     57 N          21.1304  -35.1599  -38.8065 N.am      9 UNK        -0.7519 
     58 O          19.3731  -36.0738  -39.7840 O.2       9 UNK        -0.4960 
     59 C59        19.1748  -34.0360  -41.8275 C.3       10 UNK        -0.0876 
     60 S60        19.4208  -33.2705  -43.4666 S.3       10 UNK        -0.2414 
     61 C61        18.9008  -31.5621  -43.1342 C.3       10 UNK         0.0169 
     62 H62        17.6533  -22.9082  -47.4688 H         1 UNK         0.0903 
     63 H63        15.9094  -23.1255  -47.3095 H         1 UNK         0.0903 
     64 H64        16.7748  -22.0841  -46.1776 H         1 UNK         0.0903 
     65 H65        15.3642  -25.0952  -46.3847 H         1 UNK         0.3096 
     66 H66        17.2736  -26.7415  -45.0484 H         1 UNK         0.1121 
     67 H67        14.2345  -27.0865  -45.3366 H         1 UNK         0.0849 
     68 H68        15.3179  -28.3173  -44.7485 H         1 UNK         0.0849 
     69 H69        15.2818  -30.2556  -46.3562 H         1 UNK         0.0865 
     70 H70        16.1234  -30.1957  -47.8823 H         1 UNK         0.0865 
     71 H71        16.6545  -31.0524  -44.5891 H         1 UNK         0.1346 
     72 H72        20.8763  -30.3384  -44.5401 H         1 UNK         0.1412 
     73 H73        18.4610  -28.6946  -47.6829 H         1 UNK         0.1426 
     74 H74        20.8937  -28.7307  -47.8855 H         1 UNK         0.0716 
     75 H75        21.9101  -29.4202  -46.6518 H         1 UNK         0.0716 
     76 H76        23.1420  -27.0150  -44.6191 H         1 UNK         0.0695 
     77 H77        22.3382  -28.5486  -44.5013 H         1 UNK         0.0695 
     78 H78        21.3580  -25.8680  -43.4082 H         1 UNK         0.0983 
     79 H79        19.8164  -28.2948  -43.8033 H         1 UNK         0.3095 
     80 H80        17.5664  -28.2237  -43.4654 H         1 UNK         0.0454 
     81 H81        17.6651  -27.9937  -40.4132 H         1 UNK         0.0851 
     82 H82        18.4437  -29.2510  -41.3550 H         1 UNK         0.0851 
     83 H83        16.6925  -29.1323  -41.3444 H         1 UNK         0.0851 
     84 H84        16.3440  -26.3596  -41.5357 H         1 UNK         0.2976 
     85 H85        21.0191  -25.9316  -41.0448 H         1 UNK         0.3116 
     86 H86        22.0332  -27.7998  -39.2542 H         1 UNK         0.0646 
     87 H87        20.5425  -25.9189  -38.6134 H         1 UNK         0.0847 
     88 H88        21.8300  -24.7561  -38.9322 H         1 UNK         0.0847 
     89 H89        21.9857  -25.9078  -37.6135 H         1 UNK         0.0847 
     90 H90        23.9321  -28.2338  -38.3235 H         1 UNK         0.3040 
     91 H91        26.0619  -28.5363  -37.9415 H         1 UNK         0.1015 
     92 H92        26.5573  -25.6102  -38.7047 H         1 UNK         0.0786 
     93 H93        27.6585  -26.6584  -37.8284 H         1 UNK         0.0786 
     94 H94        26.1303  -26.1957  -37.0975 H         1 UNK         0.0786 
     95 H95        25.5466  -26.9161  -41.0427 H         1 UNK         0.3172 
     96 H96        27.9032  -27.8311  -42.3749 H         1 UNK         0.0595 
     97 H97        25.1933  -26.9281  -43.4822 H         1 UNK         0.0839 
     98 H98        26.6489  -27.1434  -44.4462 H         1 UNK         0.0839 
     99 H99        26.6008  -25.9073  -43.1990 H         1 UNK         0.0839 
    100 H100       24.6096  -29.2067  -42.1606 H         1 UNK         0.2998 
    101 H101       25.7023  -31.8683  -42.9037 H         1 UNK         0.0822 
    102 H102       24.6759  -30.9706  -45.0003 H         1 UNK         0.0787 
    103 H103       23.7399  -32.3153  -44.3638 H         1 UNK         0.0787 
    104 H104       23.1670  -30.6698  -44.1418 H         1 UNK         0.0787 
    105 H105       23.0280  -29.9496  -41.5493 H         1 UNK         0.3055 
    106 H106       21.6822  -30.1144  -39.8586 H         1 UNK         0.1106 
    107 H107       23.5516  -32.2535  -38.7104 H         1 UNK         0.0828 
    108 H108       22.3628  -31.3256  -37.8105 H         1 UNK         0.0828 
    109 H109       23.7498  -30.5149  -38.5213 H         1 UNK         0.0828 
    110 H110       22.3219  -33.2769  -41.2414 H         1 UNK         0.2931 
    111 H111       21.0776  -35.0170  -41.7741 H         1 UNK         0.0412 
    112 H112       20.9907  -35.7424  -37.9956 H         1 UNK         0.3472 
    113 H113       21.9034  -34.5149  -38.8392 H         1 UNK         0.3472 
    114 H114       18.5436  -33.4033  -41.2021 H         1 UNK         0.0970 
    115 H115       18.5964  -34.9457  -41.9980 H         1 UNK         0.0970 
    116 H116       19.6261  -31.0887  -42.4719 H         1 UNK         0.0612 
    117 H117       17.9475  -31.5653  -42.6034 H         1 UNK         0.0612 
@<TRIPOS>BOND
     1    1    2 1    
     2    1   62 1    
     3    1   63 1    
     4    1   64 1    
     5    2    3 2    
     6    2    4 am   BACKBONE|DICT|INTERRES
     7    4    5 1    
     8    4   65 1    
     9    5    6 1    
    10    5   25 1    
    11    5   66 1    
    12    6    7 1    
    13    6   67 1    
    14    6   68 1    
    15    7    8 1    
    16    8    9 1    
    17    8   69 1    
    18    8   70 1    
    19    9   10 ar   
    20    9   14 ar   
    21   10   11 ar   
    22   10   71 1    
    23   11   12 ar   
    24   11   61 1    
    25   12   13 ar   
    26   12   72 1    
    27   13   14 ar   
    28   13   15 1    
    29   14   73 1    
    30   15   16 1    
    31   15   74 1    
    32   15   75 1    
    33   16   17 1    
    34   17   18 1    
    35   17   76 1    
    36   17   77 1    
    37   18   19 1    
    38   18   27 1    
    39   18   78 1    
    40   19   20 am   BACKBONE|DICT|INTERRES
    41   19   79 1    
    42   20   21 2    
    43   20   22 1    
    44   22   23 1    
    45   22   24 1    
    46   22   80 1    
    47   23   81 1    
    48   23   82 1    
    49   23   83 1    
    50   24   25 am   BACKBONE|DICT|INTERRES
    51   24   84 1    
    52   25   26 2    
    53   27   28 2    
    54   27   29 am   BACKBONE|DICT|INTERRES
    55   29   30 1    
    56   29   85 1    
    57   30   31 1    
    58   30   32 1    
    59   30   86 1    
    60   31   87 1    
    61   31   88 1    
    62   31   89 1    
    63   32   33 2    
    64   32   34 am   BACKBONE|DICT|INTERRES
    65   34   35 1    
    66   34   90 1    
    67   35   36 1    
    68   35   37 1    
    69   35   91 1    
    70   36   92 1    
    71   36   93 1    
    72   36   94 1    
    73   37   38 2    
    74   37   39 am   BACKBONE|DICT|INTERRES
    75   39   40 1    
    76   39   95 1    
    77   40   41 1    
    78   40   42 1    
    79   40   96 1    
    80   41   97 1    
    81   41   98 1    
    82   41   99 1    
    83   42   43 2    
    84   42   44 am   BACKBONE|DICT|INTERRES
    85   44   45 1    
    86   44  100 1    
    87   45   46 1    
    88   45   47 1    
    89   45  101 1    
    90   46  102 1    
    91   46  103 1    
    92   46  104 1    
    93   47   48 2    
    94   47   49 am   BACKBONE|DICT|INTERRES
    95   49   50 1    
    96   49  105 1    
    97   50   51 1    
    98   50   52 1    
    99   50  106 1    
   100   51  107 1    
   101   51  108 1    
   102   51  109 1    
   103   52   53 2    
   104   52   54 am   BACKBONE|DICT|INTERRES
   105   54   55 1    
   106   54  110 1    
   107   55   56 1    
   108   55   59 1    
   109   55  111 1    
   110   56   57 am   BACKBONE|DICT|INTERRES
   111   56   58 2    
   112   57  112 1    
   113   57  113 1    
   114   59   60 1    
   115   59  114 1    
   116   59  115 1    
   117   60   61 1    
   118   61  116 1    
   119   61  117 1    
@<TRIPOS>SUBSTRUCTURE
     1 UNK         1 GROUP             0       ****    0 ROOT    
