@<TRIPOS>MOLECULE
3R8
117   119    1
SMALL
USER_CHARGES


@<TRIPOS>ATOM
      1 CA         16.0744  -23.5103  -41.4974 C.3       0 UNK        -0.2013 
      2 C          16.1563  -23.8796  -42.9708 C.2       0 UNK         0.4866 
      3 O          15.9051  -23.0335  -43.8292 O.2       0 UNK        -0.5176 
      4 N          16.5059  -25.1377  -43.2710 N.am      1 UNK        -0.4884 
      5 CA         16.6148  -25.6764  -44.6357 C.3       1 UNK         0.0853 
      6 C6         16.6414  -27.2225  -44.6487 C.3       10 UNK        -0.0849 
      7 S7         15.2473  -27.9897  -43.7503 S.3       10 UNK        -0.2776 
      8 C8         15.2512  -29.6797  -44.4365 C.3       10 UNK         0.0316 
      9 C9         16.6344  -30.3120  -44.3743 C.ar      10 UNK        -0.0863 
     10 C10        17.1236  -30.8384  -43.1761 C.ar      10 UNK        -0.1009 
     11 C11        18.4119  -31.3799  -43.1129 C.ar      10 UNK        -0.0712 
     12 C12        19.2168  -31.3830  -44.2577 C.ar      10 UNK        -0.0894 
     13 C13        18.7380  -30.8504  -45.4590 C.ar      10 UNK        -0.0745 
     14 C14        17.4401  -30.3378  -45.5148 C.ar      10 UNK        -0.0972 
     15 C15        19.6095  -30.8163  -46.7052 C.3       10 UNK         0.0209 
     16 S16        20.0202  -29.1068  -47.1857 S.3       10 UNK        -0.2568 
     17 C17        21.4068  -28.7442  -46.0642 C.3       10 UNK        -0.0983 
     18 CA         21.9093  -27.2892  -46.2380 C.3       3 UNK         0.0876 
     19 N          20.9748  -26.2993  -45.6814 N.am      3 UNK        -0.4424 
     20 C          21.0357  -24.9830  -45.9343 C.2       2 UNK         0.4918 
     21 O          21.8167  -24.4868  -46.7480 O.2       2 UNK        -0.4875 
     22 CA         20.1104  -24.0591  -45.1145 C.3       2 UNK         0.0481 
     23 CB         19.8188  -22.7211  -45.8278 C.3       2 UNK        -0.1831 
     24 N          18.8679  -24.6890  -44.6515 N.am      2 UNK        -0.4498 
     25 C          17.8419  -25.1284  -45.3987 C.2       1 UNK         0.5027 
     26 O          17.8316  -25.1189  -46.6301 O.2       1 UNK        -0.4969 
     27 C          23.3243  -27.1237  -45.6443 C.2       3 UNK         0.5005 
     28 O          24.3077  -27.2327  -46.3786 O.2       3 UNK        -0.5279 
     29 N          23.3954  -26.8370  -44.3391 N.am      4 UNK        -0.4463 
     30 CA         24.5970  -26.5489  -43.5628 C.3       4 UNK         0.0283 
     31 CB         25.4819  -27.8046  -43.4248 C.3       4 UNK        -0.1875 
     32 C          24.1474  -26.0497  -42.1848 C.2       4 UNK         0.4949 
     33 O          22.9889  -26.2532  -41.8107 O.2       4 UNK        -0.5039 
     34 N          25.0753  -25.4353  -41.4397 N.am      5 UNK        -0.4663 
     35 CA         24.8556  -24.9710  -40.0627 C.3       5 UNK         0.0242 
     36 CB         26.0123  -24.0462  -39.6498 C.3       5 UNK        -0.1982 
     37 C          24.6959  -26.1197  -39.0475 C.2       5 UNK         0.5017 
     38 O          24.0647  -25.9257  -38.0082 O.2       5 UNK        -0.5012 
     39 N          25.2588  -27.2881  -39.3750 N.am      6 UNK        -0.4439 
     40 CA         25.1443  -28.5377  -38.6313 C.3       6 UNK         0.0297 
     41 CB         26.3802  -28.7227  -37.7299 C.3       6 UNK        -0.2006 
     42 C          24.9596  -29.6679  -39.6521 C.2       6 UNK         0.4892 
     43 O          25.8579  -30.4911  -39.8368 O.2       6 UNK        -0.5089 
     44 N          23.8149  -29.6387  -40.3479 N.am      7 UNK        -0.4243 
     45 CA         23.4272  -30.6148  -41.3689 C.3       7 UNK         0.0196 
     46 CB         22.1927  -30.0881  -42.1170 C.3       7 UNK        -0.2007 
     47 C          23.1731  -32.0135  -40.7780 C.2       7 UNK         0.5020 
     48 O          22.7847  -32.1355  -39.6140 O.2       7 UNK        -0.5147 
     49 N          23.3862  -33.0467  -41.6020 N.am      8 UNK        -0.4734 
     50 CA         23.4385  -34.4678  -41.2286 C.3       8 UNK         0.0238 
     51 CB         24.1898  -35.2333  -42.3357 C.3       8 UNK        -0.1912 
     52 C          22.0870  -35.1313  -40.8747 C.2       8 UNK         0.5038 
     53 O          21.9067  -36.3184  -41.1540 O.2       8 UNK        -0.5046 
     54 N          21.1753  -34.3815  -40.2474 N.am      9 UNK        -0.4200 
     55 CA         19.9305  -34.8970  -39.6527 C.3       9 UNK         0.0839 
     56 C          20.1078  -35.3888  -38.1864 C.2       9 UNK         0.5513 
     57 N          21.2457  -35.1687  -37.5372 N.am      9 UNK        -0.7519 
     58 O          19.1962  -35.9952  -37.6295 O.2       9 UNK        -0.4960 
     59 C59        18.7716  -33.8742  -39.7621 C.3       10 UNK        -0.0876 
     60 S60        18.2511  -33.5985  -41.4881 S.3       10 UNK        -0.2414 
     61 C61        18.9289  -31.9434  -41.7991 C.3       10 UNK         0.0169 
     62 H62        16.7684  -22.7004  -41.2744 H         1 UNK         0.0903 
     63 H63        15.0677  -23.1740  -41.2509 H         1 UNK         0.0903 
     64 H64        16.3175  -24.3534  -40.8509 H         1 UNK         0.0903 
     65 H65        16.6622  -25.8039  -42.5271 H         1 UNK         0.3096 
     66 H66        15.7308  -25.3520  -45.1900 H         1 UNK         0.1121 
     67 H67        16.6237  -27.5796  -45.6803 H         1 UNK         0.0849 
     68 H68        17.5697  -27.5949  -44.2100 H         1 UNK         0.0849 
     69 H69        14.5399  -30.2932  -43.8817 H         1 UNK         0.0865 
     70 H70        14.8887  -29.6495  -45.4654 H         1 UNK         0.0865 
     71 H71        16.5046  -30.8194  -42.2893 H         1 UNK         0.1346 
     72 H72        20.2143  -31.7969  -44.2134 H         1 UNK         0.1412 
     73 H73        17.0722  -29.9255  -46.4447 H         1 UNK         0.1426 
     74 H74        19.0713  -31.2921  -47.5262 H         1 UNK         0.0716 
     75 H75        20.5258  -31.3918  -46.5649 H         1 UNK         0.0716 
     76 H76        22.1998  -29.4602  -46.2910 H         1 UNK         0.0695 
     77 H77        21.1028  -28.9350  -45.0332 H         1 UNK         0.0695 
     78 H78        22.0038  -27.0904  -47.3084 H         1 UNK         0.0983 
     79 H79        20.2873  -26.6377  -45.0259 H         1 UNK         0.3095 
     80 H80        20.6698  -23.8217  -44.2085 H         1 UNK         0.0454 
     81 H81        20.7393  -22.1676  -46.0167 H         1 UNK         0.0851 
     82 H82        19.1772  -22.0801  -45.2231 H         1 UNK         0.0851 
     83 H83        19.3298  -22.8728  -46.7904 H         1 UNK         0.0851 
     84 H84        18.7581  -24.7512  -43.6485 H         1 UNK         0.2976 
     85 H85        22.5438  -26.7425  -43.7979 H         1 UNK         0.3116 
     86 H86        25.1542  -25.7524  -44.0600 H         1 UNK         0.0646 
     87 H87        26.3656  -27.6043  -42.8183 H         1 UNK         0.0847 
     88 H88        25.8390  -28.1560  -44.3924 H         1 UNK         0.0847 
     89 H89        24.9414  -28.6239  -42.9538 H         1 UNK         0.0847 
     90 H90        25.9981  -25.2911  -41.8263 H         1 UNK         0.3040 
     91 H91        23.9291  -24.3921  -40.0428 H         1 UNK         0.1015 
     92 H92        25.8631  -23.6625  -38.6394 H         1 UNK         0.0786 
     93 H93        26.0879  -23.1842  -40.3129 H         1 UNK         0.0786 
     94 H94        26.9710  -24.5663  -39.6620 H         1 UNK         0.0786 
     95 H95        25.7417  -27.3466  -40.2604 H         1 UNK         0.3172 
     96 H96        24.2533  -28.5231  -37.9997 H         1 UNK         0.0595 
     97 H97        27.3054  -28.7319  -38.3075 H         1 UNK         0.0839 
     98 H98        26.3258  -29.6646  -37.1826 H         1 UNK         0.0839 
     99 H99        26.4545  -27.9230  -36.9928 H         1 UNK         0.0839 
    100 H100       23.1378  -28.9220  -40.1287 H         1 UNK         0.2998 
    101 H101       24.2533  -30.6981  -42.0779 H         1 UNK         0.0822 
    102 H102       22.3878  -29.1152  -42.5684 H         1 UNK         0.0787 
    103 H103       21.3337  -29.9802  -41.4538 H         1 UNK         0.0787 
    104 H104       21.9082  -30.7627  -42.9239 H         1 UNK         0.0787 
    105 H105       23.6440  -32.8418  -42.5571 H         1 UNK         0.3055 
    106 H106       24.0427  -34.5394  -40.3213 H         1 UNK         0.1106 
    107 H107       23.6326  -35.2328  -43.2733 H         1 UNK         0.0828 
    108 H108       25.1711  -34.7983  -42.5263 H         1 UNK         0.0828 
    109 H109       24.3561  -36.2745  -42.0556 H         1 UNK         0.0828 
    110 H110       21.4438  -33.4342  -39.9999 H         1 UNK         0.2931 
    111 H111       19.6221  -35.7821  -40.2127 H         1 UNK         0.0412 
    112 H112       21.9976  -34.6601  -37.9744 H         1 UNK         0.3472 
    113 H113       21.3446  -35.4996  -36.5900 H         1 UNK         0.3472 
    114 H114       17.8908  -34.2331  -39.2257 H         1 UNK         0.0970 
    115 H115       19.0442  -32.9300  -39.2875 H         1 UNK         0.0970 
    116 H116       20.0170  -32.0071  -41.8039 H         1 UNK         0.0612 
    117 H117       18.6554  -31.2709  -40.9847 H         1 UNK         0.0612 
@<TRIPOS>BOND
     1    1    2 1    
     2    1   62 1    
     3    1   63 1    
     4    1   64 1    
     5    2    3 2    
     6    2    4 am   BACKBONE|DICT|INTERRES
     7    4    5 1    
     8    4   65 1    
     9    5    6 1    
    10    5   25 1    
    11    5   66 1    
    12    6    7 1    
    13    6   67 1    
    14    6   68 1    
    15    7    8 1    
    16    8    9 1    
    17    8   69 1    
    18    8   70 1    
    19    9   10 ar   
    20    9   14 ar   
    21   10   11 ar   
    22   10   71 1    
    23   11   12 ar   
    24   11   61 1    
    25   12   13 ar   
    26   12   72 1    
    27   13   14 ar   
    28   13   15 1    
    29   14   73 1    
    30   15   16 1    
    31   15   74 1    
    32   15   75 1    
    33   16   17 1    
    34   17   18 1    
    35   17   76 1    
    36   17   77 1    
    37   18   19 1    
    38   18   27 1    
    39   18   78 1    
    40   19   20 am   BACKBONE|DICT|INTERRES
    41   19   79 1    
    42   20   21 2    
    43   20   22 1    
    44   22   23 1    
    45   22   24 1    
    46   22   80 1    
    47   23   81 1    
    48   23   82 1    
    49   23   83 1    
    50   24   25 am   BACKBONE|DICT|INTERRES
    51   24   84 1    
    52   25   26 2    
    53   27   28 2    
    54   27   29 am   BACKBONE|DICT|INTERRES
    55   29   30 1    
    56   29   85 1    
    57   30   31 1    
    58   30   32 1    
    59   30   86 1    
    60   31   87 1    
    61   31   88 1    
    62   31   89 1    
    63   32   33 2    
    64   32   34 am   BACKBONE|DICT|INTERRES
    65   34   35 1    
    66   34   90 1    
    67   35   36 1    
    68   35   37 1    
    69   35   91 1    
    70   36   92 1    
    71   36   93 1    
    72   36   94 1    
    73   37   38 2    
    74   37   39 am   BACKBONE|DICT|INTERRES
    75   39   40 1    
    76   39   95 1    
    77   40   41 1    
    78   40   42 1    
    79   40   96 1    
    80   41   97 1    
    81   41   98 1    
    82   41   99 1    
    83   42   43 2    
    84   42   44 am   BACKBONE|DICT|INTERRES
    85   44   45 1    
    86   44  100 1    
    87   45   46 1    
    88   45   47 1    
    89   45  101 1    
    90   46  102 1    
    91   46  103 1    
    92   46  104 1    
    93   47   48 2    
    94   47   49 am   BACKBONE|DICT|INTERRES
    95   49   50 1    
    96   49  105 1    
    97   50   51 1    
    98   50   52 1    
    99   50  106 1    
   100   51  107 1    
   101   51  108 1    
   102   51  109 1    
   103   52   53 2    
   104   52   54 am   BACKBONE|DICT|INTERRES
   105   54   55 1    
   106   54  110 1    
   107   55   56 1    
   108   55   59 1    
   109   55  111 1    
   110   56   57 am   BACKBONE|DICT|INTERRES
   111   56   58 2    
   112   57  112 1    
   113   57  113 1    
   114   59   60 1    
   115   59  114 1    
   116   59  115 1    
   117   60   61 1    
   118   61  116 1    
   119   61  117 1    
@<TRIPOS>SUBSTRUCTURE
     1 UNK         1 GROUP             0       ****    0 ROOT    
