@<TRIPOS>MOLECULE
3R8
117   119    1
SMALL
USER_CHARGES


@<TRIPOS>ATOM
      1 CA         14.4450  -22.9279  -42.5641 C.3       0 UNK        -0.2013 
      2 C          15.6565  -23.5370  -43.2542 C.2       0 UNK         0.4866 
      3 O          16.7511  -22.9777  -43.1776 O.2       0 UNK        -0.5176 
      4 N          15.4679  -24.6728  -43.9361 N.am      1 UNK        -0.4884 
      5 CA         16.5280  -25.4458  -44.5906 C.3       1 UNK         0.0853 
      6 C6         15.9554  -26.3993  -45.6733 C.3       10 UNK        -0.0849 
      7 S7         14.6329  -27.5140  -45.0748 S.3       10 UNK        -0.2776 
      8 C8         15.1876  -29.1415  -45.6808 C.3       10 UNK         0.0316 
      9 C9         16.4811  -29.6079  -45.0252 C.ar      10 UNK        -0.0863 
     10 C10        16.5209  -29.8709  -43.6536 C.ar      10 UNK        -0.1009 
     11 C11        17.7000  -30.3126  -43.0489 C.ar      10 UNK        -0.0712 
     12 C12        18.8400  -30.5126  -43.8327 C.ar      10 UNK        -0.0894 
     13 C13        18.8204  -30.2534  -45.2099 C.ar      10 UNK        -0.0745 
     14 C14        17.6341  -29.7959  -45.7932 C.ar      10 UNK        -0.0972 
     15 C15        20.0517  -30.4285  -46.1035 C.3       10 UNK         0.0209 
     16 S16        21.3023  -31.6154  -45.4915 S.3       10 UNK        -0.2568 
     17 C17        22.6295  -30.6760  -44.6410 C.3       10 UNK        -0.0983 
     18 CA         22.5723  -29.1255  -44.5810 C.3       3 UNK         0.0876 
     19 N          21.4443  -28.6231  -43.7971 N.am      3 UNK        -0.4424 
     20 C          20.8446  -27.4492  -44.0253 C.2       2 UNK         0.4918 
     21 O          21.1738  -26.6756  -44.9279 O.2       2 UNK        -0.4875 
     22 CA         19.6905  -27.0605  -43.0956 C.3       2 UNK         0.0481 
     23 CB         20.1808  -26.1540  -41.9534 C.3       2 UNK        -0.1831 
     24 N          18.6871  -26.3674  -43.8964 N.am      2 UNK        -0.4498 
     25 C          17.4069  -26.1830  -43.5557 C.2       1 UNK         0.5027 
     26 O          16.9194  -26.5645  -42.4874 O.2       1 UNK        -0.4969 
     27 C          23.8556  -28.5832  -43.9309 C.2       3 UNK         0.5005 
     28 O          24.1387  -28.9552  -42.7902 O.2       3 UNK        -0.5279 
     29 N          24.5898  -27.7178  -44.6475 N.am      4 UNK        -0.4463 
     30 CA         25.8995  -27.1534  -44.2832 C.3       4 UNK         0.0283 
     31 CB         27.0011  -28.2148  -44.4829 C.3       4 UNK        -0.1875 
     32 C          25.9338  -26.5169  -42.8776 C.2       4 UNK         0.4949 
     33 O          26.8003  -26.8504  -42.0686 O.2       4 UNK        -0.5039 
     34 N          24.9613  -25.6301  -42.6160 N.am      5 UNK        -0.4663 
     35 CA         24.7164  -24.9432  -41.3381 C.3       5 UNK         0.0242 
     36 CB         25.8872  -24.0043  -40.9724 C.3       5 UNK        -0.1982 
     37 C          24.3332  -25.9114  -40.1986 C.2       5 UNK         0.5017 
     38 O          24.7764  -25.7372  -39.0623 O.2       5 UNK        -0.5012 
     39 N          23.4922  -26.8988  -40.5397 N.am      6 UNK        -0.4439 
     40 CA         22.9274  -27.9433  -39.6761 C.3       6 UNK         0.0297 
     41 CB         22.0814  -27.3424  -38.5317 C.3       6 UNK        -0.2006 
     42 C          23.9846  -28.9495  -39.1893 C.2       6 UNK         0.4892 
     43 O          23.9823  -29.3385  -38.0198 O.2       6 UNK        -0.5089 
     44 N          24.8513  -29.3779  -40.1145 N.am      7 UNK        -0.4243 
     45 CA         25.8001  -30.4736  -39.9180 C.3       7 UNK         0.0196 
     46 CB         26.9578  -30.3168  -40.9155 C.3       7 UNK        -0.2007 
     47 C          25.1329  -31.8493  -40.0934 C.2       7 UNK         0.5020 
     48 O          25.6545  -32.8387  -39.5784 O.2       7 UNK        -0.5147 
     49 N          24.0056  -31.8968  -40.8144 N.am      8 UNK        -0.4734 
     50 CA         23.2206  -33.0965  -41.0898 C.3       8 UNK         0.0238 
     51 CB         23.8179  -33.8335  -42.3052 C.3       8 UNK        -0.1912 
     52 C          21.7543  -32.7109  -41.3317 C.2       8 UNK         0.5038 
     53 O          21.4404  -31.5232  -41.4592 O.2       8 UNK        -0.5046 
     54 N          20.8932  -33.7304  -41.4033 N.am      9 UNK        -0.4200 
     55 CA         19.4624  -33.6331  -41.7217 C.3       9 UNK         0.0839 
     56 C          18.9116  -34.9721  -42.2945 C.2       9 UNK         0.5513 
     57 N          19.7187  -35.7490  -43.0091 N.am      9 UNK        -0.7519 
     58 O          17.7549  -35.3295  -42.0888 O.2       9 UNK        -0.4960 
     59 C59        18.6362  -33.0351  -40.5462 C.3       10 UNK        -0.0876 
     60 S60        17.1171  -32.1812  -41.0918 S.3       10 UNK        -0.2414 
     61 C61        17.7444  -30.5332  -41.5441 C.3       10 UNK         0.0169 
     62 H62        14.2652  -21.9211  -42.9401 H         1 UNK         0.0903 
     63 H63        13.5430  -23.5173  -42.7284 H         1 UNK         0.0903 
     64 H64        14.6179  -22.8652  -41.4900 H         1 UNK         0.0903 
     65 H65        14.5595  -25.1159  -43.9364 H         1 UNK         0.3096 
     66 H66        17.1752  -24.7295  -45.1029 H         1 UNK         0.1121 
     67 H67        15.5343  -25.8045  -46.4853 H         1 UNK         0.0849 
     68 H68        16.7578  -26.9795  -46.1318 H         1 UNK         0.0849 
     69 H69        14.4066  -29.8755  -45.4777 H         1 UNK         0.0865 
     70 H70        15.2898  -29.1014  -46.7665 H         1 UNK         0.0865 
     71 H71        15.6353  -29.7152  -43.0525 H         1 UNK         0.1346 
     72 H72        19.7487  -30.8505  -43.3581 H         1 UNK         0.1412 
     73 H73        17.6077  -29.5905  -46.8550 H         1 UNK         0.1426 
     74 H74        19.7178  -30.8117  -47.0689 H         1 UNK         0.0716 
     75 H75        20.4937  -29.4577  -46.3186 H         1 UNK         0.0716 
     76 H76        23.5564  -30.9789  -45.1323 H         1 UNK         0.0695 
     77 H77        22.7047  -31.0800  -43.6331 H         1 UNK         0.0695 
     78 H78        22.5189  -28.7500  -45.6047 H         1 UNK         0.0983 
     79 H79        21.1602  -29.1957  -43.0151 H         1 UNK         0.3095 
     80 H80        19.2487  -27.9633  -42.6728 H         1 UNK         0.0454 
     81 H81        20.6731  -25.2566  -42.3300 H         1 UNK         0.0851 
     82 H82        20.8911  -26.6826  -41.3228 H         1 UNK         0.0851 
     83 H83        19.3600  -25.8392  -41.3091 H         1 UNK         0.0851 
     84 H84        19.0287  -26.0465  -44.7941 H         1 UNK         0.2976 
     85 H85        24.2373  -27.4348  -45.5522 H         1 UNK         0.3116 
     86 H86        26.0962  -26.3427  -44.9865 H         1 UNK         0.0646 
     87 H87        26.8633  -29.0677  -43.8195 H         1 UNK         0.0847 
     88 H88        27.9893  -27.8000  -44.2802 H         1 UNK         0.0847 
     89 H89        27.0124  -28.5874  -45.5070 H         1 UNK         0.0847 
     90 H90        24.3024  -25.4291  -43.3565 H         1 UNK         0.3040 
     91 H91        23.8388  -24.3135  -41.4948 H         1 UNK         0.1015 
     92 H92        26.1229  -23.3254  -41.7918 H         1 UNK         0.0786 
     93 H93        26.7927  -24.5586  -40.7240 H         1 UNK         0.0786 
     94 H94        25.6379  -23.3900  -40.1062 H         1 UNK         0.0786 
     95 H95        23.2862  -26.9956  -41.5236 H         1 UNK         0.3172 
     96 H96        22.2491  -28.5180  -40.3091 H         1 UNK         0.0595 
     97 H97        22.6985  -26.8187  -37.8012 H         1 UNK         0.0839 
     98 H98        21.5438  -28.1252  -37.9953 H         1 UNK         0.0839 
     99 H99        21.3379  -26.6398  -38.9066 H         1 UNK         0.0839 
    100 H100       24.7457  -29.0399  -41.0704 H         1 UNK         0.2998 
    101 H101       26.2056  -30.4191  -38.9054 H         1 UNK         0.0822 
    102 H102       27.4382  -29.3427  -40.8193 H         1 UNK         0.0787 
    103 H103       27.7225  -31.0766  -40.7492 H         1 UNK         0.0787 
    104 H104       26.6118  -30.4210  -41.9440 H         1 UNK         0.0787 
    105 H105       23.6062  -31.0372  -41.1719 H         1 UNK         0.3055 
    106 H106       23.2508  -33.7500  -40.2148 H         1 UNK         0.1106 
    107 H107       23.2748  -34.7536  -42.5221 H         1 UNK         0.0828 
    108 H108       24.8565  -34.1132  -42.1281 H         1 UNK         0.0828 
    109 H109       23.7896  -33.2180  -43.2048 H         1 UNK         0.0828 
    110 H110       21.2315  -34.6734  -41.2710 H         1 UNK         0.2931 
    111 H111       19.3904  -32.9445  -42.5624 H         1 UNK         0.0412 
    112 H112       20.6508  -35.4533  -43.2511 H         1 UNK         0.3472 
    113 H113       19.3603  -36.6186  -43.3729 H         1 UNK         0.3472 
    114 H114       18.3650  -33.8156  -39.8334 H         1 UNK         0.0970 
    115 H115       19.2301  -32.3221  -39.9732 H         1 UNK         0.0970 
    116 H116       18.7593  -30.3894  -41.1704 H         1 UNK         0.0612 
    117 H117       17.1330  -29.7777  -41.0482 H         1 UNK         0.0612 
@<TRIPOS>BOND
     1    1    2 1    
     2    1   62 1    
     3    1   63 1    
     4    1   64 1    
     5    2    3 2    
     6    2    4 am   BACKBONE|DICT|INTERRES
     7    4    5 1    
     8    4   65 1    
     9    5    6 1    
    10    5   25 1    
    11    5   66 1    
    12    6    7 1    
    13    6   67 1    
    14    6   68 1    
    15    7    8 1    
    16    8    9 1    
    17    8   69 1    
    18    8   70 1    
    19    9   10 ar   
    20    9   14 ar   
    21   10   11 ar   
    22   10   71 1    
    23   11   12 ar   
    24   11   61 1    
    25   12   13 ar   
    26   12   72 1    
    27   13   14 ar   
    28   13   15 1    
    29   14   73 1    
    30   15   16 1    
    31   15   74 1    
    32   15   75 1    
    33   16   17 1    
    34   17   18 1    
    35   17   76 1    
    36   17   77 1    
    37   18   19 1    
    38   18   27 1    
    39   18   78 1    
    40   19   20 am   BACKBONE|DICT|INTERRES
    41   19   79 1    
    42   20   21 2    
    43   20   22 1    
    44   22   23 1    
    45   22   24 1    
    46   22   80 1    
    47   23   81 1    
    48   23   82 1    
    49   23   83 1    
    50   24   25 am   BACKBONE|DICT|INTERRES
    51   24   84 1    
    52   25   26 2    
    53   27   28 2    
    54   27   29 am   BACKBONE|DICT|INTERRES
    55   29   30 1    
    56   29   85 1    
    57   30   31 1    
    58   30   32 1    
    59   30   86 1    
    60   31   87 1    
    61   31   88 1    
    62   31   89 1    
    63   32   33 2    
    64   32   34 am   BACKBONE|DICT|INTERRES
    65   34   35 1    
    66   34   90 1    
    67   35   36 1    
    68   35   37 1    
    69   35   91 1    
    70   36   92 1    
    71   36   93 1    
    72   36   94 1    
    73   37   38 2    
    74   37   39 am   BACKBONE|DICT|INTERRES
    75   39   40 1    
    76   39   95 1    
    77   40   41 1    
    78   40   42 1    
    79   40   96 1    
    80   41   97 1    
    81   41   98 1    
    82   41   99 1    
    83   42   43 2    
    84   42   44 am   BACKBONE|DICT|INTERRES
    85   44   45 1    
    86   44  100 1    
    87   45   46 1    
    88   45   47 1    
    89   45  101 1    
    90   46  102 1    
    91   46  103 1    
    92   46  104 1    
    93   47   48 2    
    94   47   49 am   BACKBONE|DICT|INTERRES
    95   49   50 1    
    96   49  105 1    
    97   50   51 1    
    98   50   52 1    
    99   50  106 1    
   100   51  107 1    
   101   51  108 1    
   102   51  109 1    
   103   52   53 2    
   104   52   54 am   BACKBONE|DICT|INTERRES
   105   54   55 1    
   106   54  110 1    
   107   55   56 1    
   108   55   59 1    
   109   55  111 1    
   110   56   57 am   BACKBONE|DICT|INTERRES
   111   56   58 2    
   112   57  112 1    
   113   57  113 1    
   114   59   60 1    
   115   59  114 1    
   116   59  115 1    
   117   60   61 1    
   118   61  116 1    
   119   61  117 1    
@<TRIPOS>SUBSTRUCTURE
     1 UNK         1 GROUP             0       ****    0 ROOT    
