@<TRIPOS>MOLECULE
3R8
117   119    1
SMALL
USER_CHARGES


@<TRIPOS>ATOM
      1 CA         13.9886  -25.6571  -41.3140 C.3       0 UNK        -0.2013 
      2 C          15.0137  -26.1650  -42.3161 C.2       0 UNK         0.4866 
      3 O          16.0974  -26.5879  -41.9182 O.2       0 UNK        -0.5176 
      4 N          14.6872  -26.1093  -43.6141 N.am      1 UNK        -0.4884 
      5 CA         15.4752  -26.5621  -44.7730 C.3       1 UNK         0.0853 
      6 C6         15.8105  -28.0801  -44.7383 C.3       10 UNK        -0.0849 
      7 S7         15.8694  -28.8070  -46.4134 S.3       10 UNK        -0.2776 
      8 C8         15.7590  -30.5930  -46.0609 C.3       10 UNK         0.0316 
      9 C9         16.9678  -31.0798  -45.2770 C.ar      10 UNK        -0.0863 
     10 C10        16.8447  -31.4114  -43.9247 C.ar      10 UNK        -0.1009 
     11 C11        17.9711  -31.7722  -43.1802 C.ar      10 UNK        -0.0712 
     12 C12        19.2223  -31.8188  -43.8012 C.ar      10 UNK        -0.0894 
     13 C13        19.3559  -31.4951  -45.1536 C.ar      10 UNK        -0.0745 
     14 C14        18.2210  -31.1494  -45.8932 C.ar      10 UNK        -0.0972 
     15 C15        20.7390  -31.4430  -45.7893 C.3       10 UNK         0.0209 
     16 S16        21.1986  -29.7561  -46.3169 S.3       10 UNK        -0.2568 
     17 C17        20.6856  -28.7548  -44.8784 C.3       10 UNK        -0.0983 
     18 CA         21.2024  -27.2939  -44.9461 C.3       3 UNK         0.0876 
     19 N          20.2316  -26.3831  -44.3431 N.am      3 UNK        -0.4424 
     20 C          19.8152  -25.2269  -44.8646 C.2       2 UNK         0.4918 
     21 O          20.2236  -24.7577  -45.9292 O.2       2 UNK        -0.4875 
     22 CA         18.7119  -24.5112  -44.0633 C.3       2 UNK         0.0481 
     23 CB         18.4421  -23.0732  -44.5545 C.3       2 UNK        -0.1831 
     24 N          17.4731  -25.3015  -44.0363 N.am      2 UNK        -0.4498 
     25 C          16.7197  -25.6929  -45.0768 C.2       1 UNK         0.5027 
     26 O          16.9474  -25.3744  -46.2447 O.2       1 UNK        -0.4969 
     27 C          22.5864  -27.1186  -44.2870 C.2       3 UNK         0.5005 
     28 O          22.8157  -26.1527  -43.5526 O.2       3 UNK        -0.5279 
     29 N          23.4991  -28.0538  -44.5797 N.am      4 UNK        -0.4463 
     30 CA         24.8346  -28.1419  -43.9947 C.3       4 UNK         0.0283 
     31 CB         25.6829  -29.1302  -44.8143 C.3       4 UNK        -0.1875 
     32 C          24.7460  -28.5714  -42.5225 C.2       4 UNK         0.4949 
     33 O          24.5655  -29.7575  -42.2446 O.2       4 UNK        -0.5039 
     34 N          24.8914  -27.6041  -41.6074 N.am      5 UNK        -0.4663 
     35 CA         24.7720  -27.7800  -40.1535 C.3       5 UNK         0.0242 
     36 CB         24.8756  -26.4067  -39.4709 C.3       5 UNK        -0.1982 
     37 C          25.7728  -28.7701  -39.5303 C.2       5 UNK         0.5017 
     38 O          25.5090  -29.2835  -38.4430 O.2       5 UNK        -0.5012 
     39 N          26.8791  -29.0433  -40.2368 N.am      6 UNK        -0.4439 
     40 CA         27.8422  -30.1004  -39.9210 C.3       6 UNK         0.0297 
     41 CB         29.0646  -29.9627  -40.8429 C.3       6 UNK        -0.2006 
     42 C          27.2465  -31.5190  -40.0248 C.2       6 UNK         0.4892 
     43 O          27.7330  -32.4177  -39.3372 O.2       6 UNK        -0.5089 
     44 N          26.2131  -31.6933  -40.8620 N.am      7 UNK        -0.4243 
     45 CA         25.4107  -32.9089  -40.9485 C.3       7 UNK         0.0196 
     46 CB         24.9993  -33.1672  -42.4108 C.3       7 UNK        -0.2007 
     47 C          24.1989  -32.7698  -40.0177 C.2       7 UNK         0.5020 
     48 O          24.1562  -33.4366  -38.9836 O.2       7 UNK        -0.5147 
     49 N          23.2529  -31.8970  -40.3872 N.am      8 UNK        -0.4734 
     50 CA         22.0056  -31.6119  -39.6747 C.3       8 UNK         0.0238 
     51 CB         21.1098  -32.8685  -39.6060 C.3       8 UNK        -0.1912 
     52 C          21.2641  -30.4804  -40.3995 C.2       8 UNK         0.5038 
     53 O          21.5377  -30.2356  -41.5757 O.2       8 UNK        -0.5046 
     54 N          20.3135  -29.8471  -39.6980 N.am      9 UNK        -0.4200 
     55 CA         19.4333  -28.7794  -40.2110 C.3       9 UNK         0.0839 
     56 C          20.1884  -27.4809  -40.6242 C.2       9 UNK         0.5513 
     57 N          21.2397  -27.0985  -39.9116 N.am      9 UNK        -0.7519 
     58 O          19.8172  -26.8049  -41.5805 O.2       9 UNK        -0.4960 
     59 C59        18.4557  -29.2757  -41.3118 C.3       10 UNK        -0.0876 
     60 S60        17.3176  -30.5876  -40.7398 S.3       10 UNK        -0.2414 
     61 C61        17.8551  -32.0499  -41.6884 C.3       10 UNK         0.0169 
     62 H62        13.7220  -26.4516  -40.6174 H         1 UNK         0.0903 
     63 H63        14.4031  -24.8275  -40.7419 H         1 UNK         0.0903 
     64 H64        13.0763  -25.3123  -41.8004 H         1 UNK         0.0903 
     65 H65        13.7908  -25.7099  -43.8587 H         1 UNK         0.3096 
     66 H66        14.7980  -26.3980  -45.6135 H         1 UNK         0.1121 
     67 H67        15.0441  -28.6176  -44.1776 H         1 UNK         0.0849 
     68 H68        16.7505  -28.2742  -44.2168 H         1 UNK         0.0849 
     69 H69        14.8323  -30.8021  -45.5241 H         1 UNK         0.0865 
     70 H70        15.6963  -31.1389  -47.0033 H         1 UNK         0.0865 
     71 H71        15.8819  -31.3469  -43.4363 H         1 UNK         0.1346 
     72 H72        20.1012  -32.0611  -43.2188 H         1 UNK         0.1412 
     73 H73        18.3241  -30.8719  -46.9336 H         1 UNK         0.1426 
     74 H74        20.7666  -32.1083  -46.6531 H         1 UNK         0.0716 
     75 H75        21.4972  -31.8073  -45.0940 H         1 UNK         0.0716 
     76 H76        20.9804  -29.2495  -43.9512 H         1 UNK         0.0695 
     77 H77        19.5938  -28.7578  -44.8757 H         1 UNK         0.0695 
     78 H78        21.3263  -27.0192  -45.9960 H         1 UNK         0.0983 
     79 H79        19.9386  -26.6166  -43.3960 H         1 UNK         0.3095 
     80 H80        19.0597  -24.4446  -43.0313 H         1 UNK         0.0454 
     81 H81        17.6855  -22.5815  -43.9434 H         1 UNK         0.0851 
     82 H82        18.1033  -23.0493  -45.5905 H         1 UNK         0.0851 
     83 H83        19.3482  -22.4691  -44.4978 H         1 UNK         0.0851 
     84 H84        17.1910  -25.6576  -43.1251 H         1 UNK         0.2976 
     85 H85        23.2070  -28.8283  -45.1613 H         1 UNK         0.3116 
     86 H86        25.3087  -27.1598  -44.0531 H         1 UNK         0.0646 
     87 H87        25.2428  -30.1284  -44.8315 H         1 UNK         0.0847 
     88 H88        26.6851  -29.2251  -44.3944 H         1 UNK         0.0847 
     89 H89        25.7951  -28.7964  -45.8459 H         1 UNK         0.0847 
     90 H90        24.9968  -26.6541  -41.9366 H         1 UNK         0.3040 
     91 H91        23.7783  -28.1895  -39.9636 H         1 UNK         0.1015 
     92 H92        25.8476  -25.9432  -39.6445 H         1 UNK         0.0786 
     93 H93        24.7446  -26.4952  -38.3914 H         1 UNK         0.0786 
     94 H94        24.1077  -25.7228  -39.8328 H         1 UNK         0.0786 
     95 H95        27.0072  -28.5526  -41.1097 H         1 UNK         0.3172 
     96 H96        28.1715  -29.9554  -38.8899 H         1 UNK         0.0595 
     97 H97        28.7953  -30.0826  -41.8932 H         1 UNK         0.0839 
     98 H98        29.8141  -30.7209  -40.6112 H         1 UNK         0.0839 
     99 H99        29.5443  -28.9907  -40.7262 H         1 UNK         0.0839 
    100 H100       25.8369  -30.8867  -41.3530 H         1 UNK         0.2998 
    101 H101       25.9949  -33.7690  -40.6134 H         1 UNK         0.0822 
    102 H102       25.8742  -33.3377  -43.0382 H         1 UNK         0.0787 
    103 H103       24.3698  -34.0548  -42.4854 H         1 UNK         0.0787 
    104 H104       24.4423  -32.3357  -42.8429 H         1 UNK         0.0787 
    105 H105       23.3844  -31.3374  -41.2270 H         1 UNK         0.3055 
    106 H106       22.2536  -31.2756  -38.6658 H         1 UNK         0.1106 
    107 H107       20.1338  -32.6398  -39.1759 H         1 UNK         0.0828 
    108 H108       20.9417  -33.2931  -40.5962 H         1 UNK         0.0828 
    109 H109       21.5485  -33.6463  -38.9819 H         1 UNK         0.0828 
    110 H110       20.1519  -30.1165  -38.7386 H         1 UNK         0.2931 
    111 H111       18.8190  -28.4750  -39.3629 H         1 UNK         0.0412 
    112 H112       21.5325  -27.6240  -39.1044 H         1 UNK         0.3472 
    113 H113       21.7253  -26.2574  -40.1780 H         1 UNK         0.3472 
    114 H114       17.8242  -28.4558  -41.6531 H         1 UNK         0.0970 
    115 H115       19.0152  -29.5878  -42.1920 H         1 UNK         0.0970 
    116 H116       17.1414  -32.8587  -41.5273 H         1 UNK         0.0612 
    117 H117       18.8067  -32.3947  -41.2864 H         1 UNK         0.0612 
@<TRIPOS>BOND
     1    1    2 1    
     2    1   62 1    
     3    1   63 1    
     4    1   64 1    
     5    2    3 2    
     6    2    4 am   BACKBONE|DICT|INTERRES
     7    4    5 1    
     8    4   65 1    
     9    5    6 1    
    10    5   25 1    
    11    5   66 1    
    12    6    7 1    
    13    6   67 1    
    14    6   68 1    
    15    7    8 1    
    16    8    9 1    
    17    8   69 1    
    18    8   70 1    
    19    9   10 ar   
    20    9   14 ar   
    21   10   11 ar   
    22   10   71 1    
    23   11   12 ar   
    24   11   61 1    
    25   12   13 ar   
    26   12   72 1    
    27   13   14 ar   
    28   13   15 1    
    29   14   73 1    
    30   15   16 1    
    31   15   74 1    
    32   15   75 1    
    33   16   17 1    
    34   17   18 1    
    35   17   76 1    
    36   17   77 1    
    37   18   19 1    
    38   18   27 1    
    39   18   78 1    
    40   19   20 am   BACKBONE|DICT|INTERRES
    41   19   79 1    
    42   20   21 2    
    43   20   22 1    
    44   22   23 1    
    45   22   24 1    
    46   22   80 1    
    47   23   81 1    
    48   23   82 1    
    49   23   83 1    
    50   24   25 am   BACKBONE|DICT|INTERRES
    51   24   84 1    
    52   25   26 2    
    53   27   28 2    
    54   27   29 am   BACKBONE|DICT|INTERRES
    55   29   30 1    
    56   29   85 1    
    57   30   31 1    
    58   30   32 1    
    59   30   86 1    
    60   31   87 1    
    61   31   88 1    
    62   31   89 1    
    63   32   33 2    
    64   32   34 am   BACKBONE|DICT|INTERRES
    65   34   35 1    
    66   34   90 1    
    67   35   36 1    
    68   35   37 1    
    69   35   91 1    
    70   36   92 1    
    71   36   93 1    
    72   36   94 1    
    73   37   38 2    
    74   37   39 am   BACKBONE|DICT|INTERRES
    75   39   40 1    
    76   39   95 1    
    77   40   41 1    
    78   40   42 1    
    79   40   96 1    
    80   41   97 1    
    81   41   98 1    
    82   41   99 1    
    83   42   43 2    
    84   42   44 am   BACKBONE|DICT|INTERRES
    85   44   45 1    
    86   44  100 1    
    87   45   46 1    
    88   45   47 1    
    89   45  101 1    
    90   46  102 1    
    91   46  103 1    
    92   46  104 1    
    93   47   48 2    
    94   47   49 am   BACKBONE|DICT|INTERRES
    95   49   50 1    
    96   49  105 1    
    97   50   51 1    
    98   50   52 1    
    99   50  106 1    
   100   51  107 1    
   101   51  108 1    
   102   51  109 1    
   103   52   53 2    
   104   52   54 am   BACKBONE|DICT|INTERRES
   105   54   55 1    
   106   54  110 1    
   107   55   56 1    
   108   55   59 1    
   109   55  111 1    
   110   56   57 am   BACKBONE|DICT|INTERRES
   111   56   58 2    
   112   57  112 1    
   113   57  113 1    
   114   59   60 1    
   115   59  114 1    
   116   59  115 1    
   117   60   61 1    
   118   61  116 1    
   119   61  117 1    
@<TRIPOS>SUBSTRUCTURE
     1 UNK         1 GROUP             0       ****    0 ROOT    
