@<TRIPOS>MOLECULE
3R8
117   119    1
SMALL
USER_CHARGES


@<TRIPOS>ATOM
      1 CA         14.3816  -23.5592  -46.6765 C.3       0 UNK        -0.2013 
      2 C          15.8496  -23.9478  -46.5816 C.2       0 UNK         0.4866 
      3 O          16.7119  -23.2030  -47.0493 O.2       0 UNK        -0.5176 
      4 N          16.1399  -25.1123  -45.9888 N.am      1 UNK        -0.4884 
      5 CA         17.4970  -25.6212  -45.7669 C.3       1 UNK         0.0853 
      6 C6         17.4902  -27.1003  -45.3171 C.3       10 UNK        -0.0849 
      7 S7         16.8720  -28.2471  -46.5890 S.3       10 UNK        -0.2776 
      8 C8         16.1257  -29.5505  -45.5535 C.3       10 UNK         0.0316 
      9 C9         17.0702  -30.0431  -44.4619 C.ar      10 UNK        -0.0863 
     10 C10        18.2004  -30.7968  -44.7910 C.ar      10 UNK        -0.1009 
     11 C11        19.0613  -31.2598  -43.7912 C.ar      10 UNK        -0.0712 
     12 C12        18.7856  -30.9645  -42.4525 C.ar      10 UNK        -0.0894 
     13 C13        17.6625  -30.2038  -42.1101 C.ar      10 UNK        -0.0745 
     14 C14        16.8094  -29.7478  -43.1196 C.ar      10 UNK        -0.0972 
     15 C15        17.3368  -29.9141  -40.6497 C.3       10 UNK         0.0209 
     16 S16        18.6782  -29.0515  -39.7690 S.3       10 UNK        -0.2568 
     17 C17        18.6967  -27.4037  -40.5592 C.3       10 UNK        -0.0983 
     18 CA         20.0328  -27.0880  -41.2788 C.3       3 UNK         0.0876 
     19 N          19.9108  -25.9037  -42.1408 N.am      3 UNK        -0.4424 
     20 C          20.8725  -25.4169  -42.9386 C.2       2 UNK         0.4918 
     21 O          22.0048  -25.8968  -43.0119 O.2       2 UNK        -0.4875 
     22 CA         20.4847  -24.2190  -43.8236 C.3       2 UNK         0.0481 
     23 CB         21.7053  -23.5561  -44.4878 C.3       2 UNK        -0.1831 
     24 N          19.5607  -24.6755  -44.8604 N.am      2 UNK        -0.4498 
     25 C          18.2382  -24.8009  -44.6955 C.2       1 UNK         0.5027 
     26 O          17.6324  -24.3996  -43.6976 O.2       1 UNK        -0.4969 
     27 C          21.2185  -26.9860  -40.2917 C.2       3 UNK         0.5005 
     28 O          21.9370  -27.9673  -40.1034 O.2       3 UNK        -0.5279 
     29 N          21.4449  -25.7863  -39.7353 N.am      4 UNK        -0.4463 
     30 CA         22.5653  -25.4801  -38.8403 C.3       4 UNK         0.0283 
     31 CB         22.3710  -24.0761  -38.2456 C.3       4 UNK        -0.1875 
     32 C          23.9499  -25.5917  -39.5076 C.2       4 UNK         0.4949 
     33 O          24.9205  -25.9038  -38.8178 O.2       4 UNK        -0.5039 
     34 N          24.0216  -25.3398  -40.8224 N.am      5 UNK        -0.4663 
     35 CA         25.2383  -25.4962  -41.6219 C.3       5 UNK         0.0242 
     36 CB         25.2035  -24.5289  -42.8166 C.3       5 UNK        -0.1982 
     37 C          25.4120  -26.9458  -42.0996 C.2       5 UNK         0.5017 
     38 O          26.5356  -27.4493  -42.0930 O.2       5 UNK        -0.5012 
     39 N          24.3034  -27.5862  -42.5012 N.am      6 UNK        -0.4439 
     40 CA         24.2569  -28.9799  -42.9512 C.3       6 UNK         0.0297 
     41 CB         22.8780  -29.2811  -43.5619 C.3       6 UNK        -0.2006 
     42 C          24.5802  -29.9857  -41.8332 C.2       6 UNK         0.4892 
     43 O          25.2849  -30.9618  -42.0895 O.2       6 UNK        -0.5089 
     44 N          24.0571  -29.7284  -40.6256 N.am      7 UNK        -0.4243 
     45 CA         24.1656  -30.4997  -39.3811 C.3       7 UNK         0.0196 
     46 CB         25.6307  -30.6843  -38.9394 C.3       7 UNK        -0.2007 
     47 C          23.4050  -31.8368  -39.4024 C.2       7 UNK         0.5020 
     48 O          22.6449  -32.1062  -38.4719 O.2       7 UNK        -0.5147 
     49 N          23.6020  -32.6452  -40.4479 N.am      8 UNK        -0.4734 
     50 CA         22.9392  -33.9277  -40.6696 C.3       8 UNK         0.0238 
     51 CB         23.5919  -35.0203  -39.8009 C.3       8 UNK        -0.1912 
     52 C          23.0271  -34.2909  -42.1558 C.2       8 UNK         0.5038 
     53 O          23.9647  -33.8652  -42.8344 O.2       8 UNK        -0.5046 
     54 N          22.0658  -35.0897  -42.6256 N.am      9 UNK        -0.4200 
     55 CA         21.9764  -35.5768  -44.0108 C.3       9 UNK         0.0839 
     56 C          21.2489  -36.9465  -44.1422 C.2       9 UNK         0.5513 
     57 N          21.0239  -37.6857  -43.0610 N.am      9 UNK        -0.7519 
     58 O          20.9024  -37.3649  -45.2441 O.2       9 UNK        -0.4960 
     59 C59        21.4625  -34.4898  -44.9977 C.3       10 UNK        -0.0876 
     60 S60        19.8324  -33.7972  -44.5487 S.3       10 UNK        -0.2414 
     61 C61        20.2861  -32.0793  -44.1626 C.3       10 UNK         0.0169 
     62 H62        14.0942  -23.4302  -47.7196 H         1 UNK         0.0903 
     63 H63        13.7303  -24.3142  -46.2365 H         1 UNK         0.0903 
     64 H64        14.2088  -22.6176  -46.1561 H         1 UNK         0.0903 
     65 H65        15.3940  -25.6819  -45.6160 H         1 UNK         0.3096 
     66 H66        18.0460  -25.5394  -46.7080 H         1 UNK         0.1121 
     67 H67        16.8901  -27.2060  -44.4111 H         1 UNK         0.0849 
     68 H68        18.4959  -27.4367  -45.0533 H         1 UNK         0.0849 
     69 H69        15.1995  -29.1702  -45.1198 H         1 UNK         0.0865 
     70 H70        15.8398  -30.3894  -46.1895 H         1 UNK         0.0865 
     71 H71        18.4083  -31.0266  -45.8274 H         1 UNK         0.1346 
     72 H72        19.4425  -31.3277  -41.6737 H         1 UNK         0.1412 
     73 H73        15.9337  -29.1688  -42.8592 H         1 UNK         0.1426 
     74 H74        17.1429  -30.8609  -40.1438 H         1 UNK         0.0716 
     75 H75        16.4212  -29.3276  -40.5588 H         1 UNK         0.0716 
     76 H76        18.4784  -26.6513  -39.7991 H         1 UNK         0.0695 
     77 H77        17.8731  -27.3532  -41.2733 H         1 UNK         0.0695 
     78 H78        20.2499  -27.9243  -41.9465 H         1 UNK         0.0983 
     79 H79        19.0045  -25.4540  -42.1672 H         1 UNK         0.3095 
     80 H80        20.0012  -23.4709  -43.1919 H         1 UNK         0.0454 
     81 H81        21.4089  -22.7015  -45.0960 H         1 UNK         0.0851 
     82 H82        22.2496  -24.2502  -45.1294 H         1 UNK         0.0851 
     83 H83        22.4048  -23.1887  -43.7360 H         1 UNK         0.0851 
     84 H84        19.9864  -25.0644  -45.6904 H         1 UNK         0.2976 
     85 H85        20.8113  -25.0303  -39.9515 H         1 UNK         0.3116 
     86 H86        22.5402  -26.2029  -38.0219 H         1 UNK         0.0646 
     87 H87        21.4365  -24.0050  -37.6887 H         1 UNK         0.0847 
     88 H88        22.3634  -23.3062  -39.0182 H         1 UNK         0.0847 
     89 H89        23.1770  -23.8320  -37.5520 H         1 UNK         0.0847 
     90 H90        23.1689  -25.1409  -41.3287 H         1 UNK         0.3040 
     91 H91        26.1060  -25.2402  -41.0090 H         1 UNK         0.1015 
     92 H92        26.1327  -24.5835  -43.3852 H         1 UNK         0.0786 
     93 H93        25.0849  -23.4961  -42.4887 H         1 UNK         0.0786 
     94 H94        24.3903  -24.7591  -43.5051 H         1 UNK         0.0786 
     95 H95        23.4321  -27.0635  -42.5296 H         1 UNK         0.3172 
     96 H96        25.0078  -29.0989  -43.7350 H         1 UNK         0.0595 
     97 H97        22.0821  -29.2119  -42.8201 H         1 UNK         0.0839 
     98 H98        22.8513  -30.2905  -43.9742 H         1 UNK         0.0839 
     99 H99        22.6411  -28.5926  -44.3733 H         1 UNK         0.0839 
    100 H100       23.4187  -28.9364  -40.5552 H         1 UNK         0.2998 
    101 H101       23.6782  -29.8804  -38.6259 H         1 UNK         0.0822 
    102 H102       26.1460  -29.7261  -38.8712 H         1 UNK         0.0787 
    103 H103       25.6817  -31.1524  -37.9556 H         1 UNK         0.0787 
    104 H104       26.1907  -31.3186  -39.6269 H         1 UNK         0.0787 
    105 H105       24.2276  -32.3409  -41.1931 H         1 UNK         0.3055 
    106 H106       21.8850  -33.8274  -40.4006 H         1 UNK         0.1106 
    107 H107       24.6538  -35.1288  -40.0254 H         1 UNK         0.0828 
    108 H108       23.1219  -35.9902  -39.9676 H         1 UNK         0.0828 
    109 H109       23.4967  -34.7971  -38.7382 H         1 UNK         0.0828 
    110 H110       21.3146  -35.3823  -42.0176 H         1 UNK         0.2931 
    111 H111       22.9955  -35.8150  -44.3216 H         1 UNK         0.0412 
    112 H112       20.5568  -38.5729  -43.1695 H         1 UNK         0.3472 
    113 H113       21.3624  -37.4105  -42.1537 H         1 UNK         0.3472 
    114 H114       22.1948  -33.6834  -45.0561 H         1 UNK         0.0970 
    115 H115       21.4014  -34.8867  -46.0125 H         1 UNK         0.0970 
    116 H116       20.7767  -31.6291  -45.0269 H         1 UNK         0.0612 
    117 H117       21.0145  -32.0719  -43.3500 H         1 UNK         0.0612 
@<TRIPOS>BOND
     1    1    2 1    
     2    1   62 1    
     3    1   63 1    
     4    1   64 1    
     5    2    3 2    
     6    2    4 am   BACKBONE|DICT|INTERRES
     7    4    5 1    
     8    4   65 1    
     9    5    6 1    
    10    5   25 1    
    11    5   66 1    
    12    6    7 1    
    13    6   67 1    
    14    6   68 1    
    15    7    8 1    
    16    8    9 1    
    17    8   69 1    
    18    8   70 1    
    19    9   10 ar   
    20    9   14 ar   
    21   10   11 ar   
    22   10   71 1    
    23   11   12 ar   
    24   11   61 1    
    25   12   13 ar   
    26   12   72 1    
    27   13   14 ar   
    28   13   15 1    
    29   14   73 1    
    30   15   16 1    
    31   15   74 1    
    32   15   75 1    
    33   16   17 1    
    34   17   18 1    
    35   17   76 1    
    36   17   77 1    
    37   18   19 1    
    38   18   27 1    
    39   18   78 1    
    40   19   20 am   BACKBONE|DICT|INTERRES
    41   19   79 1    
    42   20   21 2    
    43   20   22 1    
    44   22   23 1    
    45   22   24 1    
    46   22   80 1    
    47   23   81 1    
    48   23   82 1    
    49   23   83 1    
    50   24   25 am   BACKBONE|DICT|INTERRES
    51   24   84 1    
    52   25   26 2    
    53   27   28 2    
    54   27   29 am   BACKBONE|DICT|INTERRES
    55   29   30 1    
    56   29   85 1    
    57   30   31 1    
    58   30   32 1    
    59   30   86 1    
    60   31   87 1    
    61   31   88 1    
    62   31   89 1    
    63   32   33 2    
    64   32   34 am   BACKBONE|DICT|INTERRES
    65   34   35 1    
    66   34   90 1    
    67   35   36 1    
    68   35   37 1    
    69   35   91 1    
    70   36   92 1    
    71   36   93 1    
    72   36   94 1    
    73   37   38 2    
    74   37   39 am   BACKBONE|DICT|INTERRES
    75   39   40 1    
    76   39   95 1    
    77   40   41 1    
    78   40   42 1    
    79   40   96 1    
    80   41   97 1    
    81   41   98 1    
    82   41   99 1    
    83   42   43 2    
    84   42   44 am   BACKBONE|DICT|INTERRES
    85   44   45 1    
    86   44  100 1    
    87   45   46 1    
    88   45   47 1    
    89   45  101 1    
    90   46  102 1    
    91   46  103 1    
    92   46  104 1    
    93   47   48 2    
    94   47   49 am   BACKBONE|DICT|INTERRES
    95   49   50 1    
    96   49  105 1    
    97   50   51 1    
    98   50   52 1    
    99   50  106 1    
   100   51  107 1    
   101   51  108 1    
   102   51  109 1    
   103   52   53 2    
   104   52   54 am   BACKBONE|DICT|INTERRES
   105   54   55 1    
   106   54  110 1    
   107   55   56 1    
   108   55   59 1    
   109   55  111 1    
   110   56   57 am   BACKBONE|DICT|INTERRES
   111   56   58 2    
   112   57  112 1    
   113   57  113 1    
   114   59   60 1    
   115   59  114 1    
   116   59  115 1    
   117   60   61 1    
   118   61  116 1    
   119   61  117 1    
@<TRIPOS>SUBSTRUCTURE
     1 UNK         1 GROUP             0       ****    0 ROOT    
