@<TRIPOS>MOLECULE
3R8
117   119    1
SMALL
USER_CHARGES


@<TRIPOS>ATOM
      1 CA         15.6820  -23.2193  -46.6571 C.3       0 UNK        -0.2013 
      2 C          16.5680  -24.3316  -46.1179 C.2       0 UNK         0.4866 
      3 O          17.3577  -24.9029  -46.8677 O.2       0 UNK        -0.5176 
      4 N          16.4633  -24.6266  -44.8153 N.am      1 UNK        -0.4884 
      5 CA         17.1690  -25.7132  -44.1130 C.3       1 UNK         0.0853 
      6 C6         16.4050  -26.1419  -42.8329 C.3       10 UNK        -0.0849 
      7 S7         14.8456  -26.9885  -43.2872 S.3       10 UNK        -0.2776 
      8 C8         15.1067  -28.7407  -42.8217 C.3       10 UNK         0.0316 
      9 C9         16.5335  -29.2341  -43.0341 C.ar      10 UNK        -0.0863 
     10 C10        17.3174  -29.5736  -41.9293 C.ar      10 UNK        -0.1009 
     11 C11        18.6431  -29.9793  -42.0929 C.ar      10 UNK        -0.0712 
     12 C12        19.1945  -30.0241  -43.3782 C.ar      10 UNK        -0.0894 
     13 C13        18.4259  -29.6782  -44.4965 C.ar      10 UNK        -0.0745 
     14 C14        17.0831  -29.3196  -44.3168 C.ar      10 UNK        -0.0972 
     15 C15        19.0531  -29.6557  -45.8896 C.3       10 UNK         0.0209 
     16 S16        18.8150  -28.0323  -46.6848 S.3       10 UNK        -0.2568 
     17 C17        20.3252  -27.7601  -47.6811 C.3       10 UNK        -0.0983 
     18 CA         21.4187  -26.8802  -46.9995 C.3       3 UNK         0.0876 
     19 N          20.8491  -25.8478  -46.1213 N.am      3 UNK        -0.4424 
     20 C          21.4958  -24.9726  -45.3363 C.2       2 UNK         0.4918 
     21 O          22.7215  -24.8920  -45.2620 O.2       2 UNK        -0.4875 
     22 CA         20.6365  -24.0154  -44.4806 C.3       2 UNK         0.0481 
     23 CB         20.7812  -22.5707  -44.9858 C.3       2 UNK        -0.1831 
     24 N          19.2114  -24.3593  -44.4417 N.am      2 UNK        -0.4498 
     25 C          18.6724  -25.4404  -43.8592 C.2       1 UNK         0.5027 
     26 O          19.3323  -26.2342  -43.1888 O.2       1 UNK        -0.4969 
     27 C          22.5015  -27.7592  -46.3427 C.2       3 UNK         0.5005 
     28 O          23.5256  -28.0199  -46.9771 O.2       3 UNK        -0.5279 
     29 N          22.2657  -28.1981  -45.1007 N.am      4 UNK        -0.4463 
     30 CA         23.1697  -29.0684  -44.3461 C.3       4 UNK         0.0283 
     31 CB         23.1191  -30.5069  -44.9081 C.3       4 UNK        -0.1875 
     32 C          22.8410  -28.9986  -42.8489 C.2       4 UNK         0.4949 
     33 O          22.8404  -30.0336  -42.1803 O.2       4 UNK        -0.5039 
     34 N          22.5485  -27.7832  -42.3609 N.am      5 UNK        -0.4663 
     35 CA         21.9533  -27.4697  -41.0529 C.3       5 UNK         0.0242 
     36 CB         21.9581  -25.9462  -40.8470 C.3       5 UNK        -0.1982 
     37 C          22.5836  -28.1610  -39.8314 C.2       5 UNK         0.5017 
     38 O          21.8508  -28.5922  -38.9420 O.2       5 UNK        -0.5012 
     39 N          23.9180  -28.2537  -39.8174 N.am      6 UNK        -0.4439 
     40 CA         24.7032  -28.8938  -38.7574 C.3       6 UNK         0.0297 
     41 CB         25.6690  -27.8510  -38.1653 C.3       6 UNK        -0.2006 
     42 C          25.4681  -30.1328  -39.2585 C.2       6 UNK         0.4892 
     43 O          26.2594  -30.6885  -38.4955 O.2       6 UNK        -0.5089 
     44 N          25.2484  -30.5352  -40.5180 N.am      7 UNK        -0.4243 
     45 CA         25.9527  -31.6398  -41.1709 C.3       7 UNK         0.0196 
     46 CB         26.4844  -31.1756  -42.5372 C.3       7 UNK        -0.2007 
     47 C          25.0487  -32.8692  -41.3154 C.2       7 UNK         0.5020 
     48 O          25.4685  -33.9684  -40.9541 O.2       7 UNK        -0.5147 
     49 N          23.8236  -32.6724  -41.8213 N.am      8 UNK        -0.4734 
     50 CA         22.8318  -33.7398  -41.9847 C.3       8 UNK         0.0238 
     51 CB         21.8518  -33.3691  -43.1093 C.3       8 UNK        -0.1912 
     52 C          22.0658  -34.0149  -40.6843 C.2       8 UNK         0.5038 
     53 O          21.7280  -35.1681  -40.4142 O.2       8 UNK        -0.5046 
     54 N          21.8095  -32.9508  -39.9153 N.am      9 UNK        -0.4200 
     55 CA         21.0558  -32.9813  -38.6528 C.3       9 UNK         0.0839 
     56 C          21.9648  -33.0371  -37.3911 C.2       9 UNK         0.5513 
     57 N          23.2835  -33.1252  -37.5214 N.am      9 UNK        -0.7519 
     58 O          21.4641  -33.0142  -36.2698 O.2       9 UNK        -0.4960 
     59 C59        20.0330  -31.8174  -38.5728 C.3       10 UNK        -0.0876 
     60 S60        18.8797  -31.7844  -39.9910 S.3       10 UNK        -0.2414 
     61 C61        19.4830  -30.3099  -40.8681 C.3       10 UNK         0.0169 
     62 H62        15.0403  -23.6040  -47.4494 H         1 UNK         0.0903 
     63 H63        15.0450  -22.7924  -45.8826 H         1 UNK         0.0903 
     64 H64        16.2941  -22.4193  -47.0730 H         1 UNK         0.0903 
     65 H65        15.8015  -24.1125  -44.2505 H         1 UNK         0.3096 
     66 H66        17.1712  -26.5712  -44.7860 H         1 UNK         0.1121 
     67 H67        17.0054  -26.7911  -42.1954 H         1 UNK         0.0849 
     68 H68        16.1702  -25.2718  -42.2178 H         1 UNK         0.0849 
     69 H69        14.8130  -28.8635  -41.7780 H         1 UNK         0.0865 
     70 H70        14.4231  -29.3643  -43.3994 H         1 UNK         0.0865 
     71 H71        16.9027  -29.5110  -40.9323 H         1 UNK         0.1346 
     72 H72        20.2284  -30.3097  -43.5028 H         1 UNK         0.1412 
     73 H73        16.4802  -29.0487  -45.1730 H         1 UNK         0.1426 
     74 H74        18.5966  -30.4297  -46.5075 H         1 UNK         0.0716 
     75 H75        20.1171  -29.8855  -45.8381 H         1 UNK         0.0716 
     76 H76        20.7166  -28.7195  -48.0267 H         1 UNK         0.0695 
     77 H77        19.9951  -27.2515  -48.5882 H         1 UNK         0.0695 
     78 H78        21.9346  -26.3341  -47.7922 H         1 UNK         0.0983 
     79 H79        19.8384  -25.8217  -46.1134 H         1 UNK         0.3095 
     80 H80        21.0212  -24.0562  -43.4609 H         1 UNK         0.0454 
     81 H81        21.8270  -22.2598  -44.9901 H         1 UNK         0.0851 
     82 H82        20.4046  -22.4588  -46.0033 H         1 UNK         0.0851 
     83 H83        20.2419  -21.8703  -44.3479 H         1 UNK         0.0851 
     84 H84        18.5931  -23.7836  -44.9956 H         1 UNK         0.2976 
     85 H85        21.4023  -27.9308  -44.6440 H         1 UNK         0.3116 
     86 H86        24.1894  -28.6926  -44.4523 H         1 UNK         0.0646 
     87 H87        23.7739  -31.1796  -44.3566 H         1 UNK         0.0847 
     88 H88        23.4426  -30.5434  -45.9480 H         1 UNK         0.0847 
     89 H89        22.1130  -30.9209  -44.8616 H         1 UNK         0.0847 
     90 H90        22.6358  -27.0004  -42.9936 H         1 UNK         0.3040 
     91 H91        20.9119  -27.7916  -41.1024 H         1 UNK         0.1015 
     92 H92        21.3668  -25.4419  -41.6093 H         1 UNK         0.0786 
     93 H93        22.9679  -25.5353  -40.8768 H         1 UNK         0.0786 
     94 H94        21.5244  -25.6791  -39.8821 H         1 UNK         0.0786 
     95 H95        24.4320  -27.8604  -40.5937 H         1 UNK         0.3172 
     96 H96        24.0508  -29.2417  -37.9540 H         1 UNK         0.0595 
     97 H97        26.2388  -28.2681  -37.3337 H         1 UNK         0.0839 
     98 H98        25.1291  -26.9856  -37.7807 H         1 UNK         0.0839 
     99 H99        26.3860  -27.4970  -38.9070 H         1 UNK         0.0839 
    100 H100       24.5062  -30.0899  -41.0450 H         1 UNK         0.2998 
    101 H101       26.8161  -31.9448  -40.5751 H         1 UNK         0.0822 
    102 H102       27.2405  -30.3993  -42.4184 H         1 UNK         0.0787 
    103 H103       26.9506  -32.0001  -43.0785 H         1 UNK         0.0787 
    104 H104       25.6951  -30.7717  -43.1691 H         1 UNK         0.0787 
    105 H105       23.5271  -31.7302  -42.0651 H         1 UNK         0.3055 
    106 H106       23.3401  -34.6640  -42.2704 H         1 UNK         0.1106 
    107 H107       21.3409  -32.4274  -42.9069 H         1 UNK         0.0828 
    108 H108       22.3648  -33.2812  -44.0664 H         1 UNK         0.0828 
    109 H109       21.0845  -34.1356  -43.2271 H         1 UNK         0.0828 
    110 H110       22.1423  -32.0470  -40.2154 H         1 UNK         0.2931 
    111 H111       20.4739  -33.9043  -38.6198 H         1 UNK         0.0412 
    112 H112       23.7058  -33.1801  -38.4340 H         1 UNK         0.3472 
    113 H113       23.8591  -33.1655  -36.6949 H         1 UNK         0.3472 
    114 H114       19.4298  -31.9070  -37.6674 H         1 UNK         0.0970 
    115 H115       20.5502  -30.8606  -38.4896 H         1 UNK         0.0970 
    116 H116       19.4603  -29.4591  -40.1863 H         1 UNK         0.0612 
    117 H117       20.5250  -30.4670  -41.1426 H         1 UNK         0.0612 
@<TRIPOS>BOND
     1    1    2 1    
     2    1   62 1    
     3    1   63 1    
     4    1   64 1    
     5    2    3 2    
     6    2    4 am   BACKBONE|DICT|INTERRES
     7    4    5 1    
     8    4   65 1    
     9    5    6 1    
    10    5   25 1    
    11    5   66 1    
    12    6    7 1    
    13    6   67 1    
    14    6   68 1    
    15    7    8 1    
    16    8    9 1    
    17    8   69 1    
    18    8   70 1    
    19    9   10 ar   
    20    9   14 ar   
    21   10   11 ar   
    22   10   71 1    
    23   11   12 ar   
    24   11   61 1    
    25   12   13 ar   
    26   12   72 1    
    27   13   14 ar   
    28   13   15 1    
    29   14   73 1    
    30   15   16 1    
    31   15   74 1    
    32   15   75 1    
    33   16   17 1    
    34   17   18 1    
    35   17   76 1    
    36   17   77 1    
    37   18   19 1    
    38   18   27 1    
    39   18   78 1    
    40   19   20 am   BACKBONE|DICT|INTERRES
    41   19   79 1    
    42   20   21 2    
    43   20   22 1    
    44   22   23 1    
    45   22   24 1    
    46   22   80 1    
    47   23   81 1    
    48   23   82 1    
    49   23   83 1    
    50   24   25 am   BACKBONE|DICT|INTERRES
    51   24   84 1    
    52   25   26 2    
    53   27   28 2    
    54   27   29 am   BACKBONE|DICT|INTERRES
    55   29   30 1    
    56   29   85 1    
    57   30   31 1    
    58   30   32 1    
    59   30   86 1    
    60   31   87 1    
    61   31   88 1    
    62   31   89 1    
    63   32   33 2    
    64   32   34 am   BACKBONE|DICT|INTERRES
    65   34   35 1    
    66   34   90 1    
    67   35   36 1    
    68   35   37 1    
    69   35   91 1    
    70   36   92 1    
    71   36   93 1    
    72   36   94 1    
    73   37   38 2    
    74   37   39 am   BACKBONE|DICT|INTERRES
    75   39   40 1    
    76   39   95 1    
    77   40   41 1    
    78   40   42 1    
    79   40   96 1    
    80   41   97 1    
    81   41   98 1    
    82   41   99 1    
    83   42   43 2    
    84   42   44 am   BACKBONE|DICT|INTERRES
    85   44   45 1    
    86   44  100 1    
    87   45   46 1    
    88   45   47 1    
    89   45  101 1    
    90   46  102 1    
    91   46  103 1    
    92   46  104 1    
    93   47   48 2    
    94   47   49 am   BACKBONE|DICT|INTERRES
    95   49   50 1    
    96   49  105 1    
    97   50   51 1    
    98   50   52 1    
    99   50  106 1    
   100   51  107 1    
   101   51  108 1    
   102   51  109 1    
   103   52   53 2    
   104   52   54 am   BACKBONE|DICT|INTERRES
   105   54   55 1    
   106   54  110 1    
   107   55   56 1    
   108   55   59 1    
   109   55  111 1    
   110   56   57 am   BACKBONE|DICT|INTERRES
   111   56   58 2    
   112   57  112 1    
   113   57  113 1    
   114   59   60 1    
   115   59  114 1    
   116   59  115 1    
   117   60   61 1    
   118   61  116 1    
   119   61  117 1    
@<TRIPOS>SUBSTRUCTURE
     1 UNK         1 GROUP             0       ****    0 ROOT    
