@<TRIPOS>MOLECULE
3R8
117   119    1
SMALL
USER_CHARGES


@<TRIPOS>ATOM
      1 CA         15.7385  -24.9409  -48.3850 C.3       0 UNK        -0.2013 
      2 C          16.7912  -24.3515  -47.4579 C.2       0 UNK         0.4866 
      3 O          16.7357  -23.1609  -47.1469 O.2       0 UNK        -0.5176 
      4 N          17.7557  -25.1731  -47.0232 N.am      1 UNK        -0.4884 
      5 CA         18.8090  -24.8004  -46.0714 C.3       1 UNK         0.0853 
      6 C6         20.0421  -25.7509  -46.1928 C.3       10 UNK        -0.0849 
      7 S7         20.1264  -27.1897  -45.0655 S.3       10 UNK        -0.2776 
      8 C8         18.9286  -28.3281  -45.8315 C.3       10 UNK         0.0316 
      9 C9         18.5345  -29.4278  -44.8592 C.ar      10 UNK        -0.0863 
     10 C10        18.8783  -30.7599  -45.0999 C.ar      10 UNK        -0.1009 
     11 C11        18.5195  -31.7601  -44.1900 C.ar      10 UNK        -0.0712 
     12 C12        17.8432  -31.4093  -43.0155 C.ar      10 UNK        -0.0894 
     13 C13        17.4845  -30.0795  -42.7629 C.ar      10 UNK        -0.0745 
     14 C14        17.8059  -29.1032  -43.7133 C.ar      10 UNK        -0.0972 
     15 C15        16.7138  -29.7459  -41.4823 C.3       10 UNK         0.0209 
     16 S16        16.7807  -27.9941  -40.9522 S.3       10 UNK        -0.2568 
     17 C17        18.4591  -27.8552  -40.2472 C.3       10 UNK        -0.0983 
     18 CA         19.5195  -27.3378  -41.2557 C.3       3 UNK         0.0876 
     19 N          19.1858  -26.0778  -41.9396 N.am      3 UNK        -0.4424 
     20 C          18.9093  -24.8814  -41.4041 C.2       2 UNK         0.4918 
     21 O          18.9066  -24.6737  -40.1901 O.2       2 UNK        -0.4875 
     22 CA         18.6593  -23.6987  -42.3669 C.3       2 UNK         0.0481 
     23 CB         19.4291  -22.4456  -41.9108 C.3       2 UNK        -0.1831 
     24 N          19.0042  -23.9695  -43.7691 N.am      2 UNK        -0.4498 
     25 C          18.2456  -24.6531  -44.6364 C.2       1 UNK         0.5027 
     26 O          17.1774  -25.1879  -44.3273 O.2       1 UNK        -0.4969 
     27 C          20.9267  -27.3266  -40.6325 C.2       3 UNK         0.5005 
     28 O          21.6513  -28.3069  -40.7891 O.2       3 UNK        -0.5279 
     29 N          21.3334  -26.2146  -40.0052 N.am      4 UNK        -0.4463 
     30 CA         22.6709  -25.9918  -39.4408 C.3       4 UNK         0.0283 
     31 CB         22.7070  -24.6174  -38.7547 C.3       4 UNK        -0.1875 
     32 C          23.8127  -26.1091  -40.4700 C.2       4 UNK         0.4949 
     33 O          24.9230  -26.4879  -40.0991 O.2       4 UNK        -0.5039 
     34 N          23.5113  -25.8132  -41.7426 N.am      5 UNK        -0.4663 
     35 CA         24.4131  -25.9980  -42.8819 C.3       5 UNK         0.0242 
     36 CB         23.8577  -25.2236  -44.0885 C.3       5 UNK        -0.1982 
     37 C          24.6301  -27.4780  -43.2509 C.2       5 UNK         0.5017 
     38 O          25.7022  -27.8182  -43.7519 O.2       5 UNK        -0.5012 
     39 N          23.6180  -28.3218  -43.0062 N.am      6 UNK        -0.4439 
     40 CA         23.6564  -29.7668  -43.2400 C.3       6 UNK         0.0297 
     41 CB         22.2553  -30.2463  -43.6512 C.3       6 UNK        -0.2006 
     42 C          24.1479  -30.5369  -42.0025 C.2       6 UNK         0.4892 
     43 O          24.7297  -31.6121  -42.1576 O.2       6 UNK        -0.5089 
     44 N          23.9028  -29.9798  -40.8064 N.am      7 UNK        -0.4243 
     45 CA         24.2137  -30.5173  -39.4808 C.3       7 UNK         0.0196 
     46 CB         25.7411  -30.6009  -39.2566 C.3       7 UNK        -0.2007 
     47 C          23.4586  -31.8359  -39.2483 C.2       7 UNK         0.5020 
     48 O          22.2410  -31.8050  -39.0681 O.2       7 UNK        -0.5147 
     49 N          24.1740  -32.9670  -39.2808 N.am      8 UNK        -0.4734 
     50 CA         23.5943  -34.3110  -39.2101 C.3       8 UNK         0.0238 
     51 CB         24.7087  -35.3253  -38.9052 C.3       8 UNK        -0.1912 
     52 C          22.8359  -34.7161  -40.4882 C.2       8 UNK         0.5038 
     53 O          21.9851  -35.6038  -40.4154 O.2       8 UNK        -0.5046 
     54 N          23.1642  -34.0845  -41.6254 N.am      9 UNK        -0.4200 
     55 CA         22.6160  -34.3021  -42.9750 C.3       9 UNK         0.0839 
     56 C          22.9471  -35.6877  -43.6080 C.2       9 UNK         0.5513 
     57 N          22.9088  -36.7814  -42.8600 N.am      9 UNK        -0.7519 
     58 O          23.2732  -35.7666  -44.7895 O.2       9 UNK        -0.4960 
     59 C59        21.1037  -33.9517  -43.0598 C.3       10 UNK        -0.0876 
     60 S60        20.5645  -33.5787  -44.7611 S.3       10 UNK        -0.2414 
     61 C61        18.7968  -33.2235  -44.5151 C.3       10 UNK         0.0169 
     62 H62        15.7364  -24.4097  -49.3365 H         1 UNK         0.0903 
     63 H63        15.9166  -25.9971  -48.5868 H         1 UNK         0.0903 
     64 H64        14.7494  -24.8437  -47.9379 H         1 UNK         0.0903 
     65 H65        17.7354  -26.1428  -47.3002 H         1 UNK         0.3096 
     66 H66        19.1475  -23.8044  -46.3684 H         1 UNK         0.1121 
     67 H67        20.9427  -25.1675  -45.9953 H         1 UNK         0.0849 
     68 H68        20.1643  -26.0985  -47.2202 H         1 UNK         0.0849 
     69 H69        18.0280  -27.7861  -46.1187 H         1 UNK         0.0865 
     70 H70        19.3548  -28.7419  -46.7467 H         1 UNK         0.0865 
     71 H71        19.4133  -31.0251  -46.0016 H         1 UNK         0.1346 
     72 H72        17.5672  -32.1793  -42.3078 H         1 UNK         0.1412 
     73 H73        17.5163  -28.0729  -43.5598 H         1 UNK         0.1426 
     74 H74        17.0631  -30.3746  -40.6618 H         1 UNK         0.0716 
     75 H75        15.6675  -30.0082  -41.6438 H         1 UNK         0.0716 
     76 H76        18.4007  -27.1930  -39.3819 H         1 UNK         0.0695 
     77 H77        18.7538  -28.8307  -39.8552 H         1 UNK         0.0695 
     78 H78        19.5864  -28.0776  -42.0522 H         1 UNK         0.0983 
     79 H79        19.1803  -26.1378  -42.9485 H         1 UNK         0.3095 
     80 H80        17.5927  -23.4713  -42.3132 H         1 UNK         0.0454 
     81 H81        19.1385  -22.1477  -40.9025 H         1 UNK         0.0851 
     82 H82        20.5067  -22.6136  -41.9022 H         1 UNK         0.0851 
     83 H83        19.2263  -21.5953  -42.5621 H         1 UNK         0.0851 
     84 H84        19.8827  -23.5880  -44.0907 H         1 UNK         0.2976 
     85 H85        20.6513  -25.4680  -39.9032 H         1 UNK         0.3116 
     86 H86        22.8374  -26.7597  -38.6825 H         1 UNK         0.0646 
     87 H87        23.6828  -24.4314  -38.3036 H         1 UNK         0.0847 
     88 H88        21.9663  -24.5513  -37.9576 H         1 UNK         0.0847 
     89 H89        22.5143  -23.8081  -39.4602 H         1 UNK         0.0847 
     90 H90        22.5782  -25.4875  -41.9458 H         1 UNK         0.3040 
     91 H91        25.3872  -25.5782  -42.6200 H         1 UNK         0.1015 
     92 H92        23.7599  -24.1603  -43.8686 H         1 UNK         0.0786 
     93 H93        22.8791  -25.5974  -44.3920 H         1 UNK         0.0786 
     94 H94        24.5217  -25.3151  -44.9493 H         1 UNK         0.0786 
     95 H95        22.7970  -27.9689  -42.5314 H         1 UNK         0.3172 
     96 H96        24.3403  -29.9847  -44.0631 H         1 UNK         0.0595 
     97 H97        21.8967  -29.7196  -44.5355 H         1 UNK         0.0839 
     98 H98        21.5203  -30.1051  -42.8577 H         1 UNK         0.0839 
     99 H99        22.2694  -31.3070  -43.8959 H         1 UNK         0.0839 
    100 H100       23.2812  -29.1746  -40.7987 H         1 UNK         0.2998 
    101 H101       23.8135  -29.8034  -38.7591 H         1 UNK         0.0822 
    102 H102       25.9710  -30.9750  -38.2580 H         1 UNK         0.0787 
    103 H103       26.2390  -31.2497  -39.9775 H         1 UNK         0.0787 
    104 H104       26.1963  -29.6136  -39.3397 H         1 UNK         0.0787 
    105 H105       25.1677  -32.9007  -39.4508 H         1 UNK         0.3055 
    106 H106       22.8752  -34.3327  -38.3878 H         1 UNK         0.1106 
    107 H107       25.4635  -35.3467  -39.6923 H         1 UNK         0.0828 
    108 H108       25.2090  -35.0953  -37.9643 H         1 UNK         0.0828 
    109 H109       24.3038  -36.3344  -38.8155 H         1 UNK         0.0828 
    110 H110       23.8794  -33.3660  -41.5789 H         1 UNK         0.2931 
    111 H111       23.1490  -33.5686  -43.5817 H         1 UNK         0.0412 
    112 H112       23.1328  -37.6784  -43.2612 H         1 UNK         0.3472 
    113 H113       22.6074  -36.7046  -41.8947 H         1 UNK         0.3472 
    114 H114       20.8897  -33.0719  -42.4501 H         1 UNK         0.0970 
    115 H115       20.4944  -34.7599  -42.6510 H         1 UNK         0.0970 
    116 H116       18.3950  -33.8836  -43.7448 H         1 UNK         0.0612 
    117 H117       18.2671  -33.4749  -45.4348 H         1 UNK         0.0612 
@<TRIPOS>BOND
     1    1    2 1    
     2    1   62 1    
     3    1   63 1    
     4    1   64 1    
     5    2    3 2    
     6    2    4 am   BACKBONE|DICT|INTERRES
     7    4    5 1    
     8    4   65 1    
     9    5    6 1    
    10    5   25 1    
    11    5   66 1    
    12    6    7 1    
    13    6   67 1    
    14    6   68 1    
    15    7    8 1    
    16    8    9 1    
    17    8   69 1    
    18    8   70 1    
    19    9   10 ar   
    20    9   14 ar   
    21   10   11 ar   
    22   10   71 1    
    23   11   12 ar   
    24   11   61 1    
    25   12   13 ar   
    26   12   72 1    
    27   13   14 ar   
    28   13   15 1    
    29   14   73 1    
    30   15   16 1    
    31   15   74 1    
    32   15   75 1    
    33   16   17 1    
    34   17   18 1    
    35   17   76 1    
    36   17   77 1    
    37   18   19 1    
    38   18   27 1    
    39   18   78 1    
    40   19   20 am   BACKBONE|DICT|INTERRES
    41   19   79 1    
    42   20   21 2    
    43   20   22 1    
    44   22   23 1    
    45   22   24 1    
    46   22   80 1    
    47   23   81 1    
    48   23   82 1    
    49   23   83 1    
    50   24   25 am   BACKBONE|DICT|INTERRES
    51   24   84 1    
    52   25   26 2    
    53   27   28 2    
    54   27   29 am   BACKBONE|DICT|INTERRES
    55   29   30 1    
    56   29   85 1    
    57   30   31 1    
    58   30   32 1    
    59   30   86 1    
    60   31   87 1    
    61   31   88 1    
    62   31   89 1    
    63   32   33 2    
    64   32   34 am   BACKBONE|DICT|INTERRES
    65   34   35 1    
    66   34   90 1    
    67   35   36 1    
    68   35   37 1    
    69   35   91 1    
    70   36   92 1    
    71   36   93 1    
    72   36   94 1    
    73   37   38 2    
    74   37   39 am   BACKBONE|DICT|INTERRES
    75   39   40 1    
    76   39   95 1    
    77   40   41 1    
    78   40   42 1    
    79   40   96 1    
    80   41   97 1    
    81   41   98 1    
    82   41   99 1    
    83   42   43 2    
    84   42   44 am   BACKBONE|DICT|INTERRES
    85   44   45 1    
    86   44  100 1    
    87   45   46 1    
    88   45   47 1    
    89   45  101 1    
    90   46  102 1    
    91   46  103 1    
    92   46  104 1    
    93   47   48 2    
    94   47   49 am   BACKBONE|DICT|INTERRES
    95   49   50 1    
    96   49  105 1    
    97   50   51 1    
    98   50   52 1    
    99   50  106 1    
   100   51  107 1    
   101   51  108 1    
   102   51  109 1    
   103   52   53 2    
   104   52   54 am   BACKBONE|DICT|INTERRES
   105   54   55 1    
   106   54  110 1    
   107   55   56 1    
   108   55   59 1    
   109   55  111 1    
   110   56   57 am   BACKBONE|DICT|INTERRES
   111   56   58 2    
   112   57  112 1    
   113   57  113 1    
   114   59   60 1    
   115   59  114 1    
   116   59  115 1    
   117   60   61 1    
   118   61  116 1    
   119   61  117 1    
@<TRIPOS>SUBSTRUCTURE
     1 UNK         1 GROUP             0       ****    0 ROOT    
