@<TRIPOS>MOLECULE
3R8
117   119    1
SMALL
USER_CHARGES


@<TRIPOS>ATOM
      1 CA         12.7433  -23.0606  -45.1960 C.3       0 UNK        -0.2013 
      2 C          13.8159  -23.4976  -46.1827 C.2       0 UNK         0.4866 
      3 O          14.2171  -22.7098  -47.0404 O.2       0 UNK        -0.5176 
      4 N          14.2762  -24.7496  -46.0747 N.am      1 UNK        -0.4884 
      5 CA         15.3614  -25.3173  -46.8811 C.3       1 UNK         0.0853 
      6 C6         15.2852  -26.8679  -46.9084 C.3       10 UNK        -0.0849 
      7 S7         15.4262  -27.6692  -45.2684 S.3       10 UNK        -0.2776 
      8 C8         17.0643  -28.4555  -45.4292 C.3       10 UNK         0.0316 
      9 C9         17.7551  -28.7495  -44.1010 C.ar      10 UNK        -0.0863 
     10 C10        18.5366  -29.9031  -43.9750 C.ar      10 UNK        -0.1009 
     11 C11        19.2922  -30.1339  -42.8212 C.ar      10 UNK        -0.0712 
     12 C12        19.2591  -29.1987  -41.7840 C.ar      10 UNK        -0.0894 
     13 C13        18.4808  -28.0436  -41.8925 C.ar      10 UNK        -0.0745 
     14 C14        17.7143  -27.8337  -43.0428 C.ar      10 UNK        -0.0972 
     15 C15        18.5273  -26.9924  -40.7946 C.3       10 UNK         0.0209 
     16 S16        20.1047  -26.0780  -40.8271 S.3       10 UNK        -0.2568 
     17 C17        19.9199  -25.0235  -42.3090 C.3       10 UNK        -0.0983 
     18 CA         20.3719  -25.6895  -43.6349 C.3       3 UNK         0.0876 
     19 N          19.9406  -24.9043  -44.7890 N.am      3 UNK        -0.4424 
     20 C          19.7849  -25.3965  -46.0225 C.2       2 UNK         0.4918 
     21 O          20.0749  -26.5482  -46.3513 O.2       2 UNK        -0.4875 
     22 CA         19.1288  -24.4593  -47.0511 C.3       2 UNK         0.0481 
     23 CB         19.9129  -24.4450  -48.3743 C.3       2 UNK        -0.1831 
     24 N          17.7409  -24.8568  -47.3115 N.am      2 UNK        -0.4498 
     25 C          16.7407  -24.7888  -46.4191 C.2       1 UNK         0.5027 
     26 O          16.8783  -24.3395  -45.2771 O.2       1 UNK        -0.4969 
     27 C          21.8768  -26.0095  -43.6723 C.2       3 UNK         0.5005 
     28 O          22.6899  -25.1444  -44.0077 O.2       3 UNK        -0.5279 
     29 N          22.2016  -27.2493  -43.2908 N.am      4 UNK        -0.4463 
     30 CA         23.5490  -27.7865  -43.1401 C.3       4 UNK         0.0283 
     31 CB         24.0835  -28.2792  -44.4993 C.3       4 UNK        -0.1875 
     32 C          23.5110  -28.8875  -42.0708 C.2       4 UNK         0.4949 
     33 O          23.9839  -29.9992  -42.3082 O.2       4 UNK        -0.5039 
     34 N          22.9154  -28.5728  -40.9093 N.am      5 UNK        -0.4663 
     35 CA         22.7097  -29.5028  -39.7908 C.3       5 UNK         0.0242 
     36 CB         21.9556  -28.7975  -38.6530 C.3       5 UNK        -0.1982 
     37 C          24.0029  -30.1448  -39.2666 C.2       5 UNK         0.5017 
     38 O          24.0082  -31.3418  -38.9834 O.2       5 UNK        -0.5012 
     39 N          25.0892  -29.3631  -39.2200 N.am      6 UNK        -0.4439 
     40 CA         26.4274  -29.8123  -38.8238 C.3       6 UNK         0.0297 
     41 CB         27.3645  -28.5956  -38.7530 C.3       6 UNK        -0.2006 
     42 C          27.0310  -30.9016  -39.7339 C.2       6 UNK         0.4892 
     43 O          27.9285  -31.6167  -39.2868 O.2       6 UNK        -0.5089 
     44 N          26.5421  -31.0110  -40.9775 N.am      7 UNK        -0.4243 
     45 CA         26.9847  -32.0016  -41.9563 C.3       7 UNK         0.0196 
     46 CB         27.0044  -31.3461  -43.3484 C.3       7 UNK        -0.2007 
     47 C          26.1062  -33.2647  -41.9750 C.2       7 UNK         0.5020 
     48 O          26.5212  -34.2474  -42.5915 O.2       7 UNK        -0.5147 
     49 N          24.9214  -33.2437  -41.3436 N.am      8 UNK        -0.4734 
     50 CA         23.9614  -34.3484  -41.4077 C.3       8 UNK         0.0238 
     51 CB         23.2526  -34.3738  -42.7813 C.3       8 UNK        -0.1912 
     52 C          22.9546  -34.3185  -40.2511 C.2       8 UNK         0.5038 
     53 O          23.0343  -35.1650  -39.3605 O.2       8 UNK        -0.5046 
     54 N          21.9881  -33.3954  -40.3344 N.am      9 UNK        -0.4200 
     55 CA         20.7434  -33.3949  -39.5439 C.3       9 UNK         0.0839 
     56 C          20.8882  -33.1623  -38.0120 C.2       9 UNK         0.5513 
     57 N          22.0039  -32.6529  -37.5108 N.am      9 UNK        -0.7519 
     58 O          19.9614  -33.4573  -37.2619 O.2       9 UNK        -0.4960 
     59 C59        19.6772  -32.4405  -40.1463 C.3       10 UNK        -0.0876 
     60 S60        19.3471  -32.7607  -41.9159 S.3       10 UNK        -0.2414 
     61 C61        20.1854  -31.3634  -42.7283 C.3       10 UNK         0.0169 
     62 H62        11.8435  -22.7558  -45.7298 H         1 UNK         0.0903 
     63 H63        12.4737  -23.8602  -44.5062 H         1 UNK         0.0903 
     64 H64        13.0964  -22.2124  -44.6102 H         1 UNK         0.0903 
     65 H65        13.9438  -25.3445  -45.3283 H         1 UNK         0.3096 
     66 H66        15.2199  -24.9681  -47.9070 H         1 UNK         0.1121 
     67 H67        14.3275  -27.1695  -47.3361 H         1 UNK         0.0849 
     68 H68        16.0350  -27.2740  -47.5898 H         1 UNK         0.0849 
     69 H69        16.9499  -29.3697  -46.0140 H         1 UNK         0.0865 
     70 H70        17.7246  -27.8042  -46.0017 H         1 UNK         0.0865 
     71 H71        18.5871  -30.6094  -44.7927 H         1 UNK         0.1346 
     72 H72        19.8633  -29.3461  -40.9020 H         1 UNK         0.1412 
     73 H73        17.1416  -26.9213  -43.1421 H         1 UNK         0.1426 
     74 H74        18.4216  -27.4802  -39.8245 H         1 UNK         0.0716 
     75 H75        17.6926  -26.2948  -40.8798 H         1 UNK         0.0716 
     76 H76        18.8720  -24.7270  -42.3811 H         1 UNK         0.0695 
     77 H77        20.4779  -24.1004  -42.1411 H         1 UNK         0.0695 
     78 H78        19.8602  -26.6433  -43.7276 H         1 UNK         0.0983 
     79 H79        19.6734  -23.9480  -44.6073 H         1 UNK         0.3095 
     80 H80        19.1246  -23.4419  -46.6538 H         1 UNK         0.0454 
     81 H81        19.9240  -25.4257  -48.8517 H         1 UNK         0.0851 
     82 H82        19.4874  -23.7323  -49.0810 H         1 UNK         0.0851 
     83 H83        20.9507  -24.1536  -48.2076 H         1 UNK         0.0851 
     84 H84        17.5570  -25.2563  -48.2207 H         1 UNK         0.2976 
     85 H85        21.4572  -27.8784  -43.0184 H         1 UNK         0.3116 
     86 H86        24.2108  -27.0022  -42.7670 H         1 UNK         0.0646 
     87 H87        25.0972  -28.6701  -44.4025 H         1 UNK         0.0847 
     88 H88        24.1179  -27.4713  -45.2302 H         1 UNK         0.0847 
     89 H89        23.4627  -29.0764  -44.9098 H         1 UNK         0.0847 
     90 H90        22.5536  -27.6357  -40.7922 H         1 UNK         0.3040 
     91 H91        22.0852  -30.3172  -40.1575 H         1 UNK         0.1015 
     92 H92        20.9818  -28.4346  -38.9799 H         1 UNK         0.0786 
     93 H93        22.5150  -27.9460  -38.2636 H         1 UNK         0.0786 
     94 H94        21.7792  -29.4803  -37.8203 H         1 UNK         0.0786 
     95 H95        24.9908  -28.3956  -39.4922 H         1 UNK         0.3172 
     96 H96        26.3462  -30.2393  -37.8219 H         1 UNK         0.0595 
     97 H97        27.0024  -27.8540  -38.0407 H         1 UNK         0.0839 
     98 H98        27.4691  -28.1090  -39.7237 H         1 UNK         0.0839 
     99 H99        28.3636  -28.8905  -38.4284 H         1 UNK         0.0839 
    100 H100       25.7714  -30.4174  -41.2631 H         1 UNK         0.2998 
    101 H101       28.0036  -32.3193  -41.7241 H         1 UNK         0.0822 
    102 H102       27.6326  -30.4553  -43.3603 H         1 UNK         0.0787 
    103 H103       27.4028  -32.0324  -44.0968 H         1 UNK         0.0787 
    104 H104       26.0047  -31.0574  -43.6744 H         1 UNK         0.0787 
    105 H105       24.6628  -32.4401  -40.7817 H         1 UNK         0.3055 
    106 H106       24.5104  -35.2873  -41.3007 H         1 UNK         0.1106 
    107 H107       22.8188  -33.4066  -43.0373 H         1 UNK         0.0828 
    108 H108       23.9448  -34.6434  -43.5790 H         1 UNK         0.0828 
    109 H109       22.4481  -35.1106  -42.7974 H         1 UNK         0.0828 
    110 H110       22.0161  -32.7503  -41.1072 H         1 UNK         0.2931 
    111 H111       20.3411  -34.4058  -39.6371 H         1 UNK         0.0412 
    112 H112       22.0809  -32.5218  -36.5153 H         1 UNK         0.3472 
    113 H113       22.7706  -32.3738  -38.1174 H         1 UNK         0.3472 
    114 H114       19.9685  -31.4023  -39.9974 H         1 UNK         0.0970 
    115 H115       18.7289  -32.5568  -39.6178 H         1 UNK         0.0970 
    116 H116       21.1132  -31.1231  -42.2088 H         1 UNK         0.0612 
    117 H117       20.4813  -31.6781  -43.7302 H         1 UNK         0.0612 
@<TRIPOS>BOND
     1    1    2 1    
     2    1   62 1    
     3    1   63 1    
     4    1   64 1    
     5    2    3 2    
     6    2    4 am   BACKBONE|DICT|INTERRES
     7    4    5 1    
     8    4   65 1    
     9    5    6 1    
    10    5   25 1    
    11    5   66 1    
    12    6    7 1    
    13    6   67 1    
    14    6   68 1    
    15    7    8 1    
    16    8    9 1    
    17    8   69 1    
    18    8   70 1    
    19    9   10 ar   
    20    9   14 ar   
    21   10   11 ar   
    22   10   71 1    
    23   11   12 ar   
    24   11   61 1    
    25   12   13 ar   
    26   12   72 1    
    27   13   14 ar   
    28   13   15 1    
    29   14   73 1    
    30   15   16 1    
    31   15   74 1    
    32   15   75 1    
    33   16   17 1    
    34   17   18 1    
    35   17   76 1    
    36   17   77 1    
    37   18   19 1    
    38   18   27 1    
    39   18   78 1    
    40   19   20 am   BACKBONE|DICT|INTERRES
    41   19   79 1    
    42   20   21 2    
    43   20   22 1    
    44   22   23 1    
    45   22   24 1    
    46   22   80 1    
    47   23   81 1    
    48   23   82 1    
    49   23   83 1    
    50   24   25 am   BACKBONE|DICT|INTERRES
    51   24   84 1    
    52   25   26 2    
    53   27   28 2    
    54   27   29 am   BACKBONE|DICT|INTERRES
    55   29   30 1    
    56   29   85 1    
    57   30   31 1    
    58   30   32 1    
    59   30   86 1    
    60   31   87 1    
    61   31   88 1    
    62   31   89 1    
    63   32   33 2    
    64   32   34 am   BACKBONE|DICT|INTERRES
    65   34   35 1    
    66   34   90 1    
    67   35   36 1    
    68   35   37 1    
    69   35   91 1    
    70   36   92 1    
    71   36   93 1    
    72   36   94 1    
    73   37   38 2    
    74   37   39 am   BACKBONE|DICT|INTERRES
    75   39   40 1    
    76   39   95 1    
    77   40   41 1    
    78   40   42 1    
    79   40   96 1    
    80   41   97 1    
    81   41   98 1    
    82   41   99 1    
    83   42   43 2    
    84   42   44 am   BACKBONE|DICT|INTERRES
    85   44   45 1    
    86   44  100 1    
    87   45   46 1    
    88   45   47 1    
    89   45  101 1    
    90   46  102 1    
    91   46  103 1    
    92   46  104 1    
    93   47   48 2    
    94   47   49 am   BACKBONE|DICT|INTERRES
    95   49   50 1    
    96   49  105 1    
    97   50   51 1    
    98   50   52 1    
    99   50  106 1    
   100   51  107 1    
   101   51  108 1    
   102   51  109 1    
   103   52   53 2    
   104   52   54 am   BACKBONE|DICT|INTERRES
   105   54   55 1    
   106   54  110 1    
   107   55   56 1    
   108   55   59 1    
   109   55  111 1    
   110   56   57 am   BACKBONE|DICT|INTERRES
   111   56   58 2    
   112   57  112 1    
   113   57  113 1    
   114   59   60 1    
   115   59  114 1    
   116   59  115 1    
   117   60   61 1    
   118   61  116 1    
   119   61  117 1    
@<TRIPOS>SUBSTRUCTURE
     1 UNK         1 GROUP             0       ****    0 ROOT    
