@<TRIPOS>MOLECULE
3R8
117   119    1
SMALL
USER_CHARGES


@<TRIPOS>ATOM
      1 CA         17.2449  -24.4625  -41.3189 C.3       0 UNK        -0.2013 
      2 C          16.9594  -24.1566  -42.7883 C.2       0 UNK         0.4866 
      3 O          16.6091  -23.0194  -43.0957 O.2       0 UNK        -0.5176 
      4 N          17.0940  -25.0952  -43.7396 N.am      1 UNK        -0.4884 
      5 CA         17.4835  -26.5130  -43.6271 C.3       1 UNK         0.0853 
      6 C6         16.5131  -27.3744  -42.7697 C.3       10 UNK        -0.0849 
      7 S7         14.9035  -27.5446  -43.6133 S.3       10 UNK        -0.2776 
      8 C8         14.7931  -29.3435  -43.9144 C.3       10 UNK         0.0316 
      9 C9         16.0447  -29.9489  -44.5461 C.ar      10 UNK        -0.0863 
     10 C10        16.6764  -31.0332  -43.9270 C.ar      10 UNK        -0.1009 
     11 C11        17.8069  -31.6208  -44.5006 C.ar      10 UNK        -0.0712 
     12 C12        18.3122  -31.1118  -45.6992 C.ar      10 UNK        -0.0894 
     13 C13        17.7115  -30.0099  -46.3145 C.ar      10 UNK        -0.0745 
     14 C14        16.5661  -29.4443  -45.7433 C.ar      10 UNK        -0.0972 
     15 C15        18.2934  -29.4391  -47.6007 C.3       10 UNK         0.0209 
     16 S16        19.4694  -28.0837  -47.2783 S.3       10 UNK        -0.2568 
     17 C17        20.9630  -28.9972  -46.7562 C.3       10 UNK        -0.0983 
     18 CA         22.0232  -28.0846  -46.0913 C.3       3 UNK         0.0876 
     19 N          21.4779  -27.3604  -44.9432 N.am      3 UNK        -0.4424 
     20 C          22.0331  -26.3031  -44.3404 C.2       2 UNK         0.4918 
     21 O          23.1073  -25.8114  -44.6862 O.2       2 UNK        -0.4875 
     22 CA         21.2434  -25.6887  -43.1629 C.3       2 UNK         0.0481 
     23 CB         21.7184  -24.2687  -42.8069 C.3       2 UNK        -0.1831 
     24 N          19.7927  -25.6716  -43.3873 N.am      2 UNK        -0.4498 
     25 C          18.9721  -26.7278  -43.2833 C.2       1 UNK         0.5027 
     26 O          19.3752  -27.8531  -42.9910 O.2       1 UNK        -0.4969 
     27 C          23.2634  -28.8939  -45.6714 C.2       3 UNK         0.5005 
     28 O          24.3114  -28.7974  -46.3123 O.2       3 UNK        -0.5279 
     29 N          23.1334  -29.6385  -44.5644 N.am      4 UNK        -0.4463 
     30 CA         24.2127  -30.3862  -43.9229 C.3       4 UNK         0.0283 
     31 CB         23.6256  -31.6380  -43.2507 C.3       4 UNK        -0.1875 
     32 C          24.9529  -29.4770  -42.9299 C.2       4 UNK         0.4949 
     33 O          24.8184  -29.6536  -41.7163 O.2       4 UNK        -0.5039 
     34 N          25.6780  -28.4916  -43.4776 N.am      5 UNK        -0.4663 
     35 CA         26.5326  -27.4843  -42.8292 C.3       5 UNK         0.0242 
     36 CB         27.7241  -28.1502  -42.1117 C.3       5 UNK        -0.1982 
     37 C          25.7960  -26.5091  -41.8926 C.2       5 UNK         0.5017 
     38 O          25.8489  -25.2988  -42.1105 O.2       5 UNK        -0.5012 
     39 N          25.1391  -27.0545  -40.8671 N.am      6 UNK        -0.4439 
     40 CA         24.3809  -26.3446  -39.8394 C.3       6 UNK         0.0297 
     41 CB         25.3104  -25.9684  -38.6690 C.3       6 UNK        -0.2006 
     42 C          23.1714  -27.1897  -39.4074 C.2       6 UNK         0.4892 
     43 O          22.8538  -27.2485  -38.2190 O.2       6 UNK        -0.5089 
     44 N          22.5330  -27.8372  -40.3944 N.am      7 UNK        -0.4243 
     45 CA         21.3683  -28.7232  -40.2791 C.3       7 UNK         0.0196 
     46 CB         20.1348  -27.9560  -39.7543 C.3       7 UNK        -0.2007 
     47 C          21.6674  -30.0019  -39.4745 C.2       7 UNK         0.5020 
     48 O          20.8117  -30.4741  -38.7238 O.2       7 UNK        -0.5147 
     49 N          22.8696  -30.5682  -39.6660 N.am      8 UNK        -0.4734 
     50 CA         23.3382  -31.7879  -38.9925 C.3       8 UNK         0.0238 
     51 CB         24.8293  -31.9928  -39.3050 C.3       8 UNK        -0.1912 
     52 C          22.5303  -33.0537  -39.3417 C.2       8 UNK         0.5038 
     53 O          22.5688  -34.0231  -38.5832 O.2       8 UNK        -0.5046 
     54 N          21.8085  -33.0125  -40.4675 N.am      9 UNK        -0.4200 
     55 CA         20.8337  -34.0179  -40.9038 C.3       9 UNK         0.0839 
     56 C          19.4850  -33.9972  -40.1240 C.2       9 UNK         0.5513 
     57 N          19.2139  -33.0144  -39.2716 N.am      9 UNK        -0.7519 
     58 O          18.6724  -34.9033  -40.2891 O.2       9 UNK        -0.4960 
     59 C59        20.6287  -33.9602  -42.4405 C.3       10 UNK        -0.0876 
     60 S60        20.0463  -32.3357  -43.0497 S.3       10 UNK        -0.2414 
     61 C61        18.4789  -32.8128  -43.8374 C.3       10 UNK         0.0169 
     62 H62        16.3170  -24.7080  -40.8033 H         1 UNK         0.0903 
     63 H63        17.9477  -25.2785  -41.1706 H         1 UNK         0.0903 
     64 H64        17.6700  -23.5840  -40.8338 H         1 UNK         0.0903 
     65 H65        16.8809  -24.8119  -44.6866 H         1 UNK         0.3096 
     66 H66        17.4225  -26.8976  -44.6467 H         1 UNK         0.1121 
     67 H67        16.3472  -26.9464  -41.7827 H         1 UNK         0.0849 
     68 H68        16.9211  -28.3684  -42.5811 H         1 UNK         0.0849 
     69 H69        14.5664  -29.8334  -42.9661 H         1 UNK         0.0865 
     70 H70        13.9408  -29.5386  -44.5665 H         1 UNK         0.0865 
     71 H71        16.2842  -31.4283  -42.9997 H         1 UNK         0.1346 
     72 H72        19.1851  -31.5697  -46.1436 H         1 UNK         0.1412 
     73 H73        16.0862  -28.6021  -46.2232 H         1 UNK         0.1426 
     74 H74        17.4866  -29.0591  -48.2293 H         1 UNK         0.0716 
     75 H75        18.7855  -30.2215  -48.1807 H         1 UNK         0.0716 
     76 H76        21.3815  -29.4931  -47.6342 H         1 UNK         0.0695 
     77 H77        20.6687  -29.7869  -46.0655 H         1 UNK         0.0695 
     78 H78        22.3478  -27.3465  -46.8284 H         1 UNK         0.0983 
     79 H79        20.6038  -27.7073  -44.5646 H         1 UNK         0.3095 
     80 H80        21.4395  -26.3181  -42.2963 H         1 UNK         0.0454 
     81 H81        21.5785  -23.5768  -43.6381 H         1 UNK         0.0851 
     82 H82        22.7793  -24.2620  -42.5514 H         1 UNK         0.0851 
     83 H83        21.1802  -23.8740  -41.9451 H         1 UNK         0.0851 
     84 H84        19.3940  -24.7956  -43.6949 H         1 UNK         0.2976 
     85 H85        22.2419  -29.6359  -44.0903 H         1 UNK         0.3116 
     86 H86        24.9327  -30.7203  -44.6732 H         1 UNK         0.0646 
     87 H87        23.1410  -32.2876  -43.9796 H         1 UNK         0.0847 
     88 H88        22.8889  -31.3754  -42.4939 H         1 UNK         0.0847 
     89 H89        24.4056  -32.2242  -42.7640 H         1 UNK         0.0847 
     90 H90        25.6298  -28.4169  -44.4878 H         1 UNK         0.3040 
     91 H91        26.9409  -26.8782  -43.6401 H         1 UNK         0.1015 
     92 H92        27.4040  -28.8092  -41.3041 H         1 UNK         0.0786 
     93 H93        28.3849  -27.4000  -41.6749 H         1 UNK         0.0786 
     94 H94        28.3216  -28.7413  -42.8058 H         1 UNK         0.0786 
     95 H95        25.1211  -28.0726  -40.8292 H         1 UNK         0.3172 
     96 H96        23.9738  -25.4250  -40.2652 H         1 UNK         0.0595 
     97 H97        24.7731  -25.4036  -37.9061 H         1 UNK         0.0839 
     98 H98        26.1399  -25.3460  -39.0049 H         1 UNK         0.0839 
     99 H99        25.7282  -26.8540  -38.1890 H         1 UNK         0.0839 
    100 H100       22.9151  -27.7398  -41.3235 H         1 UNK         0.2998 
    101 H101       21.1373  -29.0555  -41.2923 H         1 UNK         0.0822 
    102 H102       19.9656  -27.0390  -40.3178 H         1 UNK         0.0787 
    103 H103       19.2332  -28.5626  -39.8480 H         1 UNK         0.0787 
    104 H104       20.2392  -27.6882  -38.7025 H         1 UNK         0.0787 
    105 H105       23.5217  -30.1355  -40.3142 H         1 UNK         0.3055 
    106 H106       23.2317  -31.6315  -37.9167 H         1 UNK         0.1106 
    107 H107       25.0015  -32.1483  -40.3702 H         1 UNK         0.0828 
    108 H108       25.2232  -32.8644  -38.7804 H         1 UNK         0.0828 
    109 H109       25.4224  -31.1328  -38.9936 H         1 UNK         0.0828 
    110 H110       21.8194  -32.1602  -41.0050 H         1 UNK         0.2931 
    111 H111       21.2726  -34.9939  -40.6877 H         1 UNK         0.0412 
    112 H112       18.3377  -33.0257  -38.7745 H         1 UNK         0.3472 
    113 H113       19.8618  -32.2483  -39.1270 H         1 UNK         0.3472 
    114 H114       19.9472  -34.7501  -42.7618 H         1 UNK         0.0970 
    115 H115       21.5739  -34.1804  -42.9388 H         1 UNK         0.0970 
    116 H116       18.6690  -33.5832  -44.5863 H         1 UNK         0.0612 
    117 H117       17.8229  -33.2594  -43.0883 H         1 UNK         0.0612 
@<TRIPOS>BOND
     1    1    2 1    
     2    1   62 1    
     3    1   63 1    
     4    1   64 1    
     5    2    3 2    
     6    2    4 am   BACKBONE|DICT|INTERRES
     7    4    5 1    
     8    4   65 1    
     9    5    6 1    
    10    5   25 1    
    11    5   66 1    
    12    6    7 1    
    13    6   67 1    
    14    6   68 1    
    15    7    8 1    
    16    8    9 1    
    17    8   69 1    
    18    8   70 1    
    19    9   10 ar   
    20    9   14 ar   
    21   10   11 ar   
    22   10   71 1    
    23   11   12 ar   
    24   11   61 1    
    25   12   13 ar   
    26   12   72 1    
    27   13   14 ar   
    28   13   15 1    
    29   14   73 1    
    30   15   16 1    
    31   15   74 1    
    32   15   75 1    
    33   16   17 1    
    34   17   18 1    
    35   17   76 1    
    36   17   77 1    
    37   18   19 1    
    38   18   27 1    
    39   18   78 1    
    40   19   20 am   BACKBONE|DICT|INTERRES
    41   19   79 1    
    42   20   21 2    
    43   20   22 1    
    44   22   23 1    
    45   22   24 1    
    46   22   80 1    
    47   23   81 1    
    48   23   82 1    
    49   23   83 1    
    50   24   25 am   BACKBONE|DICT|INTERRES
    51   24   84 1    
    52   25   26 2    
    53   27   28 2    
    54   27   29 am   BACKBONE|DICT|INTERRES
    55   29   30 1    
    56   29   85 1    
    57   30   31 1    
    58   30   32 1    
    59   30   86 1    
    60   31   87 1    
    61   31   88 1    
    62   31   89 1    
    63   32   33 2    
    64   32   34 am   BACKBONE|DICT|INTERRES
    65   34   35 1    
    66   34   90 1    
    67   35   36 1    
    68   35   37 1    
    69   35   91 1    
    70   36   92 1    
    71   36   93 1    
    72   36   94 1    
    73   37   38 2    
    74   37   39 am   BACKBONE|DICT|INTERRES
    75   39   40 1    
    76   39   95 1    
    77   40   41 1    
    78   40   42 1    
    79   40   96 1    
    80   41   97 1    
    81   41   98 1    
    82   41   99 1    
    83   42   43 2    
    84   42   44 am   BACKBONE|DICT|INTERRES
    85   44   45 1    
    86   44  100 1    
    87   45   46 1    
    88   45   47 1    
    89   45  101 1    
    90   46  102 1    
    91   46  103 1    
    92   46  104 1    
    93   47   48 2    
    94   47   49 am   BACKBONE|DICT|INTERRES
    95   49   50 1    
    96   49  105 1    
    97   50   51 1    
    98   50   52 1    
    99   50  106 1    
   100   51  107 1    
   101   51  108 1    
   102   51  109 1    
   103   52   53 2    
   104   52   54 am   BACKBONE|DICT|INTERRES
   105   54   55 1    
   106   54  110 1    
   107   55   56 1    
   108   55   59 1    
   109   55  111 1    
   110   56   57 am   BACKBONE|DICT|INTERRES
   111   56   58 2    
   112   57  112 1    
   113   57  113 1    
   114   59   60 1    
   115   59  114 1    
   116   59  115 1    
   117   60   61 1    
   118   61  116 1    
   119   61  117 1    
@<TRIPOS>SUBSTRUCTURE
     1 UNK         1 GROUP             0       ****    0 ROOT    
