@<TRIPOS>MOLECULE
3R8
117   119    1
SMALL
USER_CHARGES


@<TRIPOS>ATOM
      1 CA         14.5845  -25.8575  -46.4751 C.3       0 UNK        -0.2013 
      2 C          15.9315  -26.2045  -45.8601 C.2       0 UNK         0.4866 
      3 O          16.8910  -26.4615  -46.5877 O.2       0 UNK        -0.5176 
      4 N          16.0214  -26.1966  -44.5243 N.am      1 UNK        -0.4884 
      5 CA         17.2086  -26.5478  -43.7301 C.3       1 UNK         0.0853 
      6 C6         16.8176  -26.9746  -42.2888 C.3       10 UNK        -0.0849 
      7 S7         15.6943  -28.4163  -42.2442 S.3       10 UNK        -0.2776 
      8 C8         16.7260  -29.6939  -41.4508 C.3       10 UNK         0.0316 
      9 C9         17.6362  -30.3968  -42.4480 C.ar      10 UNK        -0.0863 
     10 C10        17.2642  -31.6314  -42.9917 C.ar      10 UNK        -0.1009 
     11 C11        18.1075  -32.2995  -43.8854 C.ar      10 UNK        -0.0712 
     12 C12        19.3176  -31.7046  -44.2595 C.ar      10 UNK        -0.0894 
     13 C13        19.7026  -30.4762  -43.7178 C.ar      10 UNK        -0.0745 
     14 C14        18.8632  -29.8314  -42.8059 C.ar      10 UNK        -0.0972 
     15 C15        21.0260  -29.8426  -44.1089 C.3       10 UNK         0.0209 
     16 S16        20.7831  -28.6716  -45.4733 S.3       10 UNK        -0.2568 
     17 C17        22.4004  -27.8185  -45.5221 C.3       10 UNK        -0.0983 
     18 CA         22.4329  -26.4855  -44.7201 C.3       3 UNK         0.0876 
     19 N          21.2307  -25.6946  -44.9894 N.am      3 UNK        -0.4424 
     20 C          21.0587  -24.3748  -44.8718 C.2       2 UNK         0.4918 
     21 O          21.9486  -23.5939  -44.5383 O.2       2 UNK        -0.4875 
     22 CA         19.6306  -23.8556  -45.1288 C.3       2 UNK         0.0481 
     23 CB         19.5083  -23.3056  -46.5580 C.3       2 UNK        -0.1831 
     24 N          18.5981  -24.8800  -44.9150 N.am      2 UNK        -0.4498 
     25 C          18.2747  -25.4222  -43.7317 C.2       1 UNK         0.5027 
     26 O          18.7973  -25.0653  -42.6751 O.2       1 UNK        -0.4969 
     27 C          22.7107  -26.7071  -43.2118 C.2       3 UNK         0.5005 
     28 O          23.5010  -27.5895  -42.8731 O.2       3 UNK        -0.5279 
     29 N          22.0926  -25.9169  -42.3194 N.am      4 UNK        -0.4463 
     30 CA         22.1925  -26.0026  -40.8542 C.3       4 UNK         0.0283 
     31 CB         21.3389  -24.8905  -40.2243 C.3       4 UNK        -0.1875 
     32 C          23.6206  -25.9647  -40.2721 C.2       4 UNK         0.4949 
     33 O          23.8255  -26.4658  -39.1672 O.2       4 UNK        -0.5039 
     34 N          24.5821  -25.4038  -41.0200 N.am      5 UNK        -0.4663 
     35 CA         26.0126  -25.4351  -40.6983 C.3       5 UNK         0.0242 
     36 CB         26.7634  -24.4701  -41.6297 C.3       5 UNK        -0.1982 
     37 C          26.6226  -26.8488  -40.7786 C.2       5 UNK         0.5017 
     38 O          27.5260  -27.1561  -40.0002 O.2       5 UNK        -0.5012 
     39 N          26.1152  -27.6797  -41.7006 N.am      6 UNK        -0.4439 
     40 CA         26.4426  -29.1037  -41.8148 C.3       6 UNK         0.0297 
     41 CB         26.3876  -29.5238  -43.2930 C.3       6 UNK        -0.2006 
     42 C          25.4786  -29.9642  -40.9812 C.2       6 UNK         0.4892 
     43 O          25.8823  -31.0190  -40.4894 O.2       6 UNK        -0.5089 
     44 N          24.2289  -29.4966  -40.8452 N.am      7 UNK        -0.4243 
     45 CA         23.0966  -30.0620  -40.1048 C.3       7 UNK         0.0196 
     46 CB         23.4181  -30.2718  -38.6124 C.3       7 UNK        -0.2007 
     47 C          22.5141  -31.3254  -40.7515 C.2       7 UNK         0.5020 
     48 O          21.3186  -31.3424  -41.0340 O.2       7 UNK        -0.5147 
     49 N          23.3578  -32.3384  -40.9936 N.am      8 UNK        -0.4734 
     50 CA         23.0527  -33.6164  -41.6506 C.3       8 UNK         0.0238 
     51 CB         22.9598  -33.4023  -43.1789 C.3       8 UNK        -0.1912 
     52 C          21.8213  -34.3195  -41.0369 C.2       8 UNK         0.5038 
     53 O          21.8680  -34.6934  -39.8635 O.2       8 UNK        -0.5046 
     54 N          20.7560  -34.4775  -41.8311 N.am      9 UNK        -0.4200 
     55 CA         19.4415  -35.0039  -41.4377 C.3       9 UNK         0.0839 
     56 C          18.5615  -34.0381  -40.5889 C.2       9 UNK         0.5513 
     57 N          18.9736  -32.8100  -40.3062 N.am      9 UNK        -0.7519 
     58 O          17.4825  -34.4276  -40.1486 O.2       9 UNK        -0.4960 
     59 C59        18.6676  -35.6334  -42.6393 C.3       10 UNK        -0.0876 
     60 S60        18.9936  -34.9148  -44.2923 S.3       10 UNK        -0.2414 
     61 C61        17.6966  -33.6455  -44.4701 C.3       10 UNK         0.0169 
     62 H62        14.2293  -26.6848  -47.0890 H         1 UNK         0.0903 
     63 H63        13.8303  -25.6508  -45.7160 H         1 UNK         0.0903 
     64 H64        14.6776  -24.9770  -47.1102 H         1 UNK         0.0903 
     65 H65        15.2013  -25.9647  -43.9814 H         1 UNK         0.3096 
     66 H66        17.6850  -27.4092  -44.2050 H         1 UNK         0.1121 
     67 H67        16.3252  -26.1484  -41.7724 H         1 UNK         0.0849 
     68 H68        17.7061  -27.1995  -41.6969 H         1 UNK         0.0849 
     69 H69        17.3139  -29.2600  -40.6405 H         1 UNK         0.0865 
     70 H70        16.0668  -30.4232  -40.9774 H         1 UNK         0.0865 
     71 H71        16.3215  -32.0785  -42.7075 H         1 UNK         0.1346 
     72 H72        19.9644  -32.2028  -44.9683 H         1 UNK         0.1412 
     73 H73        19.1704  -28.8882  -42.3776 H         1 UNK         0.1426 
     74 H74        21.7482  -30.6022  -44.4094 H         1 UNK         0.0716 
     75 H75        21.4538  -29.3349  -43.2443 H         1 UNK         0.0716 
     76 H76        22.6004  -27.5958  -46.5712 H         1 UNK         0.0695 
     77 H77        23.1961  -28.5045  -45.2254 H         1 UNK         0.0695 
     78 H78        23.2886  -25.9114  -45.0817 H         1 UNK         0.0983 
     79 H79        20.4308  -26.2452  -45.2683 H         1 UNK         0.3095 
     80 H80        19.4457  -23.0377  -44.4295 H         1 UNK         0.0454 
     81 H81        19.6636  -24.0844  -47.3058 H         1 UNK         0.0851 
     82 H82        20.2481  -22.5250  -46.7410 H         1 UNK         0.0851 
     83 H83        18.5261  -22.8656  -46.7310 H         1 UNK         0.0851 
     84 H84        18.1192  -25.2443  -45.7350 H         1 UNK         0.2976 
     85 H85        21.4604  -25.2147  -42.6784 H         1 UNK         0.3116 
     86 H86        21.7602  -26.9619  -40.5648 H         1 UNK         0.0646 
     87 H87        20.2868  -24.9990  -40.4860 H         1 UNK         0.0847 
     88 H88        21.6659  -23.9004  -40.5440 H         1 UNK         0.0847 
     89 H89        21.3987  -24.9177  -39.1352 H         1 UNK         0.0847 
     90 H90        24.3187  -24.9944  -41.9046 H         1 UNK         0.3040 
     91 H91        26.1347  -25.0852  -39.6706 H         1 UNK         0.1015 
     92 H92        27.8292  -24.4544  -41.3969 H         1 UNK         0.0786 
     93 H93        26.3958  -23.4492  -41.5237 H         1 UNK         0.0786 
     94 H94        26.6631  -24.7575  -42.6772 H         1 UNK         0.0786 
     95 H95        25.3308  -27.3585  -42.2602 H         1 UNK         0.3172 
     96 H96        27.4563  -29.2802  -41.4489 H         1 UNK         0.0595 
     97 H97        25.3920  -29.3899  -43.7181 H         1 UNK         0.0839 
     98 H98        26.6510  -30.5762  -43.4080 H         1 UNK         0.0839 
     99 H99        27.0894  -28.9467  -43.8951 H         1 UNK         0.0839 
    100 H100       23.9950  -28.6798  -41.4030 H         1 UNK         0.2998 
    101 H101       22.3150  -29.3028  -40.1576 H         1 UNK         0.0822 
    102 H102       23.7644  -29.3463  -38.1516 H         1 UNK         0.0787 
    103 H103       22.5294  -30.5934  -38.0680 H         1 UNK         0.0787 
    104 H104       24.1838  -31.0318  -38.4565 H         1 UNK         0.0787 
    105 H105       24.3250  -32.1948  -40.7154 H         1 UNK         0.3055 
    106 H106       23.9011  -34.2756  -41.4595 H         1 UNK         0.1106 
    107 H107       22.1423  -32.7344  -43.4490 H         1 UNK         0.0828 
    108 H108       22.8089  -34.3465  -43.7042 H         1 UNK         0.0828 
    109 H109       23.8799  -32.9665  -43.5685 H         1 UNK         0.0828 
    110 H110       20.7970  -34.1119  -42.7709 H         1 UNK         0.2931 
    111 H111       19.6443  -35.8282  -40.7510 H         1 UNK         0.0412 
    112 H112       19.8453  -32.4409  -40.6791 H         1 UNK         0.3472 
    113 H113       18.3841  -32.2149  -39.7496 H         1 UNK         0.3472 
    114 H114       17.5907  -35.6669  -42.4642 H         1 UNK         0.0970 
    115 H115       18.9600  -36.6818  -42.7138 H         1 UNK         0.0970 
    116 H116       17.4928  -33.5079  -45.5327 H         1 UNK         0.0612 
    117 H117       16.7687  -34.0059  -44.0237 H         1 UNK         0.0612 
@<TRIPOS>BOND
     1    1    2 1    
     2    1   62 1    
     3    1   63 1    
     4    1   64 1    
     5    2    3 2    
     6    2    4 am   BACKBONE|DICT|INTERRES
     7    4    5 1    
     8    4   65 1    
     9    5    6 1    
    10    5   25 1    
    11    5   66 1    
    12    6    7 1    
    13    6   67 1    
    14    6   68 1    
    15    7    8 1    
    16    8    9 1    
    17    8   69 1    
    18    8   70 1    
    19    9   10 ar   
    20    9   14 ar   
    21   10   11 ar   
    22   10   71 1    
    23   11   12 ar   
    24   11   61 1    
    25   12   13 ar   
    26   12   72 1    
    27   13   14 ar   
    28   13   15 1    
    29   14   73 1    
    30   15   16 1    
    31   15   74 1    
    32   15   75 1    
    33   16   17 1    
    34   17   18 1    
    35   17   76 1    
    36   17   77 1    
    37   18   19 1    
    38   18   27 1    
    39   18   78 1    
    40   19   20 am   BACKBONE|DICT|INTERRES
    41   19   79 1    
    42   20   21 2    
    43   20   22 1    
    44   22   23 1    
    45   22   24 1    
    46   22   80 1    
    47   23   81 1    
    48   23   82 1    
    49   23   83 1    
    50   24   25 am   BACKBONE|DICT|INTERRES
    51   24   84 1    
    52   25   26 2    
    53   27   28 2    
    54   27   29 am   BACKBONE|DICT|INTERRES
    55   29   30 1    
    56   29   85 1    
    57   30   31 1    
    58   30   32 1    
    59   30   86 1    
    60   31   87 1    
    61   31   88 1    
    62   31   89 1    
    63   32   33 2    
    64   32   34 am   BACKBONE|DICT|INTERRES
    65   34   35 1    
    66   34   90 1    
    67   35   36 1    
    68   35   37 1    
    69   35   91 1    
    70   36   92 1    
    71   36   93 1    
    72   36   94 1    
    73   37   38 2    
    74   37   39 am   BACKBONE|DICT|INTERRES
    75   39   40 1    
    76   39   95 1    
    77   40   41 1    
    78   40   42 1    
    79   40   96 1    
    80   41   97 1    
    81   41   98 1    
    82   41   99 1    
    83   42   43 2    
    84   42   44 am   BACKBONE|DICT|INTERRES
    85   44   45 1    
    86   44  100 1    
    87   45   46 1    
    88   45   47 1    
    89   45  101 1    
    90   46  102 1    
    91   46  103 1    
    92   46  104 1    
    93   47   48 2    
    94   47   49 am   BACKBONE|DICT|INTERRES
    95   49   50 1    
    96   49  105 1    
    97   50   51 1    
    98   50   52 1    
    99   50  106 1    
   100   51  107 1    
   101   51  108 1    
   102   51  109 1    
   103   52   53 2    
   104   52   54 am   BACKBONE|DICT|INTERRES
   105   54   55 1    
   106   54  110 1    
   107   55   56 1    
   108   55   59 1    
   109   55  111 1    
   110   56   57 am   BACKBONE|DICT|INTERRES
   111   56   58 2    
   112   57  112 1    
   113   57  113 1    
   114   59   60 1    
   115   59  114 1    
   116   59  115 1    
   117   60   61 1    
   118   61  116 1    
   119   61  117 1    
@<TRIPOS>SUBSTRUCTURE
     1 UNK         1 GROUP             0       ****    0 ROOT    
