@<TRIPOS>MOLECULE
3R8
117   119    1
SMALL
USER_CHARGES


@<TRIPOS>ATOM
      1 CA         19.6536  -26.7342  -42.6545 C.3       0 UNK        -0.2013 
      2 C          18.3545  -25.9708  -42.8600 C.2       0 UNK         0.4866 
      3 O          18.2106  -24.8644  -42.3408 O.2       0 UNK        -0.5176 
      4 N          17.4064  -26.5490  -43.6118 N.am      1 UNK        -0.4884 
      5 CA         16.0944  -25.9488  -43.9067 C.3       1 UNK         0.0853 
      6 C6         15.1060  -26.9627  -44.5331 C.3       10 UNK        -0.0849 
      7 S7         14.8197  -28.4096  -43.4592 S.3       10 UNK        -0.2776 
      8 C8         15.4198  -29.7806  -44.4994 C.3       10 UNK         0.0316 
      9 C9         16.9325  -29.7614  -44.6775 C.ar      10 UNK        -0.0863 
     10 C10        17.7675  -30.0693  -43.5989 C.ar      10 UNK        -0.1009 
     11 C11        19.1555  -30.0932  -43.7599 C.ar      10 UNK        -0.0712 
     12 C12        19.7080  -29.8147  -45.0134 C.ar      10 UNK        -0.0894 
     13 C13        18.8845  -29.5090  -46.1014 C.ar      10 UNK        -0.0745 
     14 C14        17.4972  -29.4778  -45.9260 C.ar      10 UNK        -0.0972 
     15 C15        19.4919  -29.2562  -47.4757 C.3       10 UNK         0.0209 
     16 S16        19.5716  -27.4861  -47.8927 S.3       10 UNK        -0.2568 
     17 C17        20.8458  -26.8996  -46.7269 C.3       10 UNK        -0.0983 
     18 CA         21.0056  -25.3532  -46.6588 C.3       3 UNK         0.0876 
     19 N          19.7371  -24.6894  -46.3720 N.am      3 UNK        -0.4424 
     20 C          18.9172  -24.1084  -47.2539 C.2       2 UNK         0.4918 
     21 O          19.1920  -23.9331  -48.4418 O.2       2 UNK        -0.4875 
     22 CA         17.5278  -23.7346  -46.7105 C.3       2 UNK         0.0481 
     23 CB         16.4840  -23.4968  -47.8195 C.3       2 UNK        -0.1831 
     24 N          17.0899  -24.8056  -45.8159 N.am      2 UNK        -0.4498 
     25 C          16.2232  -24.7009  -44.8040 C.2       1 UNK         0.5027 
     26 O          15.5723  -23.6862  -44.5511 O.2       1 UNK        -0.4969 
     27 C          21.9852  -24.9885  -45.5291 C.2       3 UNK         0.5005 
     28 O          21.5711  -24.4130  -44.5172 O.2       3 UNK        -0.5279 
     29 N          23.2538  -25.3905  -45.6795 N.am      4 UNK        -0.4463 
     30 CA         24.2181  -25.4341  -44.5793 C.3       4 UNK         0.0283 
     31 CB         25.6358  -25.6285  -45.1411 C.3       4 UNK        -0.1875 
     32 C          23.8482  -26.5760  -43.6162 C.2       4 UNK         0.4949 
     33 O          23.6654  -27.7094  -44.0659 O.2       4 UNK        -0.5039 
     34 N          23.7249  -26.2565  -42.3243 N.am      5 UNK        -0.4663 
     35 CA         23.4078  -27.2191  -41.2682 C.3       5 UNK         0.0242 
     36 CB         22.8215  -26.4615  -40.0652 C.3       5 UNK        -0.1982 
     37 C          24.6467  -28.0274  -40.8477 C.2       5 UNK         0.5017 
     38 O          25.7772  -27.5641  -41.0201 O.2       5 UNK        -0.5012 
     39 N          24.4030  -29.2021  -40.2611 N.am      6 UNK        -0.4439 
     40 CA         25.4013  -30.0920  -39.6794 C.3       6 UNK         0.0297 
     41 CB         25.9985  -31.0026  -40.7672 C.3       6 UNK        -0.2006 
     42 C          24.7062  -30.9176  -38.5943 C.2       6 UNK         0.4892 
     43 O          23.5013  -31.1582  -38.7015 O.2       6 UNK        -0.5089 
     44 N          25.4730  -31.3650  -37.5918 N.am      7 UNK        -0.4243 
     45 CA         24.9815  -32.1434  -36.4464 C.3       7 UNK         0.0196 
     46 CB         26.1148  -32.3040  -35.4203 C.3       7 UNK        -0.2007 
     47 C          24.3957  -33.5185  -36.8185 C.2       7 UNK         0.5020 
     48 O          23.5393  -34.0264  -36.0949 O.2       7 UNK        -0.5147 
     49 N          24.8567  -34.0901  -37.9386 N.am      8 UNK        -0.4734 
     50 CA         24.3518  -35.3451  -38.5009 C.3       8 UNK         0.0238 
     51 CB         25.4421  -35.9605  -39.3945 C.3       8 UNK        -0.1912 
     52 C          23.0407  -35.1783  -39.2932 C.2       8 UNK         0.5038 
     53 O          22.3932  -36.1862  -39.5811 O.2       8 UNK        -0.5046 
     54 N          22.6850  -33.9387  -39.6587 N.am      9 UNK        -0.4200 
     55 CA         21.4698  -33.6072  -40.4126 C.3       9 UNK         0.0839 
     56 C          20.1926  -33.6712  -39.5296 C.2       9 UNK         0.5513 
     57 N          19.0459  -33.9815  -40.1195 N.am      9 UNK        -0.7519 
     58 O          20.2240  -33.4154  -38.3274 O.2       9 UNK        -0.4960 
     59 C59        21.6250  -32.2387  -41.1280 C.3       10 UNK        -0.0876 
     60 S60        20.6328  -32.1389  -42.6545 S.3       10 UNK        -0.2414 
     61 C61        20.0608  -30.4177  -42.5822 C.3       10 UNK         0.0169 
     62 H62        20.4883  -26.0421  -42.5450 H         1 UNK         0.0903 
     63 H63        19.5957  -27.3438  -41.7534 H         1 UNK         0.0903 
     64 H64        19.8722  -27.3821  -43.4999 H         1 UNK         0.0903 
     65 H65        17.5508  -27.4840  -43.9718 H         1 UNK         0.3096 
     66 H66        15.6702  -25.6113  -42.9580 H         1 UNK         0.1121 
     67 H67        14.1376  -26.4886  -44.7061 H         1 UNK         0.0849 
     68 H68        15.4570  -27.2921  -45.5126 H         1 UNK         0.0849 
     69 H69        15.1312  -30.7243  -44.0339 H         1 UNK         0.0865 
     70 H70        14.9103  -29.7541  -45.4640 H         1 UNK         0.0865 
     71 H71        17.3332  -30.2952  -42.6341 H         1 UNK         0.1346 
     72 H72        20.7818  -29.8450  -45.1410 H         1 UNK         0.1412 
     73 H73        16.8595  -29.2514  -46.7699 H         1 UNK         0.1426 
     74 H74        18.8944  -29.7664  -48.2325 H         1 UNK         0.0716 
     75 H75        20.4925  -29.6868  -47.5408 H         1 UNK         0.0716 
     76 H76        21.7891  -27.3712  -47.0078 H         1 UNK         0.0695 
     77 H77        20.5971  -27.2877  -45.7392 H         1 UNK         0.0695 
     78 H78        21.4168  -24.9800  -47.5993 H         1 UNK         0.0983 
     79 H79        19.5047  -24.6564  -45.3885 H         1 UNK         0.3095 
     80 H80        17.6463  -22.8150  -46.1341 H         1 UNK         0.0454 
     81 H81        16.7940  -22.6878  -48.4820 H         1 UNK         0.0851 
     82 H82        15.5159  -23.2181  -47.4038 H         1 UNK         0.0851 
     83 H83        16.3422  -24.3871  -48.4329 H         1 UNK         0.0851 
     84 H84        17.5685  -25.6882  -45.9401 H         1 UNK         0.2976 
     85 H85        23.5131  -25.8852  -46.5210 H         1 UNK         0.3116 
     86 H86        24.1883  -24.4815  -44.0455 H         1 UNK         0.0646 
     87 H87        26.3718  -25.6512  -44.3363 H         1 UNK         0.0847 
     88 H88        25.9136  -24.8147  -45.8110 H         1 UNK         0.0847 
     89 H89        25.7292  -26.5653  -45.6921 H         1 UNK         0.0847 
     90 H90        23.9217  -25.3104  -42.0315 H         1 UNK         0.3040 
     91 H91        22.6526  -27.9137  -41.6439 H         1 UNK         0.1015 
     92 H92        22.5304  -27.1494  -39.2702 H         1 UNK         0.0786 
     93 H93        21.9303  -25.8995  -40.3452 H         1 UNK         0.0786 
     94 H94        23.5408  -25.7597  -39.6407 H         1 UNK         0.0786 
     95 H95        23.4500  -29.4967  -40.0848 H         1 UNK         0.3172 
     96 H96        26.1926  -29.4989  -39.2160 H         1 UNK         0.0595 
     97 H97        26.7460  -31.6775  -40.3491 H         1 UNK         0.0839 
     98 H98        26.4914  -30.4193  -41.5452 H         1 UNK         0.0839 
     99 H99        25.2338  -31.6159  -41.2453 H         1 UNK         0.0839 
    100 H100       26.4559  -31.1307  -37.5897 H         1 UNK         0.2998 
    101 H101       24.1777  -31.5693  -35.9802 H         1 UNK         0.0822 
    102 H102       26.4747  -31.3363  -35.0703 H         1 UNK         0.0787 
    103 H103       25.7724  -32.8557  -34.5435 H         1 UNK         0.0787 
    104 H104       26.9628  -32.8489  -35.8369 H         1 UNK         0.0787 
    105 H105       25.5739  -33.6084  -38.4612 H         1 UNK         0.3055 
    106 H106       24.1471  -36.0408  -37.6836 H         1 UNK         0.1106 
    107 H107       26.3578  -36.1467  -38.8330 H         1 UNK         0.0828 
    108 H108       25.1173  -36.9179  -39.8046 H         1 UNK         0.0828 
    109 H109       25.6888  -35.3129  -40.2369 H         1 UNK         0.0828 
    110 H110       23.2096  -33.1506  -39.2996 H         1 UNK         0.2931 
    111 H111       21.3734  -34.3761  -41.1827 H         1 UNK         0.0412 
    112 H112       19.0086  -34.1586  -41.1120 H         1 UNK         0.3472 
    113 H113       18.2017  -34.0192  -39.5698 H         1 UNK         0.3472 
    114 H114       21.3831  -31.4147  -40.4537 H         1 UNK         0.0970 
    115 H115       22.6631  -32.0815  -41.4252 H         1 UNK         0.0970 
    116 H116       19.5362  -30.2485  -41.6410 H         1 UNK         0.0612 
    117 H117       20.9236  -29.7505  -42.5845 H         1 UNK         0.0612 
@<TRIPOS>BOND
     1    1    2 1    
     2    1   62 1    
     3    1   63 1    
     4    1   64 1    
     5    2    3 2    
     6    2    4 am   BACKBONE|DICT|INTERRES
     7    4    5 1    
     8    4   65 1    
     9    5    6 1    
    10    5   25 1    
    11    5   66 1    
    12    6    7 1    
    13    6   67 1    
    14    6   68 1    
    15    7    8 1    
    16    8    9 1    
    17    8   69 1    
    18    8   70 1    
    19    9   10 ar   
    20    9   14 ar   
    21   10   11 ar   
    22   10   71 1    
    23   11   12 ar   
    24   11   61 1    
    25   12   13 ar   
    26   12   72 1    
    27   13   14 ar   
    28   13   15 1    
    29   14   73 1    
    30   15   16 1    
    31   15   74 1    
    32   15   75 1    
    33   16   17 1    
    34   17   18 1    
    35   17   76 1    
    36   17   77 1    
    37   18   19 1    
    38   18   27 1    
    39   18   78 1    
    40   19   20 am   BACKBONE|DICT|INTERRES
    41   19   79 1    
    42   20   21 2    
    43   20   22 1    
    44   22   23 1    
    45   22   24 1    
    46   22   80 1    
    47   23   81 1    
    48   23   82 1    
    49   23   83 1    
    50   24   25 am   BACKBONE|DICT|INTERRES
    51   24   84 1    
    52   25   26 2    
    53   27   28 2    
    54   27   29 am   BACKBONE|DICT|INTERRES
    55   29   30 1    
    56   29   85 1    
    57   30   31 1    
    58   30   32 1    
    59   30   86 1    
    60   31   87 1    
    61   31   88 1    
    62   31   89 1    
    63   32   33 2    
    64   32   34 am   BACKBONE|DICT|INTERRES
    65   34   35 1    
    66   34   90 1    
    67   35   36 1    
    68   35   37 1    
    69   35   91 1    
    70   36   92 1    
    71   36   93 1    
    72   36   94 1    
    73   37   38 2    
    74   37   39 am   BACKBONE|DICT|INTERRES
    75   39   40 1    
    76   39   95 1    
    77   40   41 1    
    78   40   42 1    
    79   40   96 1    
    80   41   97 1    
    81   41   98 1    
    82   41   99 1    
    83   42   43 2    
    84   42   44 am   BACKBONE|DICT|INTERRES
    85   44   45 1    
    86   44  100 1    
    87   45   46 1    
    88   45   47 1    
    89   45  101 1    
    90   46  102 1    
    91   46  103 1    
    92   46  104 1    
    93   47   48 2    
    94   47   49 am   BACKBONE|DICT|INTERRES
    95   49   50 1    
    96   49  105 1    
    97   50   51 1    
    98   50   52 1    
    99   50  106 1    
   100   51  107 1    
   101   51  108 1    
   102   51  109 1    
   103   52   53 2    
   104   52   54 am   BACKBONE|DICT|INTERRES
   105   54   55 1    
   106   54  110 1    
   107   55   56 1    
   108   55   59 1    
   109   55  111 1    
   110   56   57 am   BACKBONE|DICT|INTERRES
   111   56   58 2    
   112   57  112 1    
   113   57  113 1    
   114   59   60 1    
   115   59  114 1    
   116   59  115 1    
   117   60   61 1    
   118   61  116 1    
   119   61  117 1    
@<TRIPOS>SUBSTRUCTURE
     1 UNK         1 GROUP             0       ****    0 ROOT    
