@<TRIPOS>MOLECULE
3R8
117   119    1
SMALL
USER_CHARGES


@<TRIPOS>ATOM
      1 CA         15.6422  -22.9880  -40.6511 C.3       0 UNK        -0.2013 
      2 C          15.5450  -23.3270  -42.1309 C.2       0 UNK         0.4866 
      3 O          15.1951  -22.4639  -42.9361 O.2       0 UNK        -0.5176 
      4 N          15.8534  -24.5780  -42.4970 N.am      1 UNK        -0.4884 
      5 CA         15.8309  -25.0799  -43.8778 C.3       1 UNK         0.0853 
      6 C6         15.7340  -26.6275  -43.9266 C.3       10 UNK        -0.0849 
      7 S7         17.0527  -27.4809  -42.9920 S.3       10 UNK        -0.2776 
      8 C8         16.5611  -29.2281  -43.1723 C.3       10 UNK         0.0316 
      9 C9         17.4810  -29.9854  -44.1220 C.ar      10 UNK        -0.0863 
     10 C10        18.3292  -30.9878  -43.6388 C.ar      10 UNK        -0.1009 
     11 C11        19.1618  -31.6989  -44.5095 C.ar      10 UNK        -0.0712 
     12 C12        19.1560  -31.3873  -45.8734 C.ar      10 UNK        -0.0894 
     13 C13        18.3032  -30.3961  -46.3716 C.ar      10 UNK        -0.0745 
     14 C14        17.4617  -29.7084  -45.4912 C.ar      10 UNK        -0.0972 
     15 C15        18.2496  -30.1048  -47.8668 C.3       10 UNK         0.0209 
     16 S16        19.5726  -28.9806  -48.4233 S.3       10 UNK        -0.2568 
     17 C17        19.1076  -27.4034  -47.6215 C.3       10 UNK        -0.0983 
     18 CA         20.1962  -26.7002  -46.7607 C.3       3 UNK         0.0876 
     19 N          19.5890  -25.5804  -46.0390 N.am      3 UNK        -0.4424 
     20 C          20.2206  -24.5783  -45.4202 C.2       2 UNK         0.4918 
     21 O          21.4430  -24.4377  -45.4240 O.2       2 UNK        -0.4875 
     22 CA         19.3484  -23.5648  -44.6488 C.3       2 UNK         0.0481 
     23 CB         19.0891  -22.3074  -45.5006 C.3       2 UNK        -0.1831 
     24 N          18.0911  -24.1012  -44.0943 N.am      2 UNK        -0.4498 
     25 C          17.0051  -24.5635  -44.7374 C.2       1 UNK         0.5027 
     26 O          16.9191  -24.6333  -45.9639 O.2       1 UNK        -0.4969 
     27 C          20.9847  -27.6485  -45.8228 C.2       3 UNK         0.5005 
     28 O          21.9383  -28.2814  -46.2822 O.2       3 UNK        -0.5279 
     29 N          20.5988  -27.7166  -44.5373 N.am      4 UNK        -0.4463 
     30 CA         21.2146  -28.5697  -43.5176 C.3       4 UNK         0.0283 
     31 CB         20.5007  -28.3903  -42.1683 C.3       4 UNK        -0.1875 
     32 C          22.7245  -28.3435  -43.3384 C.2       4 UNK         0.4949 
     33 O          23.1778  -27.1981  -43.2823 O.2       4 UNK        -0.5039 
     34 N          23.4601  -29.4533  -43.2170 N.am      5 UNK        -0.4663 
     35 CA         24.8926  -29.4836  -42.9302 C.3       5 UNK         0.0242 
     36 CB         25.4185  -30.8970  -43.2339 C.3       5 UNK        -0.1982 
     37 C          25.1855  -29.1138  -41.4676 C.2       5 UNK         0.5017 
     38 O          24.3226  -29.2884  -40.6027 O.2       5 UNK        -0.5012 
     39 N          26.4310  -28.6927  -41.2037 N.am      6 UNK        -0.4439 
     40 CA         26.9549  -28.3562  -39.8709 C.3       6 UNK         0.0297 
     41 CB         28.3762  -27.7884  -40.0163 C.3       6 UNK        -0.2006 
     42 C          26.9434  -29.5251  -38.8637 C.2       6 UNK         0.4892 
     43 O          26.9879  -29.2829  -37.6575 O.2       6 UNK        -0.5089 
     44 N          26.8512  -30.7617  -39.3728 N.am      7 UNK        -0.4243 
     45 CA         26.6352  -31.9897  -38.6055 C.3       7 UNK         0.0196 
     46 CB         26.9532  -33.1924  -39.5110 C.3       7 UNK        -0.2007 
     47 C          25.2131  -32.1205  -38.0181 C.2       7 UNK         0.5020 
     48 O          24.9964  -33.0268  -37.2137 O.2       7 UNK        -0.5147 
     49 N          24.2805  -31.2420  -38.4261 N.am      8 UNK        -0.4734 
     50 CA         22.8613  -31.1983  -38.0526 C.3       8 UNK         0.0238 
     51 CB         22.6823  -30.9464  -36.5393 C.3       8 UNK        -0.1912 
     52 C          22.1117  -32.4425  -38.5582 C.2       8 UNK         0.5038 
     53 O          21.6059  -33.2351  -37.7611 O.2       8 UNK        -0.5046 
     54 N          22.0850  -32.5934  -39.8886 N.am      9 UNK        -0.4200 
     55 CA         21.4446  -33.7070  -40.6075 C.3       9 UNK         0.0839 
     56 C          19.8958  -33.8089  -40.4650 C.2       9 UNK         0.5513 
     57 N          19.1969  -32.7737  -40.0147 N.am      9 UNK        -0.7519 
     58 O          19.3225  -34.8522  -40.7671 O.2       9 UNK        -0.4960 
     59 C59        21.8951  -33.7556  -42.0931 C.3       10 UNK        -0.0876 
     60 S60        21.4615  -32.2529  -43.0399 S.3       10 UNK        -0.2414 
     61 C61        20.0162  -32.8421  -43.9778 C.3       10 UNK         0.0169 
     62 H62        14.6791  -22.6344  -40.2831 H         1 UNK         0.0903 
     63 H63        15.9373  -23.8505  -40.0532 H         1 UNK         0.0903 
     64 H64        16.3775  -22.1989  -40.4948 H         1 UNK         0.0903 
     65 H65        16.1326  -25.2548  -41.7991 H         1 UNK         0.3096 
     66 H66        14.9279  -24.6877  -44.3521 H         1 UNK         0.1121 
     67 H67        14.7732  -26.9350  -43.5105 H         1 UNK         0.0849 
     68 H68        15.7339  -26.9839  -44.9584 H         1 UNK         0.0849 
     69 H69        15.5316  -29.3027  -43.5252 H         1 UNK         0.0865 
     70 H70        16.5726  -29.6905  -42.1841 H         1 UNK         0.0865 
     71 H71        18.3371  -31.2283  -42.5842 H         1 UNK         0.1346 
     72 H72        19.7954  -31.9331  -46.5536 H         1 UNK         0.1412 
     73 H73        16.7849  -28.9563  -45.8704 H         1 UNK         0.1426 
     74 H74        17.2814  -29.6827  -48.1407 H         1 UNK         0.0716 
     75 H75        18.3347  -31.0414  -48.4197 H         1 UNK         0.0716 
     76 H76        18.2163  -27.5666  -47.0178 H         1 UNK         0.0695 
     77 H77        18.7885  -26.7234  -48.4130 H         1 UNK         0.0695 
     78 H78        20.9337  -26.2780  -47.4467 H         1 UNK         0.0983 
     79 H79        18.5747  -25.5380  -46.0421 H         1 UNK         0.3095 
     80 H80        19.9358  -23.2552  -43.7829 H         1 UNK         0.0454 
     81 H81        18.5330  -21.5563  -44.9398 H         1 UNK         0.0851 
     82 H82        18.5261  -22.5351  -46.4061 H         1 UNK         0.0851 
     83 H83        20.0284  -21.8489  -45.8125 H         1 UNK         0.0851 
     84 H84        18.0517  -24.1324  -43.0849 H         1 UNK         0.2976 
     85 H85        19.8111  -27.1581  -44.2451 H         1 UNK         0.3116 
     86 H86        21.0584  -29.5932  -43.8549 H         1 UNK         0.0646 
     87 H87        21.0049  -28.9523  -41.3805 H         1 UNK         0.0847 
     88 H88        19.4786  -28.7593  -42.2076 H         1 UNK         0.0847 
     89 H89        20.4762  -27.3451  -41.8586 H         1 UNK         0.0847 
     90 H90        22.9869  -30.3466  -43.2435 H         1 UNK         0.3040 
     91 H91        25.3917  -28.7642  -43.5835 H         1 UNK         0.1015 
     92 H92        25.2239  -31.1771  -44.2696 H         1 UNK         0.0786 
     93 H93        24.9542  -31.6483  -42.5931 H         1 UNK         0.0786 
     94 H94        26.4970  -30.9601  -43.0835 H         1 UNK         0.0786 
     95 H95        27.0787  -28.5961  -41.9734 H         1 UNK         0.3172 
     96 H96        26.3154  -27.5731  -39.4581 H         1 UNK         0.0595 
     97 H97        29.0613  -28.5184  -40.4498 H         1 UNK         0.0839 
     98 H98        28.7822  -27.4985  -39.0460 H         1 UNK         0.0839 
     99 H99        28.3876  -26.8988  -40.6464 H         1 UNK         0.0839 
    100 H100       26.8403  -30.8531  -40.3776 H         1 UNK         0.2998 
    101 H101       27.3337  -31.9944  -37.7658 H         1 UNK         0.0822 
    102 H102       26.2824  -33.2397  -40.3701 H         1 UNK         0.0787 
    103 H103       27.9769  -33.1501  -39.8841 H         1 UNK         0.0787 
    104 H104       26.8496  -34.1315  -38.9655 H         1 UNK         0.0787 
    105 H105       24.5519  -30.5481  -39.1175 H         1 UNK         0.3055 
    106 H106       22.4310  -30.3414  -38.5746 H         1 UNK         0.1106 
    107 H107       23.0524  -31.7758  -35.9361 H         1 UNK         0.0828 
    108 H108       23.2053  -30.0436  -36.2238 H         1 UNK         0.0828 
    109 H109       21.6284  -30.8143  -36.2915 H         1 UNK         0.0828 
    110 H110       22.5207  -31.8907  -40.4672 H         1 UNK         0.2931 
    111 H111       21.8300  -34.6160  -40.1415 H         1 UNK         0.0412 
    112 H112       19.6593  -31.9159  -39.7630 H         1 UNK         0.3472 
    113 H113       18.1976  -32.8578  -39.9181 H         1 UNK         0.3472 
    114 H114       22.9786  -33.8747  -42.1386 H         1 UNK         0.0970 
    115 H115       21.4905  -34.6392  -42.5907 H         1 UNK         0.0970 
    116 H116       20.3604  -33.4799  -44.7933 H         1 UNK         0.0612 
    117 H117       19.3940  -33.4713  -43.3407 H         1 UNK         0.0612 
@<TRIPOS>BOND
     1    1    2 1    
     2    1   62 1    
     3    1   63 1    
     4    1   64 1    
     5    2    3 2    
     6    2    4 am   BACKBONE|DICT|INTERRES
     7    4    5 1    
     8    4   65 1    
     9    5    6 1    
    10    5   25 1    
    11    5   66 1    
    12    6    7 1    
    13    6   67 1    
    14    6   68 1    
    15    7    8 1    
    16    8    9 1    
    17    8   69 1    
    18    8   70 1    
    19    9   10 ar   
    20    9   14 ar   
    21   10   11 ar   
    22   10   71 1    
    23   11   12 ar   
    24   11   61 1    
    25   12   13 ar   
    26   12   72 1    
    27   13   14 ar   
    28   13   15 1    
    29   14   73 1    
    30   15   16 1    
    31   15   74 1    
    32   15   75 1    
    33   16   17 1    
    34   17   18 1    
    35   17   76 1    
    36   17   77 1    
    37   18   19 1    
    38   18   27 1    
    39   18   78 1    
    40   19   20 am   BACKBONE|DICT|INTERRES
    41   19   79 1    
    42   20   21 2    
    43   20   22 1    
    44   22   23 1    
    45   22   24 1    
    46   22   80 1    
    47   23   81 1    
    48   23   82 1    
    49   23   83 1    
    50   24   25 am   BACKBONE|DICT|INTERRES
    51   24   84 1    
    52   25   26 2    
    53   27   28 2    
    54   27   29 am   BACKBONE|DICT|INTERRES
    55   29   30 1    
    56   29   85 1    
    57   30   31 1    
    58   30   32 1    
    59   30   86 1    
    60   31   87 1    
    61   31   88 1    
    62   31   89 1    
    63   32   33 2    
    64   32   34 am   BACKBONE|DICT|INTERRES
    65   34   35 1    
    66   34   90 1    
    67   35   36 1    
    68   35   37 1    
    69   35   91 1    
    70   36   92 1    
    71   36   93 1    
    72   36   94 1    
    73   37   38 2    
    74   37   39 am   BACKBONE|DICT|INTERRES
    75   39   40 1    
    76   39   95 1    
    77   40   41 1    
    78   40   42 1    
    79   40   96 1    
    80   41   97 1    
    81   41   98 1    
    82   41   99 1    
    83   42   43 2    
    84   42   44 am   BACKBONE|DICT|INTERRES
    85   44   45 1    
    86   44  100 1    
    87   45   46 1    
    88   45   47 1    
    89   45  101 1    
    90   46  102 1    
    91   46  103 1    
    92   46  104 1    
    93   47   48 2    
    94   47   49 am   BACKBONE|DICT|INTERRES
    95   49   50 1    
    96   49  105 1    
    97   50   51 1    
    98   50   52 1    
    99   50  106 1    
   100   51  107 1    
   101   51  108 1    
   102   51  109 1    
   103   52   53 2    
   104   52   54 am   BACKBONE|DICT|INTERRES
   105   54   55 1    
   106   54  110 1    
   107   55   56 1    
   108   55   59 1    
   109   55  111 1    
   110   56   57 am   BACKBONE|DICT|INTERRES
   111   56   58 2    
   112   57  112 1    
   113   57  113 1    
   114   59   60 1    
   115   59  114 1    
   116   59  115 1    
   117   60   61 1    
   118   61  116 1    
   119   61  117 1    
@<TRIPOS>SUBSTRUCTURE
     1 UNK         1 GROUP             0       ****    0 ROOT    
