@<TRIPOS>MOLECULE
3R8
117   119    1
SMALL
USER_CHARGES


@<TRIPOS>ATOM
      1 CA         12.3908  -23.2561  -46.0905 C.3       0 UNK        -0.2013 
      2 C          13.8114  -23.7621  -46.2926 C.2       0 UNK         0.4866 
      3 O          14.5520  -23.2016  -47.1015 O.2       0 UNK        -0.5176 
      4 N          14.1944  -24.8231  -45.5718 N.am      1 UNK        -0.4884 
      5 CA         15.5360  -25.4135  -45.6012 C.3       1 UNK         0.0853 
      6 C6         15.5719  -26.7849  -44.8853 C.3       10 UNK        -0.0849 
      7 S7         14.6670  -28.0963  -45.7711 S.3       10 UNK        -0.2776 
      8 C8         14.5185  -29.3774  -44.4766 C.3       10 UNK         0.0316 
      9 C9         15.8573  -29.6949  -43.8206 C.ar      10 UNK        -0.0863 
     10 C10        16.7754  -30.5448  -44.4455 C.ar      10 UNK        -0.1009 
     11 C11        18.0283  -30.7960  -43.8731 C.ar      10 UNK        -0.0712 
     12 C12        18.3441  -30.1920  -42.6470 C.ar      10 UNK        -0.0894 
     13 C13        17.4436  -29.3241  -42.0249 C.ar      10 UNK        -0.0745 
     14 C14        16.1934  -29.0997  -42.6024 C.ar      10 UNK        -0.0972 
     15 C15        17.8373  -28.5801  -40.7586 C.3       10 UNK         0.0209 
     16 S16        18.3686  -26.8772  -41.1405 S.3       10 UNK        -0.2568 
     17 C17        20.0264  -27.1379  -41.8622 C.3       10 UNK        -0.0983 
     18 CA         20.0254  -27.2084  -43.4197 C.3       3 UNK         0.0876 
     19 N          19.3894  -26.0692  -44.0862 N.am      3 UNK        -0.4424 
     20 C          19.7663  -24.7838  -44.0585 C.2       2 UNK         0.4918 
     21 O          20.7024  -24.3534  -43.3839 O.2       2 UNK        -0.4875 
     22 CA         18.9733  -23.8083  -44.9556 C.3       2 UNK         0.0481 
     23 CB         19.8660  -23.2807  -46.0914 C.3       2 UNK        -0.1831 
     24 N          17.7773  -24.4279  -45.5414 N.am      2 UNK        -0.4498 
     25 C          16.5764  -24.4798  -44.9480 C.2       1 UNK         0.5027 
     26 O          16.3004  -23.8955  -43.8972 O.2       1 UNK        -0.4969 
     27 C          21.4001  -27.5201  -44.0537 C.2       3 UNK         0.5005 
     28 O          21.5426  -27.3909  -45.2729 O.2       3 UNK        -0.5279 
     29 N          22.3728  -27.9548  -43.2457 N.am      4 UNK        -0.4463 
     30 CA         23.7283  -28.3039  -43.6559 C.3       4 UNK         0.0283 
     31 CB         23.7964  -29.8016  -44.0038 C.3       4 UNK        -0.1875 
     32 C          24.6830  -27.9644  -42.5089 C.2       4 UNK         0.4949 
     33 O          24.2499  -27.8981  -41.3538 O.2       4 UNK        -0.5039 
     34 N          25.9650  -27.7751  -42.8470 N.am      5 UNK        -0.4663 
     35 CA         27.0492  -27.4667  -41.9105 C.3       5 UNK         0.0242 
     36 CB         28.3633  -27.2955  -42.6896 C.3       5 UNK        -0.1982 
     37 C          27.1969  -28.5494  -40.8295 C.2       5 UNK         0.5017 
     38 O          27.2706  -29.7327  -41.1663 O.2       5 UNK        -0.5012 
     39 N          27.1952  -28.1183  -39.5601 N.am      6 UNK        -0.4439 
     40 CA         27.2340  -28.9434  -38.3443 C.3       6 UNK         0.0297 
     41 CB         28.5873  -29.6778  -38.2265 C.3       6 UNK        -0.2006 
     42 C          26.0308  -29.9008  -38.1850 C.2       6 UNK         0.4892 
     43 O          26.1370  -30.8707  -37.4326 O.2       6 UNK        -0.5089 
     44 N          24.9147  -29.6101  -38.8771 N.am      7 UNK        -0.4243 
     45 CA         23.6766  -30.3971  -38.9386 C.3       7 UNK         0.0196 
     46 CB         22.9366  -30.3667  -37.5842 C.3       7 UNK        -0.2007 
     47 C          23.9171  -31.8245  -39.4688 C.2       7 UNK         0.5020 
     48 O          23.4751  -32.7978  -38.8579 O.2       7 UNK        -0.5147 
     49 N          24.6330  -31.9187  -40.5989 N.am      8 UNK        -0.4734 
     50 CA         25.0417  -33.1742  -41.2433 C.3       8 UNK         0.0238 
     51 CB         26.0547  -32.8538  -42.3552 C.3       8 UNK        -0.1912 
     52 C          23.8919  -34.0400  -41.7987 C.2       8 UNK         0.5038 
     53 O          24.1205  -35.2180  -42.0782 O.2       8 UNK        -0.5046 
     54 N          22.6997  -33.4534  -41.9665 N.am      9 UNK        -0.4200 
     55 CA         21.4660  -34.1227  -42.4066 C.3       9 UNK         0.0839 
     56 C          21.0262  -35.2661  -41.4509 C.2       9 UNK         0.5513 
     57 N          20.5973  -36.3978  -41.9927 N.am      9 UNK        -0.7519 
     58 O          21.0215  -35.1161  -40.2313 O.2       9 UNK        -0.4960 
     59 C59        20.3139  -33.1022  -42.5832 C.3       10 UNK        -0.0876 
     60 S60        20.6665  -31.8909  -43.9019 S.3       10 UNK        -0.2414 
     61 C61        19.0106  -31.6805  -44.6480 C.3       10 UNK         0.0169 
     62 H62        12.4067  -22.2232  -45.7434 H         1 UNK         0.0903 
     63 H63        11.8424  -23.2912  -47.0315 H         1 UNK         0.0903 
     64 H64        11.8457  -23.8514  -45.3582 H         1 UNK         0.0903 
     65 H65        13.5485  -25.2400  -44.9168 H         1 UNK         0.3096 
     66 H66        15.8127  -25.5584  -46.6482 H         1 UNK         0.1121 
     67 H67        15.1721  -26.6916  -43.8735 H         1 UNK         0.0849 
     68 H68        16.5995  -27.1365  -44.7748 H         1 UNK         0.0849 
     69 H69        14.1010  -30.2835  -44.9182 H         1 UNK         0.0865 
     70 H70        13.7969  -29.0464  -43.7279 H         1 UNK         0.0865 
     71 H71        16.5225  -30.9904  -45.3983 H         1 UNK         0.1346 
     72 H72        19.3090  -30.3431  -42.1878 H         1 UNK         0.1412 
     73 H73        15.4997  -28.4228  -42.1222 H         1 UNK         0.1426 
     74 H74        18.6267  -29.1076  -40.2208 H         1 UNK         0.0716 
     75 H75        16.9832  -28.5387  -40.0810 H         1 UNK         0.0716 
     76 H76        20.4360  -28.0524  -41.4307 H         1 UNK         0.0695 
     77 H77        20.6695  -26.3261  -41.5184 H         1 UNK         0.0695 
     78 H78        19.4103  -28.0580  -43.7069 H         1 UNK         0.0983 
     79 H79        18.6349  -26.3113  -44.7072 H         1 UNK         0.3095 
     80 H80        18.6775  -22.9588  -44.3365 H         1 UNK         0.0454 
     81 H81        19.3336  -22.5612  -46.7137 H         1 UNK         0.0851 
     82 H82        20.2212  -24.0863  -46.7353 H         1 UNK         0.0851 
     83 H83        20.7452  -22.7723  -45.6930 H         1 UNK         0.0851 
     84 H84        17.9100  -24.9084  -46.4209 H         1 UNK         0.2976 
     85 H85        22.2323  -27.9641  -42.2431 H         1 UNK         0.3116 
     86 H86        24.0152  -27.7107  -44.5270 H         1 UNK         0.0646 
     87 H87        24.8033  -30.0906  -44.3068 H         1 UNK         0.0847 
     88 H88        23.1290  -30.0458  -44.8305 H         1 UNK         0.0847 
     89 H89        23.5163  -30.4265  -43.1552 H         1 UNK         0.0847 
     90 H90        26.2294  -27.8827  -43.8158 H         1 UNK         0.3040 
     91 H91        26.8064  -26.5151  -41.4324 H         1 UNK         0.1015 
     92 H92        28.2905  -26.4919  -43.4227 H         1 UNK         0.0786 
     93 H93        28.6411  -28.2090  -43.2175 H         1 UNK         0.0786 
     94 H94        29.1856  -27.0456  -42.0176 H         1 UNK         0.0786 
     95 H95        27.1110  -27.1233  -39.3988 H         1 UNK         0.3172 
     96 H96        27.1678  -28.2457  -37.5083 H         1 UNK         0.0595 
     97 H97        28.6945  -30.4533  -38.9856 H         1 UNK         0.0839 
     98 H98        28.6887  -30.1615  -37.2542 H         1 UNK         0.0839 
     99 H99        29.4249  -28.9882  -38.3302 H         1 UNK         0.0839 
    100 H100       24.9362  -28.8036  -39.4915 H         1 UNK         0.2998 
    101 H101       23.0362  -29.9039  -39.6717 H         1 UNK         0.0822 
    102 H102       23.4998  -30.8752  -36.8011 H         1 UNK         0.0787 
    103 H103       22.7538  -29.3437  -37.2555 H         1 UNK         0.0787 
    104 H104       21.9670  -30.8607  -37.6589 H         1 UNK         0.0787 
    105 H105       25.0117  -31.0685  -40.9946 H         1 UNK         0.3055 
    106 H106       25.5472  -33.7787  -40.4867 H         1 UNK         0.1106 
    107 H107       26.4081  -33.7653  -42.8395 H         1 UNK         0.0828 
    108 H108       25.6187  -32.2222  -43.1294 H         1 UNK         0.0828 
    109 H109       26.9319  -32.3426  -41.9583 H         1 UNK         0.0828 
    110 H110       22.6087  -32.4851  -41.7035 H         1 UNK         0.2931 
    111 H111       21.6797  -34.5645  -43.3823 H         1 UNK         0.0412 
    112 H112       20.5878  -36.5261  -42.9930 H         1 UNK         0.3472 
    113 H113       20.2901  -37.1453  -41.3895 H         1 UNK         0.3472 
    114 H114       19.3851  -33.6224  -42.8259 H         1 UNK         0.0970 
    115 H115       20.1244  -32.5698  -41.6494 H         1 UNK         0.0970 
    116 H116       19.1549  -31.2390  -45.6351 H         1 UNK         0.0612 
    117 H117       18.5626  -32.6607  -44.8167 H         1 UNK         0.0612 
@<TRIPOS>BOND
     1    1    2 1    
     2    1   62 1    
     3    1   63 1    
     4    1   64 1    
     5    2    3 2    
     6    2    4 am   BACKBONE|DICT|INTERRES
     7    4    5 1    
     8    4   65 1    
     9    5    6 1    
    10    5   25 1    
    11    5   66 1    
    12    6    7 1    
    13    6   67 1    
    14    6   68 1    
    15    7    8 1    
    16    8    9 1    
    17    8   69 1    
    18    8   70 1    
    19    9   10 ar   
    20    9   14 ar   
    21   10   11 ar   
    22   10   71 1    
    23   11   12 ar   
    24   11   61 1    
    25   12   13 ar   
    26   12   72 1    
    27   13   14 ar   
    28   13   15 1    
    29   14   73 1    
    30   15   16 1    
    31   15   74 1    
    32   15   75 1    
    33   16   17 1    
    34   17   18 1    
    35   17   76 1    
    36   17   77 1    
    37   18   19 1    
    38   18   27 1    
    39   18   78 1    
    40   19   20 am   BACKBONE|DICT|INTERRES
    41   19   79 1    
    42   20   21 2    
    43   20   22 1    
    44   22   23 1    
    45   22   24 1    
    46   22   80 1    
    47   23   81 1    
    48   23   82 1    
    49   23   83 1    
    50   24   25 am   BACKBONE|DICT|INTERRES
    51   24   84 1    
    52   25   26 2    
    53   27   28 2    
    54   27   29 am   BACKBONE|DICT|INTERRES
    55   29   30 1    
    56   29   85 1    
    57   30   31 1    
    58   30   32 1    
    59   30   86 1    
    60   31   87 1    
    61   31   88 1    
    62   31   89 1    
    63   32   33 2    
    64   32   34 am   BACKBONE|DICT|INTERRES
    65   34   35 1    
    66   34   90 1    
    67   35   36 1    
    68   35   37 1    
    69   35   91 1    
    70   36   92 1    
    71   36   93 1    
    72   36   94 1    
    73   37   38 2    
    74   37   39 am   BACKBONE|DICT|INTERRES
    75   39   40 1    
    76   39   95 1    
    77   40   41 1    
    78   40   42 1    
    79   40   96 1    
    80   41   97 1    
    81   41   98 1    
    82   41   99 1    
    83   42   43 2    
    84   42   44 am   BACKBONE|DICT|INTERRES
    85   44   45 1    
    86   44  100 1    
    87   45   46 1    
    88   45   47 1    
    89   45  101 1    
    90   46  102 1    
    91   46  103 1    
    92   46  104 1    
    93   47   48 2    
    94   47   49 am   BACKBONE|DICT|INTERRES
    95   49   50 1    
    96   49  105 1    
    97   50   51 1    
    98   50   52 1    
    99   50  106 1    
   100   51  107 1    
   101   51  108 1    
   102   51  109 1    
   103   52   53 2    
   104   52   54 am   BACKBONE|DICT|INTERRES
   105   54   55 1    
   106   54  110 1    
   107   55   56 1    
   108   55   59 1    
   109   55  111 1    
   110   56   57 am   BACKBONE|DICT|INTERRES
   111   56   58 2    
   112   57  112 1    
   113   57  113 1    
   114   59   60 1    
   115   59  114 1    
   116   59  115 1    
   117   60   61 1    
   118   61  116 1    
   119   61  117 1    
@<TRIPOS>SUBSTRUCTURE
     1 UNK         1 GROUP             0       ****    0 ROOT    
