@<TRIPOS>MOLECULE
3R8
117   119    1
SMALL
USER_CHARGES


@<TRIPOS>ATOM
      1 CA         15.7705  -23.9683  -41.1084 C.3       0 UNK        -0.2013 
      2 C          16.3631  -23.6146  -42.4641 C.2       0 UNK         0.4866 
      3 O          16.5990  -22.4384  -42.7418 O.2       0 UNK        -0.5176 
      4 N          16.5958  -24.6248  -43.3109 N.am      1 UNK        -0.4884 
      5 CA         17.2419  -24.4946  -44.6207 C.3       1 UNK         0.0853 
      6 C6         16.7508  -25.6167  -45.5851 C.3       10 UNK        -0.0849 
      7 S7         17.6753  -27.1857  -45.4866 S.3       10 UNK        -0.2776 
      8 C8         16.4897  -28.4187  -44.8453 C.3       10 UNK         0.0316 
      9 C9         17.2396  -29.6949  -44.4724 C.ar      10 UNK        -0.0863 
     10 C10        17.1277  -30.2681  -43.2003 C.ar      10 UNK        -0.1009 
     11 C11        17.9174  -31.3711  -42.8488 C.ar      10 UNK        -0.0712 
     12 C12        18.8550  -31.8683  -43.7620 C.ar      10 UNK        -0.0894 
     13 C13        18.9733  -31.3005  -45.0327 C.ar      10 UNK        -0.0745 
     14 C14        18.1134  -30.2669  -45.3992 C.ar      10 UNK        -0.0972 
     15 C15        20.0457  -31.7667  -46.0065 C.3       10 UNK         0.0209 
     16 S16        21.6260  -30.8784  -45.7672 S.3       10 UNK        -0.2568 
     17 C17        21.2265  -29.1418  -46.2096 C.3       10 UNK        -0.0983 
     18 CA         21.5904  -28.0525  -45.1593 C.3       3 UNK         0.0876 
     19 N          21.1118  -26.7276  -45.5804 N.am      3 UNK        -0.4424 
     20 C          21.6308  -25.5651  -45.1589 C.2       2 UNK         0.4918 
     21 O          22.5794  -25.4873  -44.3786 O.2       2 UNK        -0.4875 
     22 CA         20.9645  -24.2723  -45.6716 C.3       2 UNK         0.0481 
     23 CB         21.4229  -23.9580  -47.1045 C.3       2 UNK        -0.1831 
     24 N          19.4974  -24.3028  -45.6158 N.am      2 UNK        -0.4498 
     25 C          18.7863  -24.3859  -44.4806 C.2       1 UNK         0.5027 
     26 O          19.3156  -24.4185  -43.3667 O.2       1 UNK        -0.4969 
     27 C          21.1813  -28.3730  -43.7004 C.2       3 UNK         0.5005 
     28 O          21.9006  -29.1107  -43.0285 O.2       3 UNK        -0.5279 
     29 N          20.1105  -27.7464  -43.1841 N.am      4 UNK        -0.4463 
     30 CA         19.6829  -27.8612  -41.7828 C.3       4 UNK         0.0283 
     31 CB         18.3380  -27.1526  -41.5682 C.3       4 UNK        -0.1875 
     32 C          20.7222  -27.3481  -40.7677 C.2       4 UNK         0.4949 
     33 O          20.7177  -27.7933  -39.6206 O.2       4 UNK        -0.5039 
     34 N          21.5962  -26.4327  -41.2061 N.am      5 UNK        -0.4663 
     35 CA         22.7203  -25.9149  -40.4273 C.3       5 UNK         0.0242 
     36 CB         23.0309  -24.4876  -40.9083 C.3       5 UNK        -0.1982 
     37 C          23.9795  -26.8003  -40.5125 C.2       5 UNK         0.5017 
     38 O          24.9228  -26.5499  -39.7603 O.2       5 UNK        -0.5012 
     39 N          24.0038  -27.7878  -41.4195 N.am      6 UNK        -0.4439 
     40 CA         25.1323  -28.6955  -41.6264 C.3       6 UNK         0.0297 
     41 CB         25.2308  -29.0438  -43.1226 C.3       6 UNK        -0.2006 
     42 C          24.9665  -29.9724  -40.7903 C.2       6 UNK         0.4892 
     43 O          23.8497  -30.3333  -40.4128 O.2       6 UNK        -0.5089 
     44 N          26.0900  -30.6698  -40.5712 N.am      7 UNK        -0.4243 
     45 CA         26.1831  -31.9316  -39.8237 C.3       7 UNK         0.0196 
     46 CB         27.6668  -32.2867  -39.6293 C.3       7 UNK        -0.2007 
     47 C          25.4240  -33.1158  -40.4559 C.2       7 UNK         0.5020 
     48 O          25.2123  -34.1224  -39.7796 O.2       7 UNK        -0.5147 
     49 N          25.0215  -32.9821  -41.7277 N.am      8 UNK        -0.4734 
     50 CA         24.1525  -33.9224  -42.4392 C.3       8 UNK         0.0238 
     51 CB         24.1123  -33.5413  -43.9283 C.3       8 UNK        -0.1912 
     52 C          22.7242  -33.9856  -41.8658 C.2       8 UNK         0.5038 
     53 O          22.0796  -35.0278  -41.9888 O.2       8 UNK        -0.5046 
     54 N          22.2586  -32.8867  -41.2580 N.am      9 UNK        -0.4200 
     55 CA         20.9768  -32.8039  -40.5554 C.3       9 UNK         0.0839 
     56 C          21.1417  -33.2744  -39.0872 C.2       9 UNK         0.5513 
     57 N          20.3169  -34.2087  -38.6345 N.am      9 UNK        -0.7519 
     58 O          21.9931  -32.7827  -38.3496 O.2       9 UNK        -0.4960 
     59 C59        20.4051  -31.3701  -40.6642 C.3       10 UNK        -0.0876 
     60 S60        18.6579  -31.2164  -40.1479 S.3       10 UNK        -0.2414 
     61 C61        17.7471  -32.0433  -41.4927 C.3       10 UNK         0.0169 
     62 H62        14.8332  -23.4344  -40.9568 H         1 UNK         0.0903 
     63 H63        15.5710  -25.0352  -41.0152 H         1 UNK         0.0903 
     64 H64        16.4586  -23.6821  -40.3142 H         1 UNK         0.0903 
     65 H65        16.3979  -25.5694  -43.0187 H         1 UNK         0.3096 
     66 H66        16.9160  -23.5439  -45.0492 H         1 UNK         0.1121 
     67 H67        15.6853  -25.8076  -45.4459 H         1 UNK         0.0849 
     68 H68        16.8387  -25.2661  -46.6146 H         1 UNK         0.0849 
     69 H69        15.7407  -28.6410  -45.6064 H         1 UNK         0.0865 
     70 H70        15.9593  -28.0107  -43.9843 H         1 UNK         0.0865 
     71 H71        16.4382  -29.8536  -42.4778 H         1 UNK         0.1346 
     72 H72        19.4998  -32.6898  -43.4809 H         1 UNK         0.1412 
     73 H73        18.1771  -29.8453  -46.3921 H         1 UNK         0.1426 
     74 H74        19.7105  -31.6362  -47.0367 H         1 UNK         0.0716 
     75 H75        20.2206  -32.8356  -45.8763 H         1 UNK         0.0716 
     76 H76        20.1785  -29.0578  -46.4781 H         1 UNK         0.0695 
     77 H77        21.7628  -28.9246  -47.1345 H         1 UNK         0.0695 
     78 H78        22.6820  -28.0062  -45.1406 H         1 UNK         0.0983 
     79 H79        20.3143  -26.7087  -46.1999 H         1 UNK         0.3095 
     80 H80        21.3004  -23.4555  -45.0290 H         1 UNK         0.0454 
     81 H81        21.0862  -24.7131  -47.8158 H         1 UNK         0.0851 
     82 H82        22.5114  -23.9165  -47.1650 H         1 UNK         0.0851 
     83 H83        21.0464  -22.9910  -47.4382 H         1 UNK         0.0851 
     84 H84        19.0084  -24.2904  -46.4995 H         1 UNK         0.2976 
     85 H85        19.5612  -27.1485  -43.7853 H         1 UNK         0.3116 
     86 H86        19.5275  -28.9199  -41.5925 H         1 UNK         0.0646 
     87 H87        17.9367  -27.3869  -40.5814 H         1 UNK         0.0847 
     88 H88        17.5968  -27.4672  -42.2990 H         1 UNK         0.0847 
     89 H89        18.4388  -26.0698  -41.6221 H         1 UNK         0.0847 
     90 H90        21.5223  -26.1149  -42.1638 H         1 UNK         0.3040 
     91 H91        22.4332  -25.8634  -39.3746 H         1 UNK         0.1015 
     92 H92        22.1582  -23.8401  -40.8208 H         1 UNK         0.0786 
     93 H93        23.3551  -24.4746  -41.9495 H         1 UNK         0.0786 
     94 H94        23.8274  -24.0384  -40.3136 H         1 UNK         0.0786 
     95 H95        23.1515  -28.0260  -41.9183 H         1 UNK         0.3172 
     96 H96        26.0597  -28.2003  -41.3306 H         1 UNK         0.0595 
     97 H97        24.3910  -29.6531  -43.4576 H         1 UNK         0.0839 
     98 H98        26.1404  -29.6063  -43.3353 H         1 UNK         0.0839 
     99 H99        25.2576  -28.1450  -43.7388 H         1 UNK         0.0839 
    100 H100       26.9588  -30.3051  -40.9353 H         1 UNK         0.2998 
    101 H101       25.7390  -31.7626  -38.8403 H         1 UNK         0.0822 
    102 H102       28.1986  -31.4982  -39.0962 H         1 UNK         0.0787 
    103 H103       27.7773  -33.2004  -39.0432 H         1 UNK         0.0787 
    104 H104       28.1707  -32.4490  -40.5831 H         1 UNK         0.0787 
    105 H105       25.2551  -32.1256  -42.2073 H         1 UNK         0.3055 
    106 H106       24.5858  -34.9209  -42.3468 H         1 UNK         0.1106 
    107 H107       23.4857  -34.2338  -44.4921 H         1 UNK         0.0828 
    108 H108       23.7046  -32.5405  -44.0781 H         1 UNK         0.0828 
    109 H109       25.1065  -33.5705  -44.3741 H         1 UNK         0.0828 
    110 H110       22.8745  -32.0896  -41.1399 H         1 UNK         0.2931 
    111 H111       20.2783  -33.4741  -41.0587 H         1 UNK         0.0412 
    112 H112       19.6098  -34.6109  -39.2303 H         1 UNK         0.3472 
    113 H113       20.4025  -34.5177  -37.6788 H         1 UNK         0.3472 
    114 H114       20.4912  -31.0177  -41.6921 H         1 UNK         0.0970 
    115 H115       21.0035  -30.6733  -40.0729 H         1 UNK         0.0970 
    116 H116       18.0465  -33.0903  -41.5470 H         1 UNK         0.0612 
    117 H117       16.6883  -32.0537  -41.2306 H         1 UNK         0.0612 
@<TRIPOS>BOND
     1    1    2 1    
     2    1   62 1    
     3    1   63 1    
     4    1   64 1    
     5    2    3 2    
     6    2    4 am   BACKBONE|DICT|INTERRES
     7    4    5 1    
     8    4   65 1    
     9    5    6 1    
    10    5   25 1    
    11    5   66 1    
    12    6    7 1    
    13    6   67 1    
    14    6   68 1    
    15    7    8 1    
    16    8    9 1    
    17    8   69 1    
    18    8   70 1    
    19    9   10 ar   
    20    9   14 ar   
    21   10   11 ar   
    22   10   71 1    
    23   11   12 ar   
    24   11   61 1    
    25   12   13 ar   
    26   12   72 1    
    27   13   14 ar   
    28   13   15 1    
    29   14   73 1    
    30   15   16 1    
    31   15   74 1    
    32   15   75 1    
    33   16   17 1    
    34   17   18 1    
    35   17   76 1    
    36   17   77 1    
    37   18   19 1    
    38   18   27 1    
    39   18   78 1    
    40   19   20 am   BACKBONE|DICT|INTERRES
    41   19   79 1    
    42   20   21 2    
    43   20   22 1    
    44   22   23 1    
    45   22   24 1    
    46   22   80 1    
    47   23   81 1    
    48   23   82 1    
    49   23   83 1    
    50   24   25 am   BACKBONE|DICT|INTERRES
    51   24   84 1    
    52   25   26 2    
    53   27   28 2    
    54   27   29 am   BACKBONE|DICT|INTERRES
    55   29   30 1    
    56   29   85 1    
    57   30   31 1    
    58   30   32 1    
    59   30   86 1    
    60   31   87 1    
    61   31   88 1    
    62   31   89 1    
    63   32   33 2    
    64   32   34 am   BACKBONE|DICT|INTERRES
    65   34   35 1    
    66   34   90 1    
    67   35   36 1    
    68   35   37 1    
    69   35   91 1    
    70   36   92 1    
    71   36   93 1    
    72   36   94 1    
    73   37   38 2    
    74   37   39 am   BACKBONE|DICT|INTERRES
    75   39   40 1    
    76   39   95 1    
    77   40   41 1    
    78   40   42 1    
    79   40   96 1    
    80   41   97 1    
    81   41   98 1    
    82   41   99 1    
    83   42   43 2    
    84   42   44 am   BACKBONE|DICT|INTERRES
    85   44   45 1    
    86   44  100 1    
    87   45   46 1    
    88   45   47 1    
    89   45  101 1    
    90   46  102 1    
    91   46  103 1    
    92   46  104 1    
    93   47   48 2    
    94   47   49 am   BACKBONE|DICT|INTERRES
    95   49   50 1    
    96   49  105 1    
    97   50   51 1    
    98   50   52 1    
    99   50  106 1    
   100   51  107 1    
   101   51  108 1    
   102   51  109 1    
   103   52   53 2    
   104   52   54 am   BACKBONE|DICT|INTERRES
   105   54   55 1    
   106   54  110 1    
   107   55   56 1    
   108   55   59 1    
   109   55  111 1    
   110   56   57 am   BACKBONE|DICT|INTERRES
   111   56   58 2    
   112   57  112 1    
   113   57  113 1    
   114   59   60 1    
   115   59  114 1    
   116   59  115 1    
   117   60   61 1    
   118   61  116 1    
   119   61  117 1    
@<TRIPOS>SUBSTRUCTURE
     1 UNK         1 GROUP             0       ****    0 ROOT    
