@<TRIPOS>MOLECULE
3R8
117   119    1
SMALL
USER_CHARGES


@<TRIPOS>ATOM
      1 CA         20.6290  -28.8885  -42.5612 C.3       0 UNK        -0.2013 
      2 C          19.8484  -27.6253  -42.2602 C.2       0 UNK         0.4866 
      3 O          20.3959  -26.7147  -41.6423 O.2       0 UNK        -0.5176 
      4 N          18.5801  -27.5687  -42.6823 N.am      1 UNK        -0.4884 
      5 CA         17.6692  -26.4359  -42.4584 C.3       1 UNK         0.0853 
      6 C6         16.1923  -26.7925  -42.7704 C.3       10 UNK        -0.0849 
      7 S7         15.6586  -28.3867  -42.0535 S.3       10 UNK        -0.2776 
      8 C8         15.3728  -29.3936  -43.5479 C.3       10 UNK         0.0316 
      9 C9         16.6679  -29.8063  -44.2394 C.ar      10 UNK        -0.0863 
     10 C10        17.3380  -30.9648  -43.8385 C.ar      10 UNK        -0.1009 
     11 C11        18.4894  -31.3876  -44.5090 C.ar      10 UNK        -0.0712 
     12 C12        18.9823  -30.6319  -45.5788 C.ar      10 UNK        -0.0894 
     13 C13        18.3445  -29.4460  -45.9699 C.ar      10 UNK        -0.0745 
     14 C14        17.1764  -29.0565  -45.3049 C.ar      10 UNK        -0.0972 
     15 C15        18.8443  -28.5652  -47.1193 C.3       10 UNK         0.0209 
     16 S16        20.5732  -28.8077  -47.6691 S.3       10 UNK        -0.2568 
     17 C17        21.5696  -28.4248  -46.1909 C.3       10 UNK        -0.0983 
     18 CA         22.0661  -26.9546  -46.1290 C.3       3 UNK         0.0876 
     19 N          21.0504  -26.0726  -45.5641 N.am      3 UNK        -0.4424 
     20 C          20.2853  -25.2026  -46.2309 C.2       2 UNK         0.4918 
     21 O          20.3569  -25.0110  -47.4451 O.2       2 UNK        -0.4875 
     22 CA         19.2204  -24.4778  -45.3895 C.3       2 UNK         0.0481 
     23 CB         18.1225  -23.8092  -46.2395 C.3       2 UNK        -0.1831 
     24 N          18.6283  -25.4436  -44.4667 N.am      2 UNK        -0.4498 
     25 C          18.0943  -25.1918  -43.2664 C.2       1 UNK         0.5027 
     26 O          17.9450  -24.0641  -42.7948 O.2       1 UNK        -0.4969 
     27 C          23.3056  -26.8396  -45.2253 C.2       3 UNK         0.5005 
     28 O          23.1748  -26.5413  -44.0331 O.2       3 UNK        -0.5279 
     29 N          24.4831  -27.1278  -45.7977 N.am      4 UNK        -0.4463 
     30 CA         25.8036  -27.0271  -45.1588 C.3       4 UNK         0.0283 
     31 CB         26.8890  -27.3038  -46.2127 C.3       4 UNK        -0.1875 
     32 C          26.0167  -27.9251  -43.9234 C.2       4 UNK         0.4949 
     33 O          26.9723  -27.7002  -43.1806 O.2       4 UNK        -0.5039 
     34 N          25.1318  -28.9100  -43.7137 N.am      5 UNK        -0.4663 
     35 CA         25.1023  -29.7805  -42.5365 C.3       5 UNK         0.0242 
     36 CB         24.1055  -30.9254  -42.7792 C.3       5 UNK        -0.1982 
     37 C          24.7745  -29.0478  -41.2209 C.2       5 UNK         0.5017 
     38 O          25.1332  -29.5673  -40.1657 O.2       5 UNK        -0.5012 
     39 N          24.1174  -27.8759  -41.2982 N.am      6 UNK        -0.4439 
     40 CA         23.7680  -26.9841  -40.1813 C.3       6 UNK         0.0297 
     41 CB         25.0360  -26.3040  -39.6243 C.3       6 UNK        -0.2006 
     42 C          22.9508  -27.7012  -39.0880 C.2       6 UNK         0.4892 
     43 O          23.4441  -27.9279  -37.9823 O.2       6 UNK        -0.5089 
     44 N          21.7253  -28.0887  -39.4600 N.am      7 UNK        -0.4243 
     45 CA         20.7128  -28.8351  -38.6977 C.3       7 UNK         0.0196 
     46 CB         20.2964  -28.0620  -37.4302 C.3       7 UNK        -0.2007 
     47 C          21.0530  -30.3039  -38.3665 C.2       7 UNK         0.5020 
     48 O          20.1517  -31.0250  -37.9378 O.2       7 UNK        -0.5147 
     49 N          22.3023  -30.7492  -38.5703 N.am      8 UNK        -0.4734 
     50 CA         22.7917  -32.0770  -38.1687 C.3       8 UNK         0.0238 
     51 CB         24.3094  -32.1582  -38.3930 C.3       8 UNK        -0.1912 
     52 C          22.0905  -33.2659  -38.8500 C.2       8 UNK         0.5038 
     53 O          21.9876  -34.3287  -38.2358 O.2       8 UNK        -0.5046 
     54 N          21.6194  -33.0691  -40.0874 N.am      9 UNK        -0.4200 
     55 CA         20.8178  -34.0453  -40.8424 C.3       9 UNK         0.0839 
     56 C          19.3050  -34.0654  -40.4689 C.2       9 UNK         0.5513 
     57 N          18.8205  -33.2164  -39.5689 N.am      9 UNK        -0.7519 
     58 O          18.5562  -34.8833  -40.9972 O.2       9 UNK        -0.4960 
     59 C59        21.0611  -33.9282  -42.3710 C.3       10 UNK        -0.0876 
     60 S60        20.6509  -32.2867  -43.0508 S.3       10 UNK        -0.2414 
     61 C61        19.1975  -32.6627  -44.0751 C.3       10 UNK         0.0169 
     62 H62        21.6336  -28.6407  -42.9002 H         1 UNK         0.0903 
     63 H63        20.7063  -29.5171  -41.6758 H         1 UNK         0.0903 
     64 H64        20.1417  -29.4685  -43.3391 H         1 UNK         0.0903 
     65 H65        18.1652  -28.3726  -43.1378 H         1 UNK         0.3096 
     66 H66        17.7356  -26.1705  -41.4006 H         1 UNK         0.1121 
     67 H67        15.5361  -26.0153  -42.3737 H         1 UNK         0.0849 
     68 H68        16.0085  -26.8034  -43.8454 H         1 UNK         0.0849 
     69 H69        14.8158  -30.2871  -43.2614 H         1 UNK         0.0865 
     70 H70        14.7247  -28.8518  -44.2387 H         1 UNK         0.0865 
     71 H71        16.9531  -31.5480  -43.0126 H         1 UNK         0.1346 
     72 H72        19.8722  -30.9693  -46.0911 H         1 UNK         0.1412 
     73 H73        16.6532  -28.1671  -45.6291 H         1 UNK         0.1426 
     74 H74        18.7138  -27.5162  -46.8569 H         1 UNK         0.0716 
     75 H75        18.1971  -28.7402  -47.9795 H         1 UNK         0.0716 
     76 H76        21.0083  -28.6821  -45.2963 H         1 UNK         0.0695 
     77 H77        22.4105  -29.1209  -46.2189 H         1 UNK         0.0695 
     78 H78        22.3490  -26.6124  -47.1273 H         1 UNK         0.0983 
     79 H79        21.0277  -26.0690  -44.5522 H         1 UNK         0.3095 
     80 H80        19.7390  -23.7070  -44.8159 H         1 UNK         0.0454 
     81 H81        18.5487  -23.0698  -46.9186 H         1 UNK         0.0851 
     82 H82        17.5839  -24.5388  -46.8450 H         1 UNK         0.0851 
     83 H83        17.3958  -23.2902  -45.6145 H         1 UNK         0.0851 
     84 H84        18.7150  -26.4123  -44.7401 H         1 UNK         0.2976 
     85 H85        24.4875  -27.3934  -46.7729 H         1 UNK         0.3116 
     86 H86        25.9178  -25.9961  -44.8177 H         1 UNK         0.0646 
     87 H87        27.8872  -27.1994  -45.7847 H         1 UNK         0.0847 
     88 H88        26.8248  -26.6034  -47.0456 H         1 UNK         0.0847 
     89 H89        26.8128  -28.3149  -46.6147 H         1 UNK         0.0847 
     90 H90        24.3910  -29.0281  -44.3880 H         1 UNK         0.3040 
     91 H91        26.0980  -30.2140  -42.4182 H         1 UNK         0.1015 
     92 H92        24.3911  -31.5247  -43.6439 H         1 UNK         0.0786 
     93 H93        23.0970  -30.5519  -42.9506 H         1 UNK         0.0786 
     94 H94        24.0623  -31.5993  -41.9225 H         1 UNK         0.0786 
     95 H95        23.8641  -27.5366  -42.2209 H         1 UNK         0.3172 
     96 H96        23.1295  -26.2017  -40.5954 H         1 UNK         0.0595 
     97 H97        25.5643  -25.7538  -40.4030 H         1 UNK         0.0839 
     98 H98        25.7313  -27.0273  -39.1966 H         1 UNK         0.0839 
     99 H99        24.7828  -25.5926  -38.8374 H         1 UNK         0.0839 
    100 H100       21.4121  -27.7650  -40.3710 H         1 UNK         0.2998 
    101 H101       19.8366  -28.8786  -39.3463 H         1 UNK         0.0822 
    102 H102       19.9892  -27.0439  -37.6697 H         1 UNK         0.0787 
    103 H103       19.4523  -28.5460  -36.9371 H         1 UNK         0.0787 
    104 H104       21.1059  -28.0070  -36.7018 H         1 UNK         0.0787 
    105 H105       22.9991  -30.0874  -38.8894 H         1 UNK         0.3055 
    106 H106       22.6048  -32.1738  -37.0968 H         1 UNK         0.1106 
    107 H107       24.5642  -32.0992  -39.4514 H         1 UNK         0.0828 
    108 H108       24.8332  -31.3537  -37.8762 H         1 UNK         0.0828 
    109 H109       24.7100  -33.1000  -38.0154 H         1 UNK         0.0828 
    110 H110       21.7254  -32.1598  -40.5108 H         1 UNK         0.2931 
    111 H111       21.1789  -35.0376  -40.5653 H         1 UNK         0.0412 
    112 H112       17.8402  -33.2548  -39.3400 H         1 UNK         0.3472 
    113 H113       19.4177  -32.5464  -39.0982 H         1 UNK         0.3472 
    114 H114       20.5152  -34.7047  -42.9101 H         1 UNK         0.0970 
    115 H115       22.1142  -34.1183  -42.5836 H         1 UNK         0.0970 
    116 H116       18.5131  -33.3011  -43.5141 H         1 UNK         0.0612 
    117 H117       19.5095  -33.2335  -44.9509 H         1 UNK         0.0612 
@<TRIPOS>BOND
     1    1    2 1    
     2    1   62 1    
     3    1   63 1    
     4    1   64 1    
     5    2    3 2    
     6    2    4 am   BACKBONE|DICT|INTERRES
     7    4    5 1    
     8    4   65 1    
     9    5    6 1    
    10    5   25 1    
    11    5   66 1    
    12    6    7 1    
    13    6   67 1    
    14    6   68 1    
    15    7    8 1    
    16    8    9 1    
    17    8   69 1    
    18    8   70 1    
    19    9   10 ar   
    20    9   14 ar   
    21   10   11 ar   
    22   10   71 1    
    23   11   12 ar   
    24   11   61 1    
    25   12   13 ar   
    26   12   72 1    
    27   13   14 ar   
    28   13   15 1    
    29   14   73 1    
    30   15   16 1    
    31   15   74 1    
    32   15   75 1    
    33   16   17 1    
    34   17   18 1    
    35   17   76 1    
    36   17   77 1    
    37   18   19 1    
    38   18   27 1    
    39   18   78 1    
    40   19   20 am   BACKBONE|DICT|INTERRES
    41   19   79 1    
    42   20   21 2    
    43   20   22 1    
    44   22   23 1    
    45   22   24 1    
    46   22   80 1    
    47   23   81 1    
    48   23   82 1    
    49   23   83 1    
    50   24   25 am   BACKBONE|DICT|INTERRES
    51   24   84 1    
    52   25   26 2    
    53   27   28 2    
    54   27   29 am   BACKBONE|DICT|INTERRES
    55   29   30 1    
    56   29   85 1    
    57   30   31 1    
    58   30   32 1    
    59   30   86 1    
    60   31   87 1    
    61   31   88 1    
    62   31   89 1    
    63   32   33 2    
    64   32   34 am   BACKBONE|DICT|INTERRES
    65   34   35 1    
    66   34   90 1    
    67   35   36 1    
    68   35   37 1    
    69   35   91 1    
    70   36   92 1    
    71   36   93 1    
    72   36   94 1    
    73   37   38 2    
    74   37   39 am   BACKBONE|DICT|INTERRES
    75   39   40 1    
    76   39   95 1    
    77   40   41 1    
    78   40   42 1    
    79   40   96 1    
    80   41   97 1    
    81   41   98 1    
    82   41   99 1    
    83   42   43 2    
    84   42   44 am   BACKBONE|DICT|INTERRES
    85   44   45 1    
    86   44  100 1    
    87   45   46 1    
    88   45   47 1    
    89   45  101 1    
    90   46  102 1    
    91   46  103 1    
    92   46  104 1    
    93   47   48 2    
    94   47   49 am   BACKBONE|DICT|INTERRES
    95   49   50 1    
    96   49  105 1    
    97   50   51 1    
    98   50   52 1    
    99   50  106 1    
   100   51  107 1    
   101   51  108 1    
   102   51  109 1    
   103   52   53 2    
   104   52   54 am   BACKBONE|DICT|INTERRES
   105   54   55 1    
   106   54  110 1    
   107   55   56 1    
   108   55   59 1    
   109   55  111 1    
   110   56   57 am   BACKBONE|DICT|INTERRES
   111   56   58 2    
   112   57  112 1    
   113   57  113 1    
   114   59   60 1    
   115   59  114 1    
   116   59  115 1    
   117   60   61 1    
   118   61  116 1    
   119   61  117 1    
@<TRIPOS>SUBSTRUCTURE
     1 UNK         1 GROUP             0       ****    0 ROOT    
