@<TRIPOS>MOLECULE
3R8
117   119    1
SMALL
USER_CHARGES


@<TRIPOS>ATOM
      1 CA         16.7974  -24.5810  -48.9472 C.3       0 UNK        -0.2013 
      2 C          17.4521  -25.7709  -48.2614 C.2       0 UNK         0.4866 
      3 O          18.4460  -26.2946  -48.7644 O.2       0 UNK        -0.5176 
      4 N          16.8975  -26.2039  -47.1213 N.am      1 UNK        -0.4884 
      5 CA         17.3919  -27.3280  -46.3171 C.3       1 UNK         0.0853 
      6 C6         16.4103  -27.6915  -45.1773 C.3       10 UNK        -0.0849 
      7 S7         14.9793  -28.6644  -45.7485 S.3       10 UNK        -0.2776 
      8 C8         15.5804  -30.3869  -45.5764 C.3       10 UNK         0.0316 
      9 C9         16.2360  -30.7043  -44.2317 C.ar      10 UNK        -0.0863 
     10 C10        17.4197  -31.4489  -44.1983 C.ar      10 UNK        -0.1009 
     11 C11        18.0510  -31.7340  -42.9836 C.ar      10 UNK        -0.0712 
     12 C12        17.4938  -31.2594  -41.7930 C.ar      10 UNK        -0.0894 
     13 C13        16.3257  -30.4916  -41.8115 C.ar      10 UNK        -0.0745 
     14 C14        15.6860  -30.2444  -43.0294 C.ar      10 UNK        -0.0972 
     15 C15        15.7513  -29.9232  -40.5206 C.3       10 UNK         0.0209 
     16 S16        16.9484  -28.8998  -39.5983 S.3       10 UNK        -0.2568 
     17 C17        17.3447  -27.5463  -40.7647 C.3       10 UNK        -0.0983 
     18 CA         18.8351  -27.5145  -41.2045 C.3       3 UNK         0.0876 
     19 N          19.0249  -26.6129  -42.3539 N.am      3 UNK        -0.4424 
     20 C          20.1731  -26.3794  -43.0141 C.2       2 UNK         0.4918 
     21 O          21.2601  -26.8597  -42.6984 O.2       2 UNK        -0.4875 
     22 CA         20.0683  -25.4690  -44.2575 C.3       2 UNK         0.0481 
     23 CB         21.3889  -25.3819  -45.0526 C.3       2 UNK        -0.1831 
     24 N          18.9534  -25.8622  -45.1292 N.am      2 UNK        -0.4498 
     25 C          18.7775  -27.0646  -45.7018 C.2       1 UNK         0.5027 
     26 O          19.6145  -27.9679  -45.7012 O.2       1 UNK        -0.4969 
     27 C          19.7799  -27.2028  -40.0188 C.2       3 UNK         0.5005 
     28 O          20.2585  -28.1270  -39.3585 O.2       3 UNK        -0.5279 
     29 N          20.0621  -25.9121  -39.7888 N.am      4 UNK        -0.4463 
     30 CA         21.0069  -25.4160  -38.7857 C.3       4 UNK         0.0283 
     31 CB         20.6644  -23.9495  -38.4622 C.3       4 UNK        -0.1875 
     32 C          22.4685  -25.5958  -39.2456 C.2       4 UNK         0.4949 
     33 O          23.1723  -24.6098  -39.4722 O.2       4 UNK        -0.5039 
     34 N          22.8932  -26.8542  -39.3862 N.am      5 UNK        -0.4663 
     35 CA         24.2367  -27.2680  -39.7792 C.3       5 UNK         0.0242 
     36 CB         24.2922  -27.4413  -41.3074 C.3       5 UNK        -0.1982 
     37 C          24.5855  -28.5801  -39.0679 C.2       5 UNK         0.5017 
     38 O          23.6842  -29.3173  -38.6583 O.2       5 UNK        -0.5012 
     39 N          25.8878  -28.8729  -38.9619 N.am      6 UNK        -0.4439 
     40 CA         26.4386  -30.0794  -38.3353 C.3       6 UNK         0.0297 
     41 CB         27.8934  -29.8010  -37.9117 C.3       6 UNK        -0.2006 
     42 C          26.3165  -31.3101  -39.2559 C.2       6 UNK         0.4892 
     43 O          27.3292  -31.8390  -39.7163 O.2       6 UNK        -0.5089 
     44 N          25.0672  -31.7098  -39.5350 N.am      7 UNK        -0.4243 
     45 CA         24.6393  -32.8229  -40.3975 C.3       7 UNK         0.0196 
     46 CB         25.1418  -34.1752  -39.8486 C.3       7 UNK        -0.2007 
     47 C          24.9703  -32.6422  -41.8949 C.2       7 UNK         0.5020 
     48 O          24.8267  -33.5919  -42.6648 O.2       7 UNK        -0.5147 
     49 N          25.3688  -31.4280  -42.2971 N.am      8 UNK        -0.4734 
     50 CA         25.6628  -31.0476  -43.6842 C.3       8 UNK         0.0238 
     51 CB         26.7692  -29.9780  -43.6786 C.3       8 UNK        -0.1912 
     52 C          24.4179  -30.5557  -44.4504 C.2       8 UNK         0.5038 
     53 O          24.5466  -30.1440  -45.6044 O.2       8 UNK        -0.5046 
     54 N          23.2518  -30.5822  -43.7945 N.am      9 UNK        -0.4200 
     55 CA         21.9376  -30.2194  -44.3353 C.3       9 UNK         0.0839 
     56 C          21.4737  -31.0943  -45.5338 C.2       9 UNK         0.5513 
     57 N          20.5608  -30.5806  -46.3454 N.am      9 UNK        -0.7519 
     58 O          21.9007  -32.2327  -45.7170 O.2       9 UNK        -0.4960 
     59 C59        20.8743  -30.1646  -43.2084 C.3       10 UNK        -0.0876 
     60 S60        20.7376  -31.6789  -42.1918 S.3       10 UNK        -0.2414 
     61 C61        19.3353  -32.5540  -42.9635 C.3       10 UNK         0.0169 
     62 H62        17.5079  -23.7591  -49.0311 H         1 UNK         0.0903 
     63 H63        16.4761  -24.8572  -49.9512 H         1 UNK         0.0903 
     64 H64        15.9263  -24.2217  -48.3997 H         1 UNK         0.0903 
     65 H65        16.0612  -25.7528  -46.7774 H         1 UNK         0.3096 
     66 H66        17.5046  -28.1910  -46.9777 H         1 UNK         0.1121 
     67 H67        16.9142  -28.2351  -44.3778 H         1 UNK         0.0849 
     68 H68        16.0317  -26.7878  -44.6964 H         1 UNK         0.0849 
     69 H69        14.7414  -31.0677  -45.7253 H         1 UNK         0.0865 
     70 H70        16.2792  -30.5815  -46.3916 H         1 UNK         0.0865 
     71 H71        17.8558  -31.8055  -45.1218 H         1 UNK         0.1346 
     72 H72        17.9862  -31.4649  -40.8521 H         1 UNK         0.1412 
     73 H73        14.7745  -29.6626  -43.0475 H         1 UNK         0.1426 
     74 H74        15.4318  -30.7495  -39.8843 H         1 UNK         0.0716 
     75 H75        14.8604  -29.3250  -40.7185 H         1 UNK         0.0716 
     76 H76        16.7030  -27.6506  -41.6409 H         1 UNK         0.0695 
     77 H77        17.0605  -26.5996  -40.3017 H         1 UNK         0.0695 
     78 H78        19.0943  -28.5149  -41.5554 H         1 UNK         0.0983 
     79 H79        18.1918  -26.1549  -42.6915 H         1 UNK         0.3095 
     80 H80        19.8383  -24.4681  -43.8897 H         1 UNK         0.0454 
     81 H81        22.1900  -24.9778  -44.4326 H         1 UNK         0.0851 
     82 H82        21.2884  -24.7288  -45.9191 H         1 UNK         0.0851 
     83 H83        21.7179  -26.3597  -45.4059 H         1 UNK         0.0851 
     84 H84        18.2049  -25.1890  -45.2187 H         1 UNK         0.2976 
     85 H85        19.6578  -25.2230  -40.4058 H         1 UNK         0.3116 
     86 H86        20.8809  -25.9943  -37.8677 H         1 UNK         0.0646 
     87 H87        20.7551  -23.3080  -39.3397 H         1 UNK         0.0847 
     88 H88        19.6482  -23.8538  -38.0795 H         1 UNK         0.0847 
     89 H89        21.3341  -23.5524  -37.6982 H         1 UNK         0.0847 
     90 H90        22.2460  -27.6128  -39.1829 H         1 UNK         0.3040 
     91 H91        24.9574  -26.5079  -39.4689 H         1 UNK         0.1015 
     92 H92        25.2960  -27.7076  -41.6365 H         1 UNK         0.0786 
     93 H93        24.0194  -26.5187  -41.8203 H         1 UNK         0.0786 
     94 H94        23.6108  -28.2215  -41.6506 H         1 UNK         0.0786 
     95 H95        26.5610  -28.2297  -39.3547 H         1 UNK         0.3172 
     96 H96        25.8689  -30.2954  -37.4287 H         1 UNK         0.0595 
     97 H97        28.5267  -29.5594  -38.7664 H         1 UNK         0.0839 
     98 H98        28.3295  -30.6716  -37.4197 H         1 UNK         0.0839 
     99 H99        27.9503  -28.9719  -37.2062 H         1 UNK         0.0839 
    100 H100       24.3181  -31.1471  -39.1397 H         1 UNK         0.2998 
    101 H101       23.5495  -32.8347  -40.3408 H         1 UNK         0.0822 
    102 H102       24.6955  -35.0091  -40.3919 H         1 UNK         0.0787 
    103 H103       24.8796  -34.2994  -38.7979 H         1 UNK         0.0787 
    104 H104       26.2239  -34.2736  -39.9392 H         1 UNK         0.0787 
    105 H105       25.4729  -30.7095  -41.5959 H         1 UNK         0.3055 
    106 H106       26.0403  -31.9200  -44.2226 H         1 UNK         0.1106 
    107 H107       27.6559  -30.3264  -43.1486 H         1 UNK         0.0828 
    108 H108       27.0798  -29.7313  -44.6949 H         1 UNK         0.0828 
    109 H109       26.4376  -29.0527  -43.2087 H         1 UNK         0.0828 
    110 H110       23.2423  -30.9778  -42.8674 H         1 UNK         0.2931 
    111 H111       22.0468  -29.2033  -44.7208 H         1 UNK         0.0412 
    112 H112       20.2335  -31.1192  -47.1311 H         1 UNK         0.3472 
    113 H113       20.2072  -29.6396  -46.1851 H         1 UNK         0.3472 
    114 H114       21.1488  -29.3698  -42.5166 H         1 UNK         0.0970 
    115 H115       19.9012  -29.8724  -43.6055 H         1 UNK         0.0970 
    116 H116       19.6206  -32.8560  -43.9720 H         1 UNK         0.0612 
    117 H117       19.1541  -33.4759  -42.4098 H         1 UNK         0.0612 
@<TRIPOS>BOND
     1    1    2 1    
     2    1   62 1    
     3    1   63 1    
     4    1   64 1    
     5    2    3 2    
     6    2    4 am   BACKBONE|DICT|INTERRES
     7    4    5 1    
     8    4   65 1    
     9    5    6 1    
    10    5   25 1    
    11    5   66 1    
    12    6    7 1    
    13    6   67 1    
    14    6   68 1    
    15    7    8 1    
    16    8    9 1    
    17    8   69 1    
    18    8   70 1    
    19    9   10 ar   
    20    9   14 ar   
    21   10   11 ar   
    22   10   71 1    
    23   11   12 ar   
    24   11   61 1    
    25   12   13 ar   
    26   12   72 1    
    27   13   14 ar   
    28   13   15 1    
    29   14   73 1    
    30   15   16 1    
    31   15   74 1    
    32   15   75 1    
    33   16   17 1    
    34   17   18 1    
    35   17   76 1    
    36   17   77 1    
    37   18   19 1    
    38   18   27 1    
    39   18   78 1    
    40   19   20 am   BACKBONE|DICT|INTERRES
    41   19   79 1    
    42   20   21 2    
    43   20   22 1    
    44   22   23 1    
    45   22   24 1    
    46   22   80 1    
    47   23   81 1    
    48   23   82 1    
    49   23   83 1    
    50   24   25 am   BACKBONE|DICT|INTERRES
    51   24   84 1    
    52   25   26 2    
    53   27   28 2    
    54   27   29 am   BACKBONE|DICT|INTERRES
    55   29   30 1    
    56   29   85 1    
    57   30   31 1    
    58   30   32 1    
    59   30   86 1    
    60   31   87 1    
    61   31   88 1    
    62   31   89 1    
    63   32   33 2    
    64   32   34 am   BACKBONE|DICT|INTERRES
    65   34   35 1    
    66   34   90 1    
    67   35   36 1    
    68   35   37 1    
    69   35   91 1    
    70   36   92 1    
    71   36   93 1    
    72   36   94 1    
    73   37   38 2    
    74   37   39 am   BACKBONE|DICT|INTERRES
    75   39   40 1    
    76   39   95 1    
    77   40   41 1    
    78   40   42 1    
    79   40   96 1    
    80   41   97 1    
    81   41   98 1    
    82   41   99 1    
    83   42   43 2    
    84   42   44 am   BACKBONE|DICT|INTERRES
    85   44   45 1    
    86   44  100 1    
    87   45   46 1    
    88   45   47 1    
    89   45  101 1    
    90   46  102 1    
    91   46  103 1    
    92   46  104 1    
    93   47   48 2    
    94   47   49 am   BACKBONE|DICT|INTERRES
    95   49   50 1    
    96   49  105 1    
    97   50   51 1    
    98   50   52 1    
    99   50  106 1    
   100   51  107 1    
   101   51  108 1    
   102   51  109 1    
   103   52   53 2    
   104   52   54 am   BACKBONE|DICT|INTERRES
   105   54   55 1    
   106   54  110 1    
   107   55   56 1    
   108   55   59 1    
   109   55  111 1    
   110   56   57 am   BACKBONE|DICT|INTERRES
   111   56   58 2    
   112   57  112 1    
   113   57  113 1    
   114   59   60 1    
   115   59  114 1    
   116   59  115 1    
   117   60   61 1    
   118   61  116 1    
   119   61  117 1    
@<TRIPOS>SUBSTRUCTURE
     1 UNK         1 GROUP             0       ****    0 ROOT    
