@<TRIPOS>MOLECULE
3R8
117   119    1
SMALL
USER_CHARGES


@<TRIPOS>ATOM
      1 CA         16.2489  -23.3493  -48.2637 C.3       0 UNK        -0.2013 
      2 C          17.5205  -23.9401  -47.6729 C.2       0 UNK         0.4866 
      3 O          18.5791  -23.3150  -47.7487 O.2       0 UNK        -0.5176 
      4 N          17.4277  -25.1432  -47.0938 N.am      1 UNK        -0.4884 
      5 CA         18.5359  -25.8403  -46.4328 C.3       1 UNK         0.0853 
      6 C6         18.1868  -27.3153  -46.1234 C.3       10 UNK        -0.0849 
      7 S7         17.8531  -28.3160  -47.6093 S.3       10 UNK        -0.2776 
      8 C8         16.5155  -29.4034  -47.0117 C.3       10 UNK         0.0316 
      9 C9         16.8984  -30.1431  -45.7346 C.ar      10 UNK        -0.0863 
     10 C10        17.8651  -31.1524  -45.7677 C.ar      10 UNK        -0.1009 
     11 C11        18.2291  -31.8251  -44.5978 C.ar      10 UNK        -0.0712 
     12 C12        17.6052  -31.4943  -43.3903 C.ar      10 UNK        -0.0894 
     13 C13        16.6356  -30.4878  -43.3431 C.ar      10 UNK        -0.0745 
     14 C14        16.2869  -29.8165  -44.5190 C.ar      10 UNK        -0.0972 
     15 C15        15.9327  -30.1567  -42.0319 C.3       10 UNK         0.0209 
     16 S16        17.0643  -29.5209  -40.7524 S.3       10 UNK        -0.2568 
     17 C17        17.4706  -27.8513  -41.3669 C.3       10 UNK        -0.0983 
     18 CA         18.9923  -27.5656  -41.3215 C.3       3 UNK         0.0876 
     19 N          19.3515  -26.4596  -42.2099 N.am      3 UNK        -0.4424 
     20 C          20.6020  -26.0995  -42.5245 C.2       2 UNK         0.4918 
     21 O          21.6046  -26.7215  -42.1649 O.2       2 UNK        -0.4875 
     22 CA         20.7309  -24.8678  -43.4404 C.3       2 UNK         0.0481 
     23 CB         22.1760  -24.3541  -43.5642 C.3       2 UNK        -0.1831 
     24 N          20.2150  -25.1964  -44.7700 N.am      2 UNK        -0.4498 
     25 C          18.9209  -25.1496  -45.1112 C.2       1 UNK         0.5027 
     26 O          18.0391  -24.6871  -44.3812 O.2       1 UNK        -0.4969 
     27 C          19.4933  -27.2793  -39.8883 C.2       3 UNK         0.5005 
     28 O          19.4030  -26.1375  -39.4279 O.2       3 UNK        -0.5279 
     29 N          20.0287  -28.3174  -39.2329 N.am      4 UNK        -0.4463 
     30 CA         20.7245  -28.2995  -37.9417 C.3       4 UNK         0.0283 
     31 CB         19.7901  -27.8443  -36.8000 C.3       4 UNK        -0.1875 
     32 C          22.0561  -27.5202  -37.9835 C.2       4 UNK         0.4949 
     33 O          22.4788  -26.9859  -36.9568 O.2       4 UNK        -0.5039 
     34 N          22.7061  -27.4830  -39.1560 N.am      5 UNK        -0.4663 
     35 CA         23.9920  -26.8159  -39.3679 C.3       5 UNK         0.0242 
     36 CB         23.7819  -25.3178  -39.6527 C.3       5 UNK        -0.1982 
     37 C          24.8143  -27.4852  -40.4764 C.2       5 UNK         0.5017 
     38 O          26.0078  -27.7152  -40.2741 O.2       5 UNK        -0.5012 
     39 N          24.1863  -27.7830  -41.6241 N.am      6 UNK        -0.4439 
     40 CA         24.8251  -28.3721  -42.8076 C.3       6 UNK         0.0297 
     41 CB         23.9395  -28.1240  -44.0427 C.3       6 UNK        -0.2006 
     42 C          25.1911  -29.8610  -42.6399 C.2       6 UNK         0.4892 
     43 O          24.5918  -30.7199  -43.2903 O.2       6 UNK        -0.5089 
     44 N          26.1884  -30.1295  -41.7853 N.am      7 UNK        -0.4243 
     45 CA         26.8277  -31.4249  -41.5273 C.3       7 UNK         0.0196 
     46 CB         27.7206  -31.8228  -42.7251 C.3       7 UNK        -0.2007 
     47 C          25.8050  -32.5025  -41.1246 C.2       7 UNK         0.5020 
     48 O          25.2416  -32.4145  -40.0334 O.2       7 UNK        -0.5147 
     49 N          25.5539  -33.4738  -42.0136 N.am      8 UNK        -0.4734 
     50 CA         24.5661  -34.5452  -41.8462 C.3       8 UNK         0.0238 
     51 CB         24.6853  -35.5301  -43.0206 C.3       8 UNK        -0.1912 
     52 C          23.1149  -34.0475  -41.7082 C.2       8 UNK         0.5038 
     53 O          22.3061  -34.7415  -41.0903 O.2       8 UNK        -0.5046 
     54 N          22.8174  -32.8626  -42.2577 N.am      9 UNK        -0.4200 
     55 CA         21.5434  -32.1566  -42.0674 C.3       9 UNK         0.0839 
     56 C          21.4805  -31.3325  -40.7511 C.2       9 UNK         0.5513 
     57 N          22.5297  -31.2531  -39.9403 N.am      9 UNK        -0.7519 
     58 O          20.4422  -30.7522  -40.4524 O.2       9 UNK        -0.4960 
     59 C59        21.1731  -31.2806  -43.2916 C.3       10 UNK        -0.0876 
     60 S60        20.9751  -32.2450  -44.8280 S.3       10 UNK        -0.2414 
     61 C61        19.2902  -32.9156  -44.6415 C.3       10 UNK         0.0169 
     62 H62        16.0159  -22.4013  -47.7796 H         1 UNK         0.0903 
     63 H63        16.3808  -23.1647  -49.3295 H         1 UNK         0.0903 
     64 H64        15.3938  -24.0133  -48.1382 H         1 UNK         0.0903 
     65 H65        16.5331  -25.6097  -47.0526 H         1 UNK         0.3096 
     66 H66        19.3981  -25.8148  -47.1033 H         1 UNK         0.1121 
     67 H67        17.3212  -27.3544  -45.4593 H         1 UNK         0.0849 
     68 H68        19.0009  -27.8063  -45.5850 H         1 UNK         0.0849 
     69 H69        15.6137  -28.8082  -46.8596 H         1 UNK         0.0865 
     70 H70        16.2726  -30.1284  -47.7899 H         1 UNK         0.0865 
     71 H71        18.3464  -31.4042  -46.7032 H         1 UNK         0.1346 
     72 H72        17.8767  -32.0148  -42.4818 H         1 UNK         0.1412 
     73 H73        15.5335  -29.0409  -44.4889 H         1 UNK         0.1426 
     74 H74        15.4571  -31.0627  -41.6540 H         1 UNK         0.0716 
     75 H75        15.1293  -29.4347  -42.1869 H         1 UNK         0.0716 
     76 H76        16.9086  -27.1105  -40.7948 H         1 UNK         0.0695 
     77 H77        17.1125  -27.7701  -42.3944 H         1 UNK         0.0695 
     78 H78        19.5170  -28.4449  -41.7031 H         1 UNK         0.0983 
     79 H79        18.5921  -25.8848  -42.5514 H         1 UNK         0.3095 
     80 H80        20.1371  -24.0639  -43.0000 H         1 UNK         0.0454 
     81 H81        22.8350  -25.0900  -44.0207 H         1 UNK         0.0851 
     82 H82        22.5883  -24.1066  -42.5860 H         1 UNK         0.0851 
     83 H83        22.2208  -23.4485  -44.1691 H         1 UNK         0.0851 
     84 H84        20.8722  -25.6242  -45.4071 H         1 UNK         0.2976 
     85 H85        20.0405  -29.2234  -39.7061 H         1 UNK         0.3116 
     86 H86        20.9947  -29.3368  -37.7405 H         1 UNK         0.0646 
     87 H87        19.5463  -26.7842  -36.8712 H         1 UNK         0.0847 
     88 H88        20.2575  -28.0021  -35.8273 H         1 UNK         0.0847 
     89 H89        18.8559  -28.4056  -36.8036 H         1 UNK         0.0847 
     90 H90        22.2987  -27.9529  -39.9522 H         1 UNK         0.3040 
     91 H91        24.5853  -26.9052  -38.4545 H         1 UNK         0.1015 
     92 H92        23.1285  -25.1598  -40.5098 H         1 UNK         0.0786 
     93 H93        24.7296  -24.8204  -39.8637 H         1 UNK         0.0786 
     94 H94        23.3345  -24.8120  -38.7970 H         1 UNK         0.0786 
     95 H95        23.2188  -27.4883  -41.7437 H         1 UNK         0.3172 
     96 H96        25.7639  -27.8420  -42.9823 H         1 UNK         0.0595 
     97 H97        24.3423  -28.6216  -44.9261 H         1 UNK         0.0839 
     98 H98        23.8856  -27.0632  -44.2773 H         1 UNK         0.0839 
     99 H99        22.9228  -28.4870  -43.8968 H         1 UNK         0.0839 
    100 H100       26.5242  -29.3489  -41.2279 H         1 UNK         0.2998 
    101 H101       27.4775  -31.2850  -40.6620 H         1 UNK         0.0822 
    102 H102       28.2248  -32.7733  -42.5446 H         1 UNK         0.0787 
    103 H103       27.1550  -31.9138  -43.6533 H         1 UNK         0.0787 
    104 H104       28.4994  -31.0784  -42.8916 H         1 UNK         0.0787 
    105 H105       26.0432  -33.4419  -42.8966 H         1 UNK         0.3055 
    106 H106       24.8101  -35.0768  -40.9237 H         1 UNK         0.1106 
    107 H107       23.9817  -36.3566  -42.9097 H         1 UNK         0.0828 
    108 H108       24.4718  -35.0473  -43.9752 H         1 UNK         0.0828 
    109 H109       25.6839  -35.9638  -43.0772 H         1 UNK         0.0828 
    110 H110       23.5479  -32.3328  -42.7236 H         1 UNK         0.2931 
    111 H111       20.7557  -32.9048  -41.9660 H         1 UNK         0.0412 
    112 H112       23.3954  -31.7404  -40.1460 H         1 UNK         0.3472 
    113 H113       22.4489  -30.7433  -39.0776 H         1 UNK         0.3472 
    114 H114       21.9484  -30.5349  -43.4628 H         1 UNK         0.0970 
    115 H115       20.2598  -30.7123  -43.1115 H         1 UNK         0.0970 
    116 H116       19.0854  -33.5815  -45.4810 H         1 UNK         0.0612 
    117 H117       19.2456  -33.5363  -43.7457 H         1 UNK         0.0612 
@<TRIPOS>BOND
     1    1    2 1    
     2    1   62 1    
     3    1   63 1    
     4    1   64 1    
     5    2    3 2    
     6    2    4 am   BACKBONE|DICT|INTERRES
     7    4    5 1    
     8    4   65 1    
     9    5    6 1    
    10    5   25 1    
    11    5   66 1    
    12    6    7 1    
    13    6   67 1    
    14    6   68 1    
    15    7    8 1    
    16    8    9 1    
    17    8   69 1    
    18    8   70 1    
    19    9   10 ar   
    20    9   14 ar   
    21   10   11 ar   
    22   10   71 1    
    23   11   12 ar   
    24   11   61 1    
    25   12   13 ar   
    26   12   72 1    
    27   13   14 ar   
    28   13   15 1    
    29   14   73 1    
    30   15   16 1    
    31   15   74 1    
    32   15   75 1    
    33   16   17 1    
    34   17   18 1    
    35   17   76 1    
    36   17   77 1    
    37   18   19 1    
    38   18   27 1    
    39   18   78 1    
    40   19   20 am   BACKBONE|DICT|INTERRES
    41   19   79 1    
    42   20   21 2    
    43   20   22 1    
    44   22   23 1    
    45   22   24 1    
    46   22   80 1    
    47   23   81 1    
    48   23   82 1    
    49   23   83 1    
    50   24   25 am   BACKBONE|DICT|INTERRES
    51   24   84 1    
    52   25   26 2    
    53   27   28 2    
    54   27   29 am   BACKBONE|DICT|INTERRES
    55   29   30 1    
    56   29   85 1    
    57   30   31 1    
    58   30   32 1    
    59   30   86 1    
    60   31   87 1    
    61   31   88 1    
    62   31   89 1    
    63   32   33 2    
    64   32   34 am   BACKBONE|DICT|INTERRES
    65   34   35 1    
    66   34   90 1    
    67   35   36 1    
    68   35   37 1    
    69   35   91 1    
    70   36   92 1    
    71   36   93 1    
    72   36   94 1    
    73   37   38 2    
    74   37   39 am   BACKBONE|DICT|INTERRES
    75   39   40 1    
    76   39   95 1    
    77   40   41 1    
    78   40   42 1    
    79   40   96 1    
    80   41   97 1    
    81   41   98 1    
    82   41   99 1    
    83   42   43 2    
    84   42   44 am   BACKBONE|DICT|INTERRES
    85   44   45 1    
    86   44  100 1    
    87   45   46 1    
    88   45   47 1    
    89   45  101 1    
    90   46  102 1    
    91   46  103 1    
    92   46  104 1    
    93   47   48 2    
    94   47   49 am   BACKBONE|DICT|INTERRES
    95   49   50 1    
    96   49  105 1    
    97   50   51 1    
    98   50   52 1    
    99   50  106 1    
   100   51  107 1    
   101   51  108 1    
   102   51  109 1    
   103   52   53 2    
   104   52   54 am   BACKBONE|DICT|INTERRES
   105   54   55 1    
   106   54  110 1    
   107   55   56 1    
   108   55   59 1    
   109   55  111 1    
   110   56   57 am   BACKBONE|DICT|INTERRES
   111   56   58 2    
   112   57  112 1    
   113   57  113 1    
   114   59   60 1    
   115   59  114 1    
   116   59  115 1    
   117   60   61 1    
   118   61  116 1    
   119   61  117 1    
@<TRIPOS>SUBSTRUCTURE
     1 UNK         1 GROUP             0       ****    0 ROOT    
