@<TRIPOS>MOLECULE
3R8
117   119    1
SMALL
USER_CHARGES


@<TRIPOS>ATOM
      1 CA         14.1549  -26.7559  -45.9138 C.3       0 UNK        -0.2013 
      2 C          15.5618  -26.9798  -45.3812 C.2       0 UNK         0.4866 
      3 O          16.3956  -27.5631  -46.0756 O.2       0 UNK        -0.5176 
      4 N          15.8418  -26.5127  -44.1569 N.am      1 UNK        -0.4884 
      5 CA         17.1386  -26.6285  -43.4806 C.3       1 UNK         0.0853 
      6 C6         16.9620  -26.5942  -41.9393 C.3       10 UNK        -0.0849 
      7 S7         18.4688  -27.0430  -41.0086 S.3       10 UNK        -0.2776 
      8 C8         18.2608  -28.8352  -40.7498 C.3       10 UNK         0.0316 
      9 C9         18.4295  -29.6683  -42.0188 C.ar      10 UNK        -0.0863 
     10 C10        17.5889  -30.7628  -42.2332 C.ar      10 UNK        -0.1009 
     11 C11        17.7144  -31.5470  -43.3831 C.ar      10 UNK        -0.0712 
     12 C12        18.6789  -31.2172  -44.3398 C.ar      10 UNK        -0.0894 
     13 C13        19.5245  -30.1206  -44.1466 C.ar      10 UNK        -0.0745 
     14 C14        19.4098  -29.3667  -42.9723 C.ar      10 UNK        -0.0972 
     15 C15        20.5230  -29.7214  -45.2270 C.3       10 UNK         0.0209 
     16 S16        22.2059  -29.5706  -44.5594 S.3       10 UNK        -0.2568 
     17 C17        22.8888  -28.1290  -45.4522 C.3       10 UNK        -0.0983 
     18 CA         22.5972  -26.7292  -44.8332 C.3       3 UNK         0.0876 
     19 N          21.2364  -26.2839  -45.1531 N.am      3 UNK        -0.4424 
     20 C          20.9079  -25.0832  -45.6472 C.2       2 UNK         0.4918 
     21 O          21.7125  -24.1668  -45.8122 O.2       2 UNK        -0.4875 
     22 CA         19.4334  -24.8656  -46.0327 C.3       2 UNK         0.0481 
     23 CB         19.2436  -25.0739  -47.5433 C.3       2 UNK        -0.1831 
     24 N          18.5058  -25.7411  -45.3115 N.am      2 UNK        -0.4498 
     25 C          18.1418  -25.5872  -44.0320 C.2       1 UNK         0.5027 
     26 O          18.5454  -24.6633  -43.3245 O.2       1 UNK        -0.4969 
     27 C          22.9089  -26.6260  -43.3206 C.2       3 UNK         0.5005 
     28 O          23.8664  -27.2500  -42.8663 O.2       3 UNK        -0.5279 
     29 N          22.1044  -25.8500  -42.5735 N.am      4 UNK        -0.4463 
     30 CA         22.0236  -25.7523  -41.1057 C.3       4 UNK         0.0283 
     31 CB         21.1696  -24.5277  -40.7376 C.3       4 UNK        -0.1875 
     32 C          23.3428  -25.7088  -40.3108 C.2       4 UNK         0.4949 
     33 O          23.3699  -26.1925  -39.1790 O.2       4 UNK        -0.5039 
     34 N          24.4085  -25.1521  -40.9027 N.am      5 UNK        -0.4663 
     35 CA         25.7637  -25.1274  -40.3404 C.3       5 UNK         0.0242 
     36 CB         26.6571  -24.2439  -41.2261 C.3       5 UNK        -0.1982 
     37 C          26.3970  -26.5230  -40.1606 C.2       5 UNK         0.5017 
     38 O          27.2789  -26.6732  -39.3139 O.2       5 UNK        -0.5012 
     39 N          25.9404  -27.5110  -40.9396 N.am      6 UNK        -0.4439 
     40 CA         26.3462  -28.9117  -40.8692 C.3       6 UNK         0.0297 
     41 CB         27.6146  -29.1365  -41.7167 C.3       6 UNK        -0.2006 
     42 C          25.1545  -29.7736  -41.3101 C.2       6 UNK         0.4892 
     43 O          25.2478  -30.4759  -42.3179 O.2       6 UNK        -0.5089 
     44 N          24.0458  -29.6448  -40.5630 N.am      7 UNK        -0.4243 
     45 CA         22.7239  -30.2256  -40.8232 C.3       7 UNK         0.0196 
     46 CB         21.8138  -29.9585  -39.6135 C.3       7 UNK        -0.2007 
     47 C          22.7527  -31.7283  -41.1535 C.2       7 UNK         0.5020 
     48 O          23.0356  -32.5411  -40.2711 O.2       7 UNK        -0.5147 
     49 N          22.4496  -32.0637  -42.4139 N.am      8 UNK        -0.4734 
     50 CA         22.5050  -33.4189  -42.9705 C.3       8 UNK         0.0238 
     51 CB         22.2344  -33.3562  -44.4826 C.3       8 UNK        -0.1912 
     52 C          21.5474  -34.4134  -42.2965 C.2       8 UNK         0.5038 
     53 O          21.8982  -35.5865  -42.1605 O.2       8 UNK        -0.5046 
     54 N          20.3736  -33.9248  -41.8797 N.am      9 UNK        -0.4200 
     55 CA         19.3647  -34.6971  -41.1390 C.3       9 UNK         0.0839 
     56 C          19.5993  -34.7186  -39.5993 C.2       9 UNK         0.5513 
     57 N          20.6506  -34.1049  -39.0664 N.am      9 UNK        -0.7519 
     58 O          18.8131  -35.3163  -38.8689 O.2       9 UNK        -0.4960 
     59 C59        17.9182  -34.2621  -41.4955 C.3       10 UNK        -0.0876 
     60 S60        17.5875  -34.3295  -43.2929 S.3       10 UNK        -0.2414 
     61 C61        16.7799  -32.7278  -43.6067 C.3       10 UNK         0.0169 
     62 H62        14.1904  -26.1669  -46.8298 H         1 UNK         0.0903 
     63 H63        13.6846  -27.7121  -46.1416 H         1 UNK         0.0903 
     64 H64        13.5250  -26.2306  -45.1962 H         1 UNK         0.0903 
     65 H65        15.1279  -26.0102  -43.6476 H         1 UNK         0.3096 
     66 H66        17.5403  -27.6098  -43.7343 H         1 UNK         0.1121 
     67 H67        16.1633  -27.2760  -41.6426 H         1 UNK         0.0849 
     68 H68        16.6405  -25.6033  -41.6135 H         1 UNK         0.0849 
     69 H69        18.9934  -29.1633  -40.0145 H         1 UNK         0.0865 
     70 H70        17.2830  -29.0106  -40.2983 H         1 UNK         0.0865 
     71 H71        16.8295  -31.0057  -41.5025 H         1 UNK         0.1346 
     72 H72        18.7577  -31.8099  -45.2411 H         1 UNK         0.1412 
     73 H73        20.0687  -28.5242  -42.8141 H         1 UNK         0.1426 
     74 H74        20.1986  -28.7812  -45.6712 H         1 UNK         0.0716 
     75 H75        20.5382  -30.4527  -46.0367 H         1 UNK         0.0716 
     76 H76        22.5583  -28.1623  -46.4916 H         1 UNK         0.0695 
     77 H77        23.9695  -28.2768  -45.4925 H         1 UNK         0.0695 
     78 H78        23.3029  -26.0420  -45.3051 H         1 UNK         0.0983 
     79 H79        20.5036  -26.9648  -45.0287 H         1 UNK         0.3095 
     80 H80        19.1805  -23.8291  -45.7997 H         1 UNK         0.0454 
     81 H81        19.8993  -24.4150  -48.1145 H         1 UNK         0.0851 
     82 H82        18.2207  -24.8533  -47.8488 H         1 UNK         0.0851 
     83 H83        19.4696  -26.0981  -47.8428 H         1 UNK         0.0851 
     84 H84        18.0499  -26.4804  -45.8397 H         1 UNK         0.2976 
     85 H85        21.3751  -25.3585  -43.0705 H         1 UNK         0.3116 
     86 H86        21.4936  -26.6467  -40.7739 H         1 UNK         0.0646 
     87 H87        21.0384  -24.4511  -39.6572 H         1 UNK         0.0847 
     88 H88        21.6300  -23.5993  -41.0774 H         1 UNK         0.0847 
     89 H89        20.1733  -24.5849  -41.1744 H         1 UNK         0.0847 
     90 H90        24.2966  -24.7986  -41.8418 H         1 UNK         0.3040 
     91 H91        25.7037  -24.6726  -39.3491 H         1 UNK         0.1015 
     92 H92        27.6678  -24.1795  -40.8201 H         1 UNK         0.0786 
     93 H93        26.2711  -23.2264  -41.2912 H         1 UNK         0.0786 
     94 H94        26.7377  -24.6401  -42.2392 H         1 UNK         0.0786 
     95 H95        25.1924  -27.3102  -41.6067 H         1 UNK         0.3172 
     96 H96        26.5683  -29.1774  -39.8335 H         1 UNK         0.0595 
     97 H97        27.4510  -28.8692  -42.7614 H         1 UNK         0.0839 
     98 H98        27.9217  -30.1827  -41.6895 H         1 UNK         0.0839 
     99 H99        28.4508  -28.5437  -41.3461 H         1 UNK         0.0839 
    100 H100       24.0990  -29.0264  -39.7663 H         1 UNK         0.2998 
    101 H101       22.3039  -29.6888  -41.6744 H         1 UNK         0.0822 
    102 H102       20.8538  -30.4615  -39.7316 H         1 UNK         0.0787 
    103 H103       22.2563  -30.3286  -38.6878 H         1 UNK         0.0787 
    104 H104       21.6154  -28.8934  -39.4908 H         1 UNK         0.0787 
    105 H105       22.2616  -31.3177  -43.0733 H         1 UNK         0.3055 
    106 H106       23.5200  -33.7922  -42.8173 H         1 UNK         0.1106 
    107 H107       22.9669  -32.7291  -44.9913 H         1 UNK         0.0828 
    108 H108       22.2915  -34.3486  -44.9319 H         1 UNK         0.0828 
    109 H109       21.2429  -32.9565  -44.6987 H         1 UNK         0.0828 
    110 H110       20.1691  -32.9491  -42.0373 H         1 UNK         0.2931 
    111 H111       19.4516  -35.7401  -41.4498 H         1 UNK         0.0412 
    112 H112       21.3377  -33.6360  -39.6440 H         1 UNK         0.3472 
    113 H113       20.7807  -34.1390  -38.0677 H         1 UNK         0.3472 
    114 H114       17.1944  -34.9167  -41.0065 H         1 UNK         0.0970 
    115 H115       17.7210  -33.2628  -41.1091 H         1 UNK         0.0970 
    116 H116       15.8927  -32.6454  -42.9767 H         1 UNK         0.0612 
    117 H117       16.4223  -32.7128  -44.6372 H         1 UNK         0.0612 
@<TRIPOS>BOND
     1    1    2 1    
     2    1   62 1    
     3    1   63 1    
     4    1   64 1    
     5    2    3 2    
     6    2    4 am   BACKBONE|DICT|INTERRES
     7    4    5 1    
     8    4   65 1    
     9    5    6 1    
    10    5   25 1    
    11    5   66 1    
    12    6    7 1    
    13    6   67 1    
    14    6   68 1    
    15    7    8 1    
    16    8    9 1    
    17    8   69 1    
    18    8   70 1    
    19    9   10 ar   
    20    9   14 ar   
    21   10   11 ar   
    22   10   71 1    
    23   11   12 ar   
    24   11   61 1    
    25   12   13 ar   
    26   12   72 1    
    27   13   14 ar   
    28   13   15 1    
    29   14   73 1    
    30   15   16 1    
    31   15   74 1    
    32   15   75 1    
    33   16   17 1    
    34   17   18 1    
    35   17   76 1    
    36   17   77 1    
    37   18   19 1    
    38   18   27 1    
    39   18   78 1    
    40   19   20 am   BACKBONE|DICT|INTERRES
    41   19   79 1    
    42   20   21 2    
    43   20   22 1    
    44   22   23 1    
    45   22   24 1    
    46   22   80 1    
    47   23   81 1    
    48   23   82 1    
    49   23   83 1    
    50   24   25 am   BACKBONE|DICT|INTERRES
    51   24   84 1    
    52   25   26 2    
    53   27   28 2    
    54   27   29 am   BACKBONE|DICT|INTERRES
    55   29   30 1    
    56   29   85 1    
    57   30   31 1    
    58   30   32 1    
    59   30   86 1    
    60   31   87 1    
    61   31   88 1    
    62   31   89 1    
    63   32   33 2    
    64   32   34 am   BACKBONE|DICT|INTERRES
    65   34   35 1    
    66   34   90 1    
    67   35   36 1    
    68   35   37 1    
    69   35   91 1    
    70   36   92 1    
    71   36   93 1    
    72   36   94 1    
    73   37   38 2    
    74   37   39 am   BACKBONE|DICT|INTERRES
    75   39   40 1    
    76   39   95 1    
    77   40   41 1    
    78   40   42 1    
    79   40   96 1    
    80   41   97 1    
    81   41   98 1    
    82   41   99 1    
    83   42   43 2    
    84   42   44 am   BACKBONE|DICT|INTERRES
    85   44   45 1    
    86   44  100 1    
    87   45   46 1    
    88   45   47 1    
    89   45  101 1    
    90   46  102 1    
    91   46  103 1    
    92   46  104 1    
    93   47   48 2    
    94   47   49 am   BACKBONE|DICT|INTERRES
    95   49   50 1    
    96   49  105 1    
    97   50   51 1    
    98   50   52 1    
    99   50  106 1    
   100   51  107 1    
   101   51  108 1    
   102   51  109 1    
   103   52   53 2    
   104   52   54 am   BACKBONE|DICT|INTERRES
   105   54   55 1    
   106   54  110 1    
   107   55   56 1    
   108   55   59 1    
   109   55  111 1    
   110   56   57 am   BACKBONE|DICT|INTERRES
   111   56   58 2    
   112   57  112 1    
   113   57  113 1    
   114   59   60 1    
   115   59  114 1    
   116   59  115 1    
   117   60   61 1    
   118   61  116 1    
   119   61  117 1    
@<TRIPOS>SUBSTRUCTURE
     1 UNK         1 GROUP             0       ****    0 ROOT    
