@<TRIPOS>MOLECULE
3R8
117   119    1
SMALL
USER_CHARGES


@<TRIPOS>ATOM
      1 CA         14.4730  -23.0580  -42.7698 C.3       0 UNK        -0.2013 
      2 C          15.6038  -23.2984  -43.7587 C.2       0 UNK         0.4866 
      3 O          16.1760  -22.3412  -44.2811 O.2       0 UNK        -0.5176 
      4 N          15.9251  -24.5694  -44.0268 N.am      1 UNK        -0.4884 
      5 CA         17.0314  -24.9983  -44.8858 C.3       1 UNK         0.0853 
      6 C6         16.8944  -26.4847  -45.3249 C.3       10 UNK        -0.0849 
      7 S7         16.4443  -27.6378  -43.9770 S.3       10 UNK        -0.2776 
      8 C8         16.1981  -29.1988  -44.8797 C.3       10 UNK         0.0316 
      9 C9         17.4657  -30.0411  -44.9149 C.ar      10 UNK        -0.0863 
     10 C10        17.7137  -30.9748  -43.9040 C.ar      10 UNK        -0.1009 
     11 C11        18.8517  -31.7862  -43.9462 C.ar      10 UNK        -0.0712 
     12 C12        19.7564  -31.6459  -45.0032 C.ar      10 UNK        -0.0894 
     13 C13        19.5178  -30.7197  -46.0236 C.ar      10 UNK        -0.0745 
     14 C14        18.3679  -29.9234  -45.9755 C.ar      10 UNK        -0.0972 
     15 C15        20.4741  -30.6201  -47.2058 C.3       10 UNK         0.0209 
     16 S16        21.9837  -29.6774  -46.8177 S.3       10 UNK        -0.2568 
     17 C17        21.3188  -27.9919  -46.5830 C.3       10 UNK        -0.0983 
     18 CA         21.8905  -27.2086  -45.3739 C.3       3 UNK         0.0876 
     19 N          21.2397  -25.9000  -45.2773 N.am      3 UNK        -0.4424 
     20 C          21.5426  -24.9202  -44.4147 C.2       2 UNK         0.4918 
     21 O          22.4582  -24.9843  -43.5958 O.2       2 UNK        -0.4875 
     22 CA         20.6355  -23.6771  -44.4492 C.3       2 UNK         0.0481 
     23 CB         21.2490  -22.5904  -45.3455 C.3       2 UNK        -0.1831 
     24 N          19.2707  -23.9775  -44.9033 N.am      2 UNK        -0.4498 
     25 C          18.3893  -24.7147  -44.2100 C.2       1 UNK         0.5027 
     26 O          18.6280  -25.1867  -43.0967 O.2       1 UNK        -0.4969 
     27 C          21.8431  -27.9947  -44.0425 C.2       3 UNK         0.5005 
     28 O          22.8269  -28.6530  -43.7049 O.2       3 UNK        -0.5279 
     29 N          20.7616  -27.8487  -43.2608 N.am      4 UNK        -0.4463 
     30 CA         20.6009  -28.4808  -41.9464 C.3       4 UNK         0.0283 
     31 CB         19.1672  -28.2663  -41.4405 C.3       4 UNK        -0.1875 
     32 C          21.6261  -28.0352  -40.8840 C.2       4 UNK         0.4949 
     33 O          21.7938  -28.7401  -39.8905 O.2       4 UNK        -0.5039 
     34 N          22.3045  -26.8975  -41.0984 N.am      5 UNK        -0.4663 
     35 CA         23.4187  -26.4465  -40.2600 C.3       5 UNK         0.0242 
     36 CB         23.5643  -24.9211  -40.3839 C.3       5 UNK        -0.1982 
     37 C          24.7471  -27.1446  -40.6096 C.2       5 UNK         0.5017 
     38 O          25.6454  -27.1626  -39.7672 O.2       5 UNK        -0.5012 
     39 N          24.8615  -27.6847  -41.8315 N.am      6 UNK        -0.4439 
     40 CA         26.0411  -28.3971  -42.3274 C.3       6 UNK         0.0297 
     41 CB         26.3046  -27.9879  -43.7862 C.3       6 UNK        -0.2006 
     42 C          25.8658  -29.9197  -42.2196 C.2       6 UNK         0.4892 
     43 O          26.8277  -30.6147  -41.8887 O.2       6 UNK        -0.5089 
     44 N          24.6524  -30.4091  -42.5077 N.am      7 UNK        -0.4243 
     45 CA         24.2545  -31.8130  -42.4117 C.3       7 UNK         0.0196 
     46 CB         22.9040  -31.9856  -43.1268 C.3       7 UNK        -0.2007 
     47 C          24.1724  -32.3107  -40.9570 C.2       7 UNK         0.5020 
     48 O          24.1229  -31.5141  -40.0186 O.2       7 UNK        -0.5147 
     49 N          24.1407  -33.6397  -40.8009 N.am      8 UNK        -0.4734 
     50 CA         24.0919  -34.3278  -39.5055 C.3       8 UNK         0.0238 
     51 CB         24.5770  -35.7748  -39.6985 C.3       8 UNK        -0.1912 
     52 C          22.7098  -34.3092  -38.8225 C.2       8 UNK         0.5038 
     53 O          22.6180  -34.7175  -37.6634 O.2       8 UNK        -0.5046 
     54 N          21.6647  -33.8795  -39.5415 N.am      9 UNK        -0.4200 
     55 CA         20.2870  -33.7668  -39.0429 C.3       9 UNK         0.0839 
     56 C          20.0936  -32.6933  -37.9326 C.2       9 UNK         0.5513 
     57 N          19.0036  -32.7762  -37.1813 N.am      9 UNK        -0.7519 
     58 O          20.9008  -31.7861  -37.7492 O.2       9 UNK        -0.4960 
     59 C59        19.2690  -33.6169  -40.2043 C.3       10 UNK        -0.0876 
     60 S60        19.5388  -32.1623  -41.2778 S.3       10 UNK        -0.2414 
     61 C61        19.0587  -32.8591  -42.8869 C.3       10 UNK         0.0169 
     62 H62        13.6748  -22.4874  -43.2432 H         1 UNK         0.0903 
     63 H63        14.0492  -23.9914  -42.4010 H         1 UNK         0.0903 
     64 H64        14.8371  -22.4899  -41.9146 H         1 UNK         0.0903 
     65 H65        15.4517  -25.3223  -43.5457 H         1 UNK         0.3096 
     66 H66        16.9835  -24.3931  -45.7942 H         1 UNK         0.1121 
     67 H67        17.8064  -26.8382  -45.8094 H         1 UNK         0.0849 
     68 H68        16.1147  -26.5518  -46.0854 H         1 UNK         0.0849 
     69 H69        15.4011  -29.7597  -44.3893 H         1 UNK         0.0865 
     70 H70        15.8411  -28.9999  -45.8913 H         1 UNK         0.0865 
     71 H71        17.0113  -31.0844  -43.0889 H         1 UNK         0.1346 
     72 H72        20.6338  -32.2757  -45.0495 H         1 UNK         0.1412 
     73 H73        18.1663  -29.2200  -46.7715 H         1 UNK         0.1426 
     74 H74        20.7619  -31.6242  -47.5208 H         1 UNK         0.0716 
     75 H75        19.9789  -30.1656  -48.0654 H         1 UNK         0.0716 
     76 H76        21.5190  -27.4374  -47.5011 H         1 UNK         0.0695 
     77 H77        20.2340  -28.0376  -46.5033 H         1 UNK         0.0695 
     78 H78        22.9471  -27.0187  -45.5754 H         1 UNK         0.0983 
     79 H79        20.4803  -25.7347  -45.9199 H         1 UNK         0.3095 
     80 H80        20.5756  -23.2847  -43.4318 H         1 UNK         0.0454 
     81 H81        21.3227  -22.9134  -46.3847 H         1 UNK         0.0851 
     82 H82        20.6592  -21.6739  -45.3187 H         1 UNK         0.0851 
     83 H83        22.2558  -22.3340  -45.0125 H         1 UNK         0.0851 
     84 H84        18.9962  -23.5933  -45.7968 H         1 UNK         0.2976 
     85 H85        20.0074  -27.2502  -43.5684 H         1 UNK         0.3116 
     86 H86        20.7439  -29.5525  -42.0895 H         1 UNK         0.0646 
     87 H87        18.9276  -27.2084  -41.3316 H         1 UNK         0.0847 
     88 H88        18.4423  -28.7124  -42.1196 H         1 UNK         0.0847 
     89 H89        19.0216  -28.7382  -40.4678 H         1 UNK         0.0847 
     90 H90        22.1170  -26.3583  -41.9361 H         1 UNK         0.3040 
     91 H91        23.1927  -26.6781  -39.2164 H         1 UNK         0.1015 
     92 H92        23.8623  -24.6225  -41.3893 H         1 UNK         0.0786 
     93 H93        24.3254  -24.5474  -39.6976 H         1 UNK         0.0786 
     94 H94        22.6320  -24.4103  -40.1429 H         1 UNK         0.0786 
     95 H95        24.0482  -27.6876  -42.4380 H         1 UNK         0.3172 
     96 H96        26.9187  -28.1189  -41.7403 H         1 UNK         0.0595 
     97 H97        27.1911  -28.4894  -44.1767 H         1 UNK         0.0839 
     98 H98        26.4755  -26.9148  -43.8714 H         1 UNK         0.0839 
     99 H99        25.4703  -28.2466  -44.4394 H         1 UNK         0.0839 
    100 H100       23.9320  -29.7620  -42.8225 H         1 UNK         0.2998 
    101 H101       25.0062  -32.4097  -42.9328 H         1 UNK         0.0822 
    102 H102       22.5778  -33.0260  -43.1267 H         1 UNK         0.0787 
    103 H103       22.1222  -31.3965  -42.6480 H         1 UNK         0.0787 
    104 H104       22.9651  -31.6657  -44.1673 H         1 UNK         0.0787 
    105 H105       24.1751  -34.2278  -41.6220 H         1 UNK         0.3055 
    106 H106       24.7835  -33.8259  -38.8252 H         1 UNK         0.1106 
    107 H107       25.5868  -35.8046  -40.1078 H         1 UNK         0.0828 
    108 H108       24.6011  -36.3104  -38.7485 H         1 UNK         0.0828 
    109 H109       23.9241  -36.3337  -40.3695 H         1 UNK         0.0828 
    110 H110       21.8343  -33.5139  -40.4656 H         1 UNK         0.2931 
    111 H111       20.0693  -34.7242  -38.5645 H         1 UNK         0.0412 
    112 H112       18.3318  -33.5160  -37.3131 H         1 UNK         0.3472 
    113 H113       18.8541  -32.0884  -36.4595 H         1 UNK         0.3472 
    114 H114       19.3064  -34.5191  -40.8166 H         1 UNK         0.0970 
    115 H115       18.2484  -33.5744  -39.8205 H         1 UNK         0.0970 
    116 H116       19.8180  -33.5754  -43.2044 H         1 UNK         0.0612 
    117 H117       18.1308  -33.4220  -42.7731 H         1 UNK         0.0612 
@<TRIPOS>BOND
     1    1    2 1    
     2    1   62 1    
     3    1   63 1    
     4    1   64 1    
     5    2    3 2    
     6    2    4 am   BACKBONE|DICT|INTERRES
     7    4    5 1    
     8    4   65 1    
     9    5    6 1    
    10    5   25 1    
    11    5   66 1    
    12    6    7 1    
    13    6   67 1    
    14    6   68 1    
    15    7    8 1    
    16    8    9 1    
    17    8   69 1    
    18    8   70 1    
    19    9   10 ar   
    20    9   14 ar   
    21   10   11 ar   
    22   10   71 1    
    23   11   12 ar   
    24   11   61 1    
    25   12   13 ar   
    26   12   72 1    
    27   13   14 ar   
    28   13   15 1    
    29   14   73 1    
    30   15   16 1    
    31   15   74 1    
    32   15   75 1    
    33   16   17 1    
    34   17   18 1    
    35   17   76 1    
    36   17   77 1    
    37   18   19 1    
    38   18   27 1    
    39   18   78 1    
    40   19   20 am   BACKBONE|DICT|INTERRES
    41   19   79 1    
    42   20   21 2    
    43   20   22 1    
    44   22   23 1    
    45   22   24 1    
    46   22   80 1    
    47   23   81 1    
    48   23   82 1    
    49   23   83 1    
    50   24   25 am   BACKBONE|DICT|INTERRES
    51   24   84 1    
    52   25   26 2    
    53   27   28 2    
    54   27   29 am   BACKBONE|DICT|INTERRES
    55   29   30 1    
    56   29   85 1    
    57   30   31 1    
    58   30   32 1    
    59   30   86 1    
    60   31   87 1    
    61   31   88 1    
    62   31   89 1    
    63   32   33 2    
    64   32   34 am   BACKBONE|DICT|INTERRES
    65   34   35 1    
    66   34   90 1    
    67   35   36 1    
    68   35   37 1    
    69   35   91 1    
    70   36   92 1    
    71   36   93 1    
    72   36   94 1    
    73   37   38 2    
    74   37   39 am   BACKBONE|DICT|INTERRES
    75   39   40 1    
    76   39   95 1    
    77   40   41 1    
    78   40   42 1    
    79   40   96 1    
    80   41   97 1    
    81   41   98 1    
    82   41   99 1    
    83   42   43 2    
    84   42   44 am   BACKBONE|DICT|INTERRES
    85   44   45 1    
    86   44  100 1    
    87   45   46 1    
    88   45   47 1    
    89   45  101 1    
    90   46  102 1    
    91   46  103 1    
    92   46  104 1    
    93   47   48 2    
    94   47   49 am   BACKBONE|DICT|INTERRES
    95   49   50 1    
    96   49  105 1    
    97   50   51 1    
    98   50   52 1    
    99   50  106 1    
   100   51  107 1    
   101   51  108 1    
   102   51  109 1    
   103   52   53 2    
   104   52   54 am   BACKBONE|DICT|INTERRES
   105   54   55 1    
   106   54  110 1    
   107   55   56 1    
   108   55   59 1    
   109   55  111 1    
   110   56   57 am   BACKBONE|DICT|INTERRES
   111   56   58 2    
   112   57  112 1    
   113   57  113 1    
   114   59   60 1    
   115   59  114 1    
   116   59  115 1    
   117   60   61 1    
   118   61  116 1    
   119   61  117 1    
@<TRIPOS>SUBSTRUCTURE
     1 UNK         1 GROUP             0       ****    0 ROOT    
