@<TRIPOS>MOLECULE
3R8
117   119    1
SMALL
USER_CHARGES


@<TRIPOS>ATOM
      1 CA         22.2412  -29.6269  -46.6701 C.3       0 UNK        -0.2013 
      2 C          21.0582  -29.0727  -45.8923 C.2       0 UNK         0.4866 
      3 O          21.2169  -28.6826  -44.7358 O.2       0 UNK        -0.5176 
      4 N          19.8805  -28.9983  -46.5306 N.am      1 UNK        -0.4884 
      5 CA         18.6029  -28.5551  -45.9461 C.3       1 UNK         0.0853 
      6 C6         17.4073  -28.8188  -46.9005 C.3       10 UNK        -0.0849 
      7 S7         16.9971  -30.5917  -47.0497 S.3       10 UNK        -0.2776 
      8 C8         15.4860  -30.7238  -46.0279 C.3       10 UNK         0.0316 
      9 C9         15.8153  -30.8638  -44.5473 C.ar      10 UNK        -0.0863 
     10 C10        15.7959  -32.1208  -43.9348 C.ar      10 UNK        -0.1009 
     11 C11        16.1491  -32.2604  -42.5883 C.ar      10 UNK        -0.0712 
     12 C12        16.5387  -31.1340  -41.8582 C.ar      10 UNK        -0.0894 
     13 C13        16.5820  -29.8770  -42.4666 C.ar      10 UNK        -0.0745 
     14 C14        16.1715  -29.7420  -43.7945 C.ar      10 UNK        -0.0972 
     15 C15        17.1725  -28.6889  -41.7255 C.3       10 UNK         0.0209 
     16 S16        18.9846  -28.7891  -41.8229 S.3       10 UNK        -0.2568 
     17 C17        19.5344  -27.2473  -41.0241 C.3       10 UNK        -0.0983 
     18 CA         20.8606  -26.7675  -41.6700 C.3       3 UNK         0.0876 
     19 N          20.6827  -26.2857  -43.0515 N.am      3 UNK        -0.4424 
     20 C          20.0710  -25.1745  -43.4943 C.2       2 UNK         0.4918 
     21 O          19.6496  -24.2786  -42.7637 O.2       2 UNK        -0.4875 
     22 CA         19.8983  -25.0344  -45.0195 C.3       2 UNK         0.0481 
     23 CB         21.1385  -24.3723  -45.6401 C.3       2 UNK        -0.1831 
     24 N          19.6491  -26.3201  -45.6740 N.am      2 UNK        -0.4498 
     25 C          18.5796  -27.0933  -45.4364 C.2       1 UNK         0.5027 
     26 O          17.5952  -26.6965  -44.8111 O.2       1 UNK        -0.4969 
     27 C          21.6723  -25.8586  -40.7167 C.2       3 UNK         0.5005 
     28 O          22.2639  -26.3815  -39.7715 O.2       3 UNK        -0.5279 
     29 N          21.7597  -24.5484  -40.9829 N.am      4 UNK        -0.4463 
     30 CA         22.5334  -23.5531  -40.2268 C.3       4 UNK         0.0283 
     31 CB         22.2772  -22.1604  -40.8240 C.3       4 UNK        -0.1875 
     32 C          24.0471  -23.8383  -40.1630 C.2       4 UNK         0.4949 
     33 O          24.7094  -23.3922  -39.2268 O.2       4 UNK        -0.5039 
     34 N          24.5570  -24.6051  -41.1360 N.am      5 UNK        -0.4663 
     35 CA         25.9251  -25.1280  -41.1841 C.3       5 UNK         0.0242 
     36 CB         26.2577  -25.4742  -42.6466 C.3       5 UNK        -0.1982 
     37 C          26.1583  -26.3506  -40.2688 C.2       5 UNK         0.5017 
     38 O          27.2732  -26.8730  -40.2596 O.2       5 UNK        -0.5012 
     39 N          25.1183  -26.8025  -39.5477 N.am      6 UNK        -0.4439 
     40 CA         25.0590  -28.0071  -38.7091 C.3       6 UNK         0.0297 
     41 CB         26.0872  -27.9591  -37.5579 C.3       6 UNK        -0.2006 
     42 C          25.1241  -29.3060  -39.5361 C.2       6 UNK         0.4892 
     43 O          25.6820  -30.3050  -39.0777 O.2       6 UNK        -0.5089 
     44 N          24.5447  -29.2665  -40.7435 N.am      7 UNK        -0.4243 
     45 CA         24.4128  -30.4073  -41.6466 C.3       7 UNK         0.0196 
     46 CB         24.1231  -29.8917  -43.0651 C.3       7 UNK        -0.2007 
     47 C          23.2925  -31.3464  -41.1752 C.2       7 UNK         0.5020 
     48 O          22.2314  -30.8764  -40.7594 O.2       7 UNK        -0.5147 
     49 N          23.5291  -32.6580  -41.2817 N.am      8 UNK        -0.4734 
     50 CA         22.5817  -33.7085  -40.9033 C.3       8 UNK         0.0238 
     51 CB         23.3717  -34.9603  -40.4756 C.3       8 UNK        -0.1912 
     52 C          21.5962  -33.9944  -42.0501 C.2       8 UNK         0.5038 
     53 O          21.6802  -35.0511  -42.6790 O.2       8 UNK        -0.5046 
     54 N          20.7047  -33.0304  -42.3165 N.am      9 UNK        -0.4200 
     55 CA         19.6618  -33.0719  -43.3612 C.3       9 UNK         0.0839 
     56 C          20.2057  -33.0218  -44.8225 C.2       9 UNK         0.5513 
     57 N          21.4690  -32.6824  -45.0493 N.am      9 UNK        -0.7519 
     58 O          19.4713  -33.2814  -45.7716 O.2       9 UNK        -0.4960 
     59 C59        18.6361  -34.2291  -43.1570 C.3       10 UNK        -0.0876 
     60 S60        17.8337  -34.1938  -41.5157 S.3       10 UNK        -0.2414 
     61 C61        16.1502  -33.6331  -41.9311 C.3       10 UNK         0.0169 
     62 H62        22.9144  -28.8187  -46.9540 H         1 UNK         0.0903 
     63 H63        22.7996  -30.3302  -46.0538 H         1 UNK         0.0903 
     64 H64        21.9252  -30.1461  -47.5746 H         1 UNK         0.0903 
     65 H65        19.8195  -29.3325  -47.4823 H         1 UNK         0.3096 
     66 H66        18.4692  -29.1617  -45.0488 H         1 UNK         0.1121 
     67 H67        17.6271  -28.4287  -47.8958 H         1 UNK         0.0849 
     68 H68        16.5084  -28.2890  -46.5802 H         1 UNK         0.0849 
     69 H69        14.9181  -31.5923  -46.3652 H         1 UNK         0.0865 
     70 H70        14.8357  -29.8635  -46.1922 H         1 UNK         0.0865 
     71 H71        15.5234  -32.9941  -44.5117 H         1 UNK         0.1346 
     72 H72        16.8609  -31.2459  -40.8318 H         1 UNK         0.1412 
     73 H73        16.1907  -28.7682  -44.2603 H         1 UNK         0.1426 
     74 H74        16.8551  -28.6922  -40.6817 H         1 UNK         0.0716 
     75 H75        16.8309  -27.7495  -42.1635 H         1 UNK         0.0716 
     76 H76        19.6605  -27.4621  -39.9610 H         1 UNK         0.0695 
     77 H77        18.7608  -26.4814  -41.0998 H         1 UNK         0.0695 
     78 H78        21.4970  -27.6482  -41.7793 H         1 UNK         0.0983 
     79 H79        20.9581  -26.9702  -43.7511 H         1 UNK         0.3095 
     80 H80        19.0367  -24.3890  -45.2026 H         1 UNK         0.0454 
     81 H81        22.0341  -24.9805  -45.5064 H         1 UNK         0.0851 
     82 H82        21.3324  -23.4016  -45.1815 H         1 UNK         0.0851 
     83 H83        21.0045  -24.2019  -46.7084 H         1 UNK         0.0851 
     84 H84        20.4104  -26.7262  -46.1984 H         1 UNK         0.2976 
     85 H85        21.1666  -24.2004  -41.7323 H         1 UNK         0.3116 
     86 H86        22.1598  -23.5612  -39.2009 H         1 UNK         0.0646 
     87 H87        22.8129  -21.3908  -40.2664 H         1 UNK         0.0847 
     88 H88        21.2183  -21.9027  -40.7920 H         1 UNK         0.0847 
     89 H89        22.6064  -22.0997  -41.8621 H         1 UNK         0.0847 
     90 H90        23.9321  -24.9065  -41.8694 H         1 UNK         0.3040 
     91 H91        26.6104  -24.3451  -40.8513 H         1 UNK         0.1015 
     92 H92        26.1390  -24.6074  -43.2971 H         1 UNK         0.0786 
     93 H93        25.6196  -26.2723  -43.0284 H         1 UNK         0.0786 
     94 H94        27.2913  -25.8088  -42.7463 H         1 UNK         0.0786 
     95 H95        24.2281  -26.3211  -39.6439 H         1 UNK         0.3172 
     96 H96        24.0677  -27.9983  -38.2535 H         1 UNK         0.0595 
     97 H97        27.1108  -28.0596  -37.9193 H         1 UNK         0.0839 
     98 H98        25.9158  -28.7711  -36.8503 H         1 UNK         0.0839 
     99 H99        26.0167  -27.0251  -37.0006 H         1 UNK         0.0839 
    100 H100       24.0695  -28.4187  -41.0118 H         1 UNK         0.2998 
    101 H101       25.3596  -30.9520  -41.6596 H         1 UNK         0.0822 
    102 H102       23.1864  -29.3352  -43.1049 H         1 UNK         0.0787 
    103 H103       24.9181  -29.2362  -43.4213 H         1 UNK         0.0787 
    104 H104       24.0420  -30.7171  -43.7732 H         1 UNK         0.0787 
    105 H105       24.4105  -32.9667  -41.6679 H         1 UNK         0.3055 
    106 H106       21.9947  -33.3795  -40.0420 H         1 UNK         0.1106 
    107 H107       22.6966  -35.7645  -40.1796 H         1 UNK         0.0828 
    108 H108       23.9990  -35.3420  -41.2822 H         1 UNK         0.0828 
    109 H109       24.0154  -34.7498  -39.6214 H         1 UNK         0.0828 
    110 H110       20.7598  -32.1723  -41.7806 H         1 UNK         0.2931 
    111 H111       19.1143  -32.1353  -43.2472 H         1 UNK         0.0412 
    112 H112       22.0853  -32.4788  -44.2805 H         1 UNK         0.3472 
    113 H113       21.8107  -32.6703  -45.9965 H         1 UNK         0.3472 
    114 H114       17.8625  -34.1952  -43.9255 H         1 UNK         0.0970 
    115 H115       19.1215  -35.1981  -43.2799 H         1 UNK         0.0970 
    116 H116       15.6751  -34.3752  -42.5746 H         1 UNK         0.0612 
    117 H117       15.5561  -33.5933  -41.0171 H         1 UNK         0.0612 
@<TRIPOS>BOND
     1    1    2 1    
     2    1   62 1    
     3    1   63 1    
     4    1   64 1    
     5    2    3 2    
     6    2    4 am   BACKBONE|DICT|INTERRES
     7    4    5 1    
     8    4   65 1    
     9    5    6 1    
    10    5   25 1    
    11    5   66 1    
    12    6    7 1    
    13    6   67 1    
    14    6   68 1    
    15    7    8 1    
    16    8    9 1    
    17    8   69 1    
    18    8   70 1    
    19    9   10 ar   
    20    9   14 ar   
    21   10   11 ar   
    22   10   71 1    
    23   11   12 ar   
    24   11   61 1    
    25   12   13 ar   
    26   12   72 1    
    27   13   14 ar   
    28   13   15 1    
    29   14   73 1    
    30   15   16 1    
    31   15   74 1    
    32   15   75 1    
    33   16   17 1    
    34   17   18 1    
    35   17   76 1    
    36   17   77 1    
    37   18   19 1    
    38   18   27 1    
    39   18   78 1    
    40   19   20 am   BACKBONE|DICT|INTERRES
    41   19   79 1    
    42   20   21 2    
    43   20   22 1    
    44   22   23 1    
    45   22   24 1    
    46   22   80 1    
    47   23   81 1    
    48   23   82 1    
    49   23   83 1    
    50   24   25 am   BACKBONE|DICT|INTERRES
    51   24   84 1    
    52   25   26 2    
    53   27   28 2    
    54   27   29 am   BACKBONE|DICT|INTERRES
    55   29   30 1    
    56   29   85 1    
    57   30   31 1    
    58   30   32 1    
    59   30   86 1    
    60   31   87 1    
    61   31   88 1    
    62   31   89 1    
    63   32   33 2    
    64   32   34 am   BACKBONE|DICT|INTERRES
    65   34   35 1    
    66   34   90 1    
    67   35   36 1    
    68   35   37 1    
    69   35   91 1    
    70   36   92 1    
    71   36   93 1    
    72   36   94 1    
    73   37   38 2    
    74   37   39 am   BACKBONE|DICT|INTERRES
    75   39   40 1    
    76   39   95 1    
    77   40   41 1    
    78   40   42 1    
    79   40   96 1    
    80   41   97 1    
    81   41   98 1    
    82   41   99 1    
    83   42   43 2    
    84   42   44 am   BACKBONE|DICT|INTERRES
    85   44   45 1    
    86   44  100 1    
    87   45   46 1    
    88   45   47 1    
    89   45  101 1    
    90   46  102 1    
    91   46  103 1    
    92   46  104 1    
    93   47   48 2    
    94   47   49 am   BACKBONE|DICT|INTERRES
    95   49   50 1    
    96   49  105 1    
    97   50   51 1    
    98   50   52 1    
    99   50  106 1    
   100   51  107 1    
   101   51  108 1    
   102   51  109 1    
   103   52   53 2    
   104   52   54 am   BACKBONE|DICT|INTERRES
   105   54   55 1    
   106   54  110 1    
   107   55   56 1    
   108   55   59 1    
   109   55  111 1    
   110   56   57 am   BACKBONE|DICT|INTERRES
   111   56   58 2    
   112   57  112 1    
   113   57  113 1    
   114   59   60 1    
   115   59  114 1    
   116   59  115 1    
   117   60   61 1    
   118   61  116 1    
   119   61  117 1    
@<TRIPOS>SUBSTRUCTURE
     1 UNK         1 GROUP             0       ****    0 ROOT    
