@<TRIPOS>MOLECULE
3R8
117   119    1
SMALL
USER_CHARGES


@<TRIPOS>ATOM
      1 CA         15.1386  -24.7536  -44.8282 C.3       0 UNK        -0.2013 
      2 C          16.3099  -24.8520  -45.7930 C.2       0 UNK         0.4866 
      3 O          16.7450  -23.8310  -46.3257 O.2       0 UNK        -0.5176 
      4 N          16.8034  -26.0720  -46.0442 N.am      1 UNK        -0.4884 
      5 CA         17.8399  -26.3631  -47.0443 C.3       1 UNK         0.0853 
      6 C6         17.9231  -27.8677  -47.4309 C.3       10 UNK        -0.0849 
      7 S7         16.2920  -28.6890  -47.5413 S.3       10 UNK        -0.2776 
      8 C8         16.5208  -30.1931  -46.5292 C.3       10 UNK         0.0316 
      9 C9         17.0688  -29.9231  -45.1301 C.ar      10 UNK        -0.0863 
     10 C10        18.3255  -30.4239  -44.7678 C.ar      10 UNK        -0.1009 
     11 C11        18.8254  -30.2177  -43.4797 C.ar      10 UNK        -0.0712 
     12 C12        18.0526  -29.5279  -42.5465 C.ar      10 UNK        -0.0894 
     13 C13        16.8279  -28.9676  -42.9079 C.ar      10 UNK        -0.0745 
     14 C14        16.3280  -29.1854  -44.1978 C.ar      10 UNK        -0.0972 
     15 C15        16.0676  -28.1068  -41.9098 C.3       10 UNK         0.0209 
     16 S16        16.5379  -26.3532  -42.0802 S.3       10 UNK        -0.2568 
     17 C17        17.8123  -26.0865  -40.7939 C.3       10 UNK        -0.0983 
     18 CA         19.2572  -26.4599  -41.2158 C.3       3 UNK         0.0876 
     19 N          19.6168  -25.9996  -42.5594 N.am      3 UNK        -0.4424 
     20 C          20.7219  -26.3765  -43.2189 C.2       2 UNK         0.4918 
     21 O          21.5851  -27.1163  -42.7396 O.2       2 UNK        -0.4875 
     22 CA         20.8380  -25.8956  -44.6724 C.3       2 UNK         0.0481 
     23 CB         22.0533  -26.5117  -45.3999 C.3       2 UNK        -0.1831 
     24 N          19.5887  -26.2248  -45.3573 N.am      2 UNK        -0.4498 
     25 C          19.2171  -25.8476  -46.5869 C.2       1 UNK         0.5027 
     26 O          19.8896  -25.1345  -47.3330 O.2       1 UNK        -0.4969 
     27 C          20.2975  -26.0006  -40.1773 C.2       3 UNK         0.5005 
     28 O          20.7025  -24.8356  -40.1977 O.2       3 UNK        -0.5279 
     29 N          20.7599  -26.9443  -39.3438 N.am      4 UNK        -0.4463 
     30 CA         21.8856  -26.8649  -38.3999 C.3       4 UNK         0.0283 
     31 CB         21.6851  -25.7574  -37.3471 C.3       4 UNK        -0.1875 
     32 C          23.2663  -26.7499  -39.0760 C.2       4 UNK         0.4949 
     33 O          24.2016  -27.4148  -38.6326 O.2       4 UNK        -0.5039 
     34 N          23.3728  -25.9454  -40.1418 N.am      5 UNK        -0.4663 
     35 CA         24.5905  -25.6964  -40.9198 C.3       5 UNK         0.0242 
     36 CB         24.3002  -24.6350  -41.9932 C.3       5 UNK        -0.1982 
     37 C          25.1942  -26.9604  -41.5556 C.2       5 UNK         0.5017 
     38 O          26.4136  -27.1264  -41.5192 O.2       5 UNK        -0.5012 
     39 N          24.3359  -27.8379  -42.0941 N.am      6 UNK        -0.4439 
     40 CA         24.7212  -29.1354  -42.6608 C.3       6 UNK         0.0297 
     41 CB         23.7920  -29.4722  -43.8377 C.3       6 UNK        -0.2006 
     42 C          24.7681  -30.2753  -41.6220 C.2       6 UNK         0.4892 
     43 O          24.9746  -31.4246  -42.0162 O.2       6 UNK        -0.5089 
     44 N          24.5956  -29.9535  -40.3291 N.am      7 UNK        -0.4243 
     45 CA         24.6896  -30.8402  -39.1639 C.3       7 UNK         0.0196 
     46 CB         26.1657  -31.2144  -38.8981 C.3       7 UNK        -0.2007 
     47 C          23.7486  -32.0560  -39.2620 C.2       7 UNK         0.5020 
     48 O          22.5481  -31.9070  -39.0364 O.2       7 UNK        -0.5147 
     49 N          24.3067  -33.2286  -39.5913 N.am      8 UNK        -0.4734 
     50 CA         23.5879  -34.4941  -39.7669 C.3       8 UNK         0.0238 
     51 CB         24.5981  -35.6511  -39.6806 C.3       8 UNK        -0.1912 
     52 C          22.7743  -34.5834  -41.0735 C.2       8 UNK         0.5038 
     53 O          21.9786  -35.5152  -41.2057 O.2       8 UNK        -0.5046 
     54 N          22.9808  -33.6368  -42.0003 N.am      9 UNK        -0.4200 
     55 CA         22.3313  -33.5398  -43.3188 C.3       9 UNK         0.0839 
     56 C          22.8269  -34.6208  -44.3260 C.2       9 UNK         0.5513 
     57 N          22.2651  -34.6662  -45.5273 N.am      9 UNK        -0.7519 
     58 O          23.7401  -35.3989  -44.0553 O.2       9 UNK        -0.4960 
     59 C59        20.7736  -33.4395  -43.2492 C.3       10 UNK        -0.0876 
     60 S60        20.1815  -32.1797  -42.0691 S.3       10 UNK        -0.2414 
     61 C61        20.2190  -30.6817  -43.0932 C.3       10 UNK         0.0169 
     62 H62        14.7982  -25.7351  -44.4990 H         1 UNK         0.0903 
     63 H63        15.4229  -24.1761  -43.9491 H         1 UNK         0.0903 
     64 H64        14.2993  -24.2508  -45.3078 H         1 UNK         0.0903 
     65 H65        16.3975  -26.8812  -45.5962 H         1 UNK         0.3096 
     66 H66        17.5737  -25.8103  -47.9485 H         1 UNK         0.1121 
     67 H67        18.5535  -28.4190  -46.7331 H         1 UNK         0.0849 
     68 H68        18.4171  -27.9694  -48.3989 H         1 UNK         0.0849 
     69 H69        15.5611  -30.7038  -46.4394 H         1 UNK         0.0865 
     70 H70        17.1743  -30.8779  -47.0721 H         1 UNK         0.0865 
     71 H71        18.9181  -30.9710  -45.4883 H         1 UNK         0.1346 
     72 H72        18.4210  -29.4135  -41.5388 H         1 UNK         0.1412 
     73 H73        15.3666  -28.7773  -44.4788 H         1 UNK         0.1426 
     74 H74        16.2389  -28.4498  -40.8884 H         1 UNK         0.0716 
     75 H75        14.9952  -28.2008  -42.0870 H         1 UNK         0.0716 
     76 H76        17.5260  -26.6320  -39.8930 H         1 UNK         0.0695 
     77 H77        17.7660  -25.0286  -40.5275 H         1 UNK         0.0695 
     78 H78        19.3216  -27.5425  -41.2517 H         1 UNK         0.0983 
     79 H79        18.9654  -25.3669  -42.9996 H         1 UNK         0.3095 
     80 H80        20.9515  -24.8104  -44.6498 H         1 UNK         0.0454 
     81 H81        22.1895  -26.0871  -46.3938 H         1 UNK         0.0851 
     82 H82        21.9441  -27.5908  -45.5098 H         1 UNK         0.0851 
     83 H83        22.9772  -26.3275  -44.8503 H         1 UNK         0.0851 
     84 H84        18.9493  -26.8048  -44.8295 H         1 UNK         0.2976 
     85 H85        20.3665  -27.8714  -39.4320 H         1 UNK         0.3116 
     86 H86        21.8827  -27.8180  -37.8680 H         1 UNK         0.0646 
     87 H87        21.7229  -24.7599  -37.7853 H         1 UNK         0.0847 
     88 H88        22.4657  -25.8023  -36.5866 H         1 UNK         0.0847 
     89 H89        20.7285  -25.8637  -36.8357 H         1 UNK         0.0847 
     90 H90        22.5382  -25.4326  -40.4123 H         1 UNK         0.3040 
     91 H91        25.3370  -25.2922  -40.2325 H         1 UNK         0.1015 
     92 H92        23.5284  -24.9644  -42.6894 H         1 UNK         0.0786 
     93 H93        25.1948  -24.4146  -42.5775 H         1 UNK         0.0786 
     94 H94        23.9683  -23.6983  -41.5449 H         1 UNK         0.0786 
     95 H95        23.3460  -27.6013  -42.1202 H         1 UNK         0.3172 
     96 H96        25.7320  -29.0593  -43.0668 H         1 UNK         0.0595 
     97 H97        22.7480  -29.4738  -43.5344 H         1 UNK         0.0839 
     98 H98        24.0165  -30.4520  -44.2611 H         1 UNK         0.0839 
     99 H99        23.9062  -28.7466  -44.6419 H         1 UNK         0.0839 
    100 H100       24.4245  -28.9805  -40.1051 H         1 UNK         0.2998 
    101 H101       24.3428  -30.2587  -38.3081 H         1 UNK         0.0822 
    102 H102       26.7577  -30.3236  -38.6868 H         1 UNK         0.0787 
    103 H103       26.2570  -31.8698  -38.0307 H         1 UNK         0.0787 
    104 H104       26.6284  -31.7179  -39.7476 H         1 UNK         0.0787 
    105 H105       25.2968  -33.2384  -39.7915 H         1 UNK         0.3055 
    106 H106       22.8762  -34.5981  -38.9446 H         1 UNK         0.1106 
    107 H107       24.0955  -36.6161  -39.7604 H         1 UNK         0.0828 
    108 H108       25.3360  -35.6024  -40.4824 H         1 UNK         0.0828 
    109 H109       25.1311  -35.6447  -38.7297 H         1 UNK         0.0828 
    110 H110       23.6889  -32.9327  -41.8177 H         1 UNK         0.2931 
    111 H111       22.6974  -32.5960  -43.7237 H         1 UNK         0.0412 
    112 H112       22.5900  -35.3540  -46.1893 H         1 UNK         0.3472 
    113 H113       21.5361  -34.0242  -45.7947 H         1 UNK         0.3472 
    114 H114       20.3444  -34.3992  -42.9575 H         1 UNK         0.0970 
    115 H115       20.3492  -33.2152  -44.2286 H         1 UNK         0.0970 
    116 H116       20.8333  -30.8376  -43.9808 H         1 UNK         0.0612 
    117 H117       20.7065  -29.8918  -42.5201 H         1 UNK         0.0612 
@<TRIPOS>BOND
     1    1    2 1    
     2    1   62 1    
     3    1   63 1    
     4    1   64 1    
     5    2    3 2    
     6    2    4 am   BACKBONE|DICT|INTERRES
     7    4    5 1    
     8    4   65 1    
     9    5    6 1    
    10    5   25 1    
    11    5   66 1    
    12    6    7 1    
    13    6   67 1    
    14    6   68 1    
    15    7    8 1    
    16    8    9 1    
    17    8   69 1    
    18    8   70 1    
    19    9   10 ar   
    20    9   14 ar   
    21   10   11 ar   
    22   10   71 1    
    23   11   12 ar   
    24   11   61 1    
    25   12   13 ar   
    26   12   72 1    
    27   13   14 ar   
    28   13   15 1    
    29   14   73 1    
    30   15   16 1    
    31   15   74 1    
    32   15   75 1    
    33   16   17 1    
    34   17   18 1    
    35   17   76 1    
    36   17   77 1    
    37   18   19 1    
    38   18   27 1    
    39   18   78 1    
    40   19   20 am   BACKBONE|DICT|INTERRES
    41   19   79 1    
    42   20   21 2    
    43   20   22 1    
    44   22   23 1    
    45   22   24 1    
    46   22   80 1    
    47   23   81 1    
    48   23   82 1    
    49   23   83 1    
    50   24   25 am   BACKBONE|DICT|INTERRES
    51   24   84 1    
    52   25   26 2    
    53   27   28 2    
    54   27   29 am   BACKBONE|DICT|INTERRES
    55   29   30 1    
    56   29   85 1    
    57   30   31 1    
    58   30   32 1    
    59   30   86 1    
    60   31   87 1    
    61   31   88 1    
    62   31   89 1    
    63   32   33 2    
    64   32   34 am   BACKBONE|DICT|INTERRES
    65   34   35 1    
    66   34   90 1    
    67   35   36 1    
    68   35   37 1    
    69   35   91 1    
    70   36   92 1    
    71   36   93 1    
    72   36   94 1    
    73   37   38 2    
    74   37   39 am   BACKBONE|DICT|INTERRES
    75   39   40 1    
    76   39   95 1    
    77   40   41 1    
    78   40   42 1    
    79   40   96 1    
    80   41   97 1    
    81   41   98 1    
    82   41   99 1    
    83   42   43 2    
    84   42   44 am   BACKBONE|DICT|INTERRES
    85   44   45 1    
    86   44  100 1    
    87   45   46 1    
    88   45   47 1    
    89   45  101 1    
    90   46  102 1    
    91   46  103 1    
    92   46  104 1    
    93   47   48 2    
    94   47   49 am   BACKBONE|DICT|INTERRES
    95   49   50 1    
    96   49  105 1    
    97   50   51 1    
    98   50   52 1    
    99   50  106 1    
   100   51  107 1    
   101   51  108 1    
   102   51  109 1    
   103   52   53 2    
   104   52   54 am   BACKBONE|DICT|INTERRES
   105   54   55 1    
   106   54  110 1    
   107   55   56 1    
   108   55   59 1    
   109   55  111 1    
   110   56   57 am   BACKBONE|DICT|INTERRES
   111   56   58 2    
   112   57  112 1    
   113   57  113 1    
   114   59   60 1    
   115   59  114 1    
   116   59  115 1    
   117   60   61 1    
   118   61  116 1    
   119   61  117 1    
@<TRIPOS>SUBSTRUCTURE
     1 UNK         1 GROUP             0       ****    0 ROOT    
