@<TRIPOS>MOLECULE
3R8
117   119    1
SMALL
USER_CHARGES


@<TRIPOS>ATOM
      1 CA         13.3217  -23.2060  -42.0978 C.3       0 UNK        -0.2013 
      2 C          14.6734  -23.5026  -42.7301 C.2       0 UNK         0.4866 
      3 O          15.6365  -22.7743  -42.4878 O.2       0 UNK        -0.5176 
      4 N          14.7506  -24.5601  -43.5465 N.am      1 UNK        -0.4884 
      5 CA         15.9814  -25.0468  -44.1769 C.3       1 UNK         0.0853 
      6 C6         15.6791  -25.9589  -45.3961 C.3       10 UNK        -0.0849 
      7 S7         14.5499  -27.3537  -45.0341 S.3       10 UNK        -0.2776 
      8 C8         15.1490  -28.6441  -46.1728 C.3       10 UNK         0.0316 
      9 C9         16.5199  -29.1772  -45.7794 C.ar      10 UNK        -0.0863 
     10 C10        16.6684  -29.9594  -44.6299 C.ar      10 UNK        -0.1009 
     11 C11        17.9242  -30.4570  -44.2711 C.ar      10 UNK        -0.0712 
     12 C12        19.0339  -30.1748  -45.0703 C.ar      10 UNK        -0.0894 
     13 C13        18.9009  -29.3879  -46.2156 C.ar      10 UNK        -0.0745 
     14 C14        17.6392  -28.8996  -46.5705 C.ar      10 UNK        -0.0972 
     15 C15        20.1148  -29.0465  -47.0648 C.3       10 UNK         0.0209 
     16 S16        20.5878  -27.3098  -46.8144 S.3       10 UNK        -0.2568 
     17 C17        22.1883  -27.4001  -45.9343 C.3       10 UNK        -0.0983 
     18 CA         22.1872  -27.8565  -44.4360 C.3       3 UNK         0.0876 
     19 N          20.9946  -27.5136  -43.6668 N.am      3 UNK        -0.4424 
     20 C          20.5345  -26.2913  -43.4056 C.2       2 UNK         0.4918 
     21 O          21.0436  -25.2480  -43.8201 O.2       2 UNK        -0.4875 
     22 CA         19.2675  -26.2235  -42.5509 C.3       2 UNK         0.0481 
     23 CB         19.5042  -25.4332  -41.2503 C.3       2 UNK        -0.1831 
     24 N          18.2218  -25.6026  -43.3561 N.am      2 UNK        -0.4498 
     25 C          16.9071  -25.7314  -43.1465 C.2       1 UNK         0.5027 
     26 O          16.4218  -26.3590  -42.2007 O.2       1 UNK        -0.4969 
     27 C          22.4808  -29.3475  -44.1717 C.2       3 UNK         0.5005 
     28 O          22.0868  -29.8502  -43.1155 O.2       3 UNK        -0.5279 
     29 N          23.1615  -30.0335  -45.1003 N.am      4 UNK        -0.4463 
     30 CA         23.5695  -31.4415  -45.0220 C.3       4 UNK         0.0283 
     31 CB         22.3404  -32.3816  -44.9818 C.3       4 UNK        -0.1875 
     32 C          24.5940  -31.6751  -43.8928 C.2       4 UNK         0.4949 
     33 O          25.5308  -30.8826  -43.7669 O.2       4 UNK        -0.5039 
     34 N          24.4318  -32.7599  -43.1214 N.am      5 UNK        -0.4663 
     35 CA         25.3252  -33.1784  -42.0370 C.3       5 UNK         0.0242 
     36 CB         24.7983  -34.4815  -41.4164 C.3       5 UNK        -0.1982 
     37 C          25.5036  -32.0866  -40.9684 C.2       5 UNK         0.5017 
     38 O          24.5103  -31.5851  -40.4350 O.2       5 UNK        -0.5012 
     39 N          26.7660  -31.7026  -40.7263 N.am      6 UNK        -0.4439 
     40 CA         27.2127  -30.6167  -39.8392 C.3       6 UNK         0.0297 
     41 CB         26.9189  -30.9733  -38.3660 C.3       6 UNK        -0.2006 
     42 C          26.6631  -29.2203  -40.2105 C.2       6 UNK         0.4892 
     43 O          26.7301  -28.3113  -39.3819 O.2       6 UNK        -0.5089 
     44 N          26.1111  -29.0810  -41.4280 N.am      7 UNK        -0.4243 
     45 CA         25.3379  -27.9433  -41.9353 C.3       7 UNK         0.0196 
     46 CB         26.2359  -26.7017  -42.1186 C.3       7 UNK        -0.2007 
     47 C          24.0669  -27.6462  -41.1084 C.2       7 UNK         0.5020 
     48 O          23.5948  -26.5087  -41.1189 O.2       7 UNK        -0.5147 
     49 N          23.5322  -28.6545  -40.4050 N.am      8 UNK        -0.4734 
     50 CA         22.4255  -28.5008  -39.4598 C.3       8 UNK         0.0238 
     51 CB         22.9688  -27.9994  -38.1052 C.3       8 UNK        -0.1912 
     52 C          21.5933  -29.7859  -39.3259 C.2       8 UNK         0.5038 
     53 O          21.0493  -30.0396  -38.2492 O.2       8 UNK        -0.5046 
     54 N          21.4884  -30.5626  -40.4127 N.am      9 UNK        -0.4200 
     55 CA         20.6741  -31.7867  -40.5185 C.3       9 UNK         0.0839 
     56 C          21.1183  -32.9511  -39.5806 C.2       9 UNK         0.5513 
     57 N          22.3729  -33.0081  -39.1547 N.am      9 UNK        -0.7519 
     58 O          20.3254  -33.8293  -39.2486 O.2       9 UNK        -0.4960 
     59 C59        19.1453  -31.4994  -40.4309 C.3       10 UNK        -0.0876 
     60 S60        18.5973  -30.2326  -41.6232 S.3       10 UNK        -0.2414 
     61 C61        18.0968  -31.2872  -43.0131 C.3       10 UNK         0.0169 
     62 H62        12.9862  -22.2082  -42.3795 H         1 UNK         0.0903 
     63 H63        12.5600  -23.9205  -42.4097 H         1 UNK         0.0903 
     64 H64        13.3993  -23.2459  -41.0116 H         1 UNK         0.0903 
     65 H65        13.9427  -25.1520  -43.6828 H         1 UNK         0.3096 
     66 H66        16.5149  -24.1708  -44.5541 H         1 UNK         0.1121 
     67 H67        15.2193  -25.3626  -46.1857 H         1 UNK         0.0849 
     68 H68        16.6102  -26.3341  -45.8236 H         1 UNK         0.0849 
     69 H69        14.4353  -29.4691  -46.1750 H         1 UNK         0.0865 
     70 H70        15.1585  -28.2499  -47.1904 H         1 UNK         0.0865 
     71 H71        15.8079  -30.1699  -44.0093 H         1 UNK         0.1346 
     72 H72        20.0016  -30.5603  -44.7867 H         1 UNK         0.1412 
     73 H73        17.5358  -28.2898  -47.4579 H         1 UNK         0.1426 
     74 H74        19.8727  -29.1978  -48.1177 H         1 UNK         0.0716 
     75 H75        20.9510  -29.7107  -46.8465 H         1 UNK         0.0716 
     76 H76        22.5698  -26.3781  -45.9569 H         1 UNK         0.0695 
     77 H77        22.8976  -27.9518  -46.5509 H         1 UNK         0.0695 
     78 H78        23.0126  -27.3315  -43.9529 H         1 UNK         0.0983 
     79 H79        20.5388  -28.3196  -43.2563 H         1 UNK         0.3095 
     80 H80        18.9598  -27.2393  -42.2930 H         1 UNK         0.0454 
     81 H81        20.3296  -25.8602  -40.6798 H         1 UNK         0.0851 
     82 H82        18.6235  -25.4486  -40.6084 H         1 UNK         0.0851 
     83 H83        19.7534  -24.3910  -41.4527 H         1 UNK         0.0851 
     84 H84        18.5573  -25.0842  -44.1579 H         1 UNK         0.2976 
     85 H85        23.4930  -29.5364  -45.9148 H         1 UNK         0.3116 
     86 H86        24.1034  -31.6496  -45.9503 H         1 UNK         0.0646 
     87 H87        22.6360  -33.4253  -45.0948 H         1 UNK         0.0847 
     88 H88        21.7806  -32.2943  -44.0500 H         1 UNK         0.0847 
     89 H89        21.6546  -32.1629  -45.8002 H         1 UNK         0.0847 
     90 H90        23.6210  -33.3387  -43.2812 H         1 UNK         0.3040 
     91 H91        26.2982  -33.3898  -42.4856 H         1 UNK         0.1015 
     92 H92        25.4129  -34.7909  -40.5698 H         1 UNK         0.0786 
     93 H93        24.8115  -35.2973  -42.1394 H         1 UNK         0.0786 
     94 H94        23.7756  -34.3737  -41.0561 H         1 UNK         0.0786 
     95 H95        27.5051  -32.1622  -41.2413 H         1 UNK         0.3172 
     96 H96        28.2955  -30.5547  -39.9564 H         1 UNK         0.0595 
     97 H97        25.8486  -30.9772  -38.1563 H         1 UNK         0.0839 
     98 H98        27.3781  -30.2531  -37.6878 H         1 UNK         0.0839 
     99 H99        27.3150  -31.9551  -38.1074 H         1 UNK         0.0839 
    100 H100       26.1100  -29.8907  -42.0407 H         1 UNK         0.2998 
    101 H101       24.9939  -28.2442  -42.9243 H         1 UNK         0.0822 
    102 H102       25.7025  -25.9061  -42.6404 H         1 UNK         0.0787 
    103 H103       27.1219  -26.9363  -42.7085 H         1 UNK         0.0787 
    104 H104       26.5663  -26.2965  -41.1618 H         1 UNK         0.0787 
    105 H105       23.9483  -29.5803  -40.4616 H         1 UNK         0.3055 
    106 H106       21.7332  -27.7509  -39.8477 H         1 UNK         0.1106 
    107 H107       23.5056  -27.0570  -38.2143 H         1 UNK         0.0828 
    108 H108       22.1613  -27.8251  -37.3930 H         1 UNK         0.0828 
    109 H109       23.6521  -28.7229  -37.6591 H         1 UNK         0.0828 
    110 H110       21.9320  -30.2684  -41.2794 H         1 UNK         0.2931 
    111 H111       20.8681  -32.1621  -41.5237 H         1 UNK         0.0412 
    112 H112       23.0582  -32.3372  -39.4910 H         1 UNK         0.3472 
    113 H113       22.6559  -33.7589  -38.5467 H         1 UNK         0.3472 
    114 H114       18.5691  -32.4109  -40.5995 H         1 UNK         0.0970 
    115 H115       18.8789  -31.1623  -39.4280 H         1 UNK         0.0970 
    116 H116       18.8525  -32.0564  -43.1810 H         1 UNK         0.0612 
    117 H117       17.1703  -31.8062  -42.7625 H         1 UNK         0.0612 
@<TRIPOS>BOND
     1    1    2 1    
     2    1   62 1    
     3    1   63 1    
     4    1   64 1    
     5    2    3 2    
     6    2    4 am   BACKBONE|DICT|INTERRES
     7    4    5 1    
     8    4   65 1    
     9    5    6 1    
    10    5   25 1    
    11    5   66 1    
    12    6    7 1    
    13    6   67 1    
    14    6   68 1    
    15    7    8 1    
    16    8    9 1    
    17    8   69 1    
    18    8   70 1    
    19    9   10 ar   
    20    9   14 ar   
    21   10   11 ar   
    22   10   71 1    
    23   11   12 ar   
    24   11   61 1    
    25   12   13 ar   
    26   12   72 1    
    27   13   14 ar   
    28   13   15 1    
    29   14   73 1    
    30   15   16 1    
    31   15   74 1    
    32   15   75 1    
    33   16   17 1    
    34   17   18 1    
    35   17   76 1    
    36   17   77 1    
    37   18   19 1    
    38   18   27 1    
    39   18   78 1    
    40   19   20 am   BACKBONE|DICT|INTERRES
    41   19   79 1    
    42   20   21 2    
    43   20   22 1    
    44   22   23 1    
    45   22   24 1    
    46   22   80 1    
    47   23   81 1    
    48   23   82 1    
    49   23   83 1    
    50   24   25 am   BACKBONE|DICT|INTERRES
    51   24   84 1    
    52   25   26 2    
    53   27   28 2    
    54   27   29 am   BACKBONE|DICT|INTERRES
    55   29   30 1    
    56   29   85 1    
    57   30   31 1    
    58   30   32 1    
    59   30   86 1    
    60   31   87 1    
    61   31   88 1    
    62   31   89 1    
    63   32   33 2    
    64   32   34 am   BACKBONE|DICT|INTERRES
    65   34   35 1    
    66   34   90 1    
    67   35   36 1    
    68   35   37 1    
    69   35   91 1    
    70   36   92 1    
    71   36   93 1    
    72   36   94 1    
    73   37   38 2    
    74   37   39 am   BACKBONE|DICT|INTERRES
    75   39   40 1    
    76   39   95 1    
    77   40   41 1    
    78   40   42 1    
    79   40   96 1    
    80   41   97 1    
    81   41   98 1    
    82   41   99 1    
    83   42   43 2    
    84   42   44 am   BACKBONE|DICT|INTERRES
    85   44   45 1    
    86   44  100 1    
    87   45   46 1    
    88   45   47 1    
    89   45  101 1    
    90   46  102 1    
    91   46  103 1    
    92   46  104 1    
    93   47   48 2    
    94   47   49 am   BACKBONE|DICT|INTERRES
    95   49   50 1    
    96   49  105 1    
    97   50   51 1    
    98   50   52 1    
    99   50  106 1    
   100   51  107 1    
   101   51  108 1    
   102   51  109 1    
   103   52   53 2    
   104   52   54 am   BACKBONE|DICT|INTERRES
   105   54   55 1    
   106   54  110 1    
   107   55   56 1    
   108   55   59 1    
   109   55  111 1    
   110   56   57 am   BACKBONE|DICT|INTERRES
   111   56   58 2    
   112   57  112 1    
   113   57  113 1    
   114   59   60 1    
   115   59  114 1    
   116   59  115 1    
   117   60   61 1    
   118   61  116 1    
   119   61  117 1    
@<TRIPOS>SUBSTRUCTURE
     1 UNK         1 GROUP             0       ****    0 ROOT    
