@<TRIPOS>MOLECULE
3R8
117   119    1
SMALL
USER_CHARGES


@<TRIPOS>ATOM
      1 CA         19.6240  -23.9911  -50.3431 C.3       0 UNK        -0.2013 
      2 C          20.2185  -24.4672  -49.0260 C.2       0 UNK         0.4866 
      3 O          21.0944  -23.8010  -48.4733 O.2       0 UNK        -0.5176 
      4 N          19.7557  -25.6184  -48.5221 N.am      1 UNK        -0.4884 
      5 CA         20.1622  -26.1887  -47.2338 C.3       1 UNK         0.0853 
      6 C6         19.7860  -27.6885  -47.1483 C.3       10 UNK        -0.0849 
      7 S7         20.8957  -28.6339  -46.0539 S.3       10 UNK        -0.2776 
      8 C8         20.0370  -30.2412  -46.0110 C.3       10 UNK         0.0316 
      9 C9         19.2059  -30.3886  -44.7471 C.ar      10 UNK        -0.0863 
     10 C10        19.6923  -31.1266  -43.6647 C.ar      10 UNK        -0.1009 
     11 C11        18.9416  -31.2492  -42.4918 C.ar      10 UNK        -0.0712 
     12 C12        17.6962  -30.6192  -42.4012 C.ar      10 UNK        -0.0894 
     13 C13        17.2069  -29.8678  -43.4754 C.ar      10 UNK        -0.0745 
     14 C14        17.9544  -29.7777  -44.6521 C.ar      10 UNK        -0.0972 
     15 C15        15.8991  -29.1014  -43.3598 C.3       10 UNK         0.0209 
     16 S16        16.1970  -27.3019  -43.3555 S.3       10 UNK        -0.2568 
     17 C17        17.0644  -27.0762  -41.7660 C.3       10 UNK        -0.0983 
     18 CA         18.6200  -27.1557  -41.8693 C.3       3 UNK         0.0876 
     19 N          19.2069  -26.2413  -42.8587 N.am      3 UNK        -0.4424 
     20 C          19.1281  -24.9033  -42.8772 C.2       2 UNK         0.4918 
     21 O          18.4566  -24.2341  -42.0903 O.2       2 UNK        -0.4875 
     22 CA         19.9576  -24.1705  -43.9487 C.3       2 UNK         0.0481 
     23 CB         21.2123  -23.5461  -43.3163 C.3       2 UNK        -0.1831 
     24 N          20.3606  -25.0150  -45.0796 N.am      2 UNK        -0.4498 
     25 C          19.5426  -25.3732  -46.0789 C.2       1 UNK         0.5027 
     26 O          18.3451  -25.0796  -46.1224 O.2       1 UNK        -0.4969 
     27 C          19.2951  -27.0321  -40.4819 C.2       3 UNK         0.5005 
     28 O          20.2389  -26.2553  -40.3090 O.2       3 UNK        -0.5279 
     29 N          18.8089  -27.8302  -39.5175 N.am      4 UNK        -0.4463 
     30 CA         19.1644  -27.9006  -38.0903 C.3       4 UNK         0.0283 
     31 CB         18.8799  -26.5644  -37.3769 C.3       4 UNK        -0.1875 
     32 C          20.5909  -28.3916  -37.7832 C.2       4 UNK         0.4949 
     33 O          20.7589  -29.2238  -36.8916 O.2       4 UNK        -0.5039 
     34 N          21.5820  -27.8769  -38.5127 N.am      5 UNK        -0.4663 
     35 CA         22.9963  -28.2107  -38.3968 C.3       5 UNK         0.0242 
     36 CB         23.6308  -27.4355  -37.2235 C.3       5 UNK        -0.1982 
     37 C          23.6807  -27.9444  -39.7442 C.2       5 UNK         0.5017 
     38 O          24.6224  -27.1516  -39.8083 O.2       5 UNK        -0.5012 
     39 N          23.1697  -28.5777  -40.8062 N.am      6 UNK        -0.4439 
     40 CA         23.6599  -28.4406  -42.1747 C.3       6 UNK         0.0297 
     41 CB         22.7238  -27.4997  -42.9505 C.3       6 UNK        -0.2006 
     42 C          23.6914  -29.8214  -42.8318 C.2       6 UNK         0.4892 
     43 O          22.7767  -30.6132  -42.6041 O.2       6 UNK        -0.5089 
     44 N          24.7235  -30.0718  -43.6507 N.am      7 UNK        -0.4243 
     45 CA         24.9308  -31.2740  -44.4690 C.3       7 UNK         0.0196 
     46 CB         24.0353  -31.2047  -45.7256 C.3       7 UNK        -0.2007 
     47 C          24.7674  -32.5781  -43.6614 C.2       7 UNK         0.5020 
     48 O          25.6304  -32.8866  -42.8392 O.2       7 UNK        -0.5147 
     49 N          23.6540  -33.2918  -43.8800 N.am      8 UNK        -0.4734 
     50 CA         23.2781  -34.5404  -43.2101 C.3       8 UNK         0.0238 
     51 CB         21.9761  -35.0681  -43.8353 C.3       8 UNK        -0.1912 
     52 C          23.1303  -34.4400  -41.6799 C.2       8 UNK         0.5038 
     53 O          23.3280  -35.4514  -41.0049 O.2       8 UNK        -0.5046 
     54 N          22.7991  -33.2489  -41.1646 N.am      9 UNK        -0.4200 
     55 CA         22.7416  -32.9377  -39.7267 C.3       9 UNK         0.0839 
     56 C          23.9197  -32.0439  -39.2455 C.2       9 UNK         0.5513 
     57 N          24.9173  -31.7452  -40.0701 N.am      9 UNK        -0.7519 
     58 O          23.9586  -31.6500  -38.0838 O.2       9 UNK        -0.4960 
     59 C59        21.3380  -32.4350  -39.2751 C.3       10 UNK        -0.0876 
     60 S60        20.6179  -31.0996  -40.2923 S.3       10 UNK        -0.2414 
     61 C61        19.4812  -32.0690  -41.3314 C.3       10 UNK         0.0169 
     62 H62        19.1545  -23.0166  -50.2117 H         1 UNK         0.0903 
     63 H63        20.4069  -23.8937  -51.0947 H         1 UNK         0.0903 
     64 H64        18.8717  -24.6811  -50.7249 H         1 UNK         0.0903 
     65 H65        19.0093  -26.1026  -49.0008 H         1 UNK         0.3096 
     66 H66        21.2502  -26.1017  -47.1795 H         1 UNK         0.1121 
     67 H67        19.8670  -28.1488  -48.1347 H         1 UNK         0.0849 
     68 H68        18.7464  -27.8211  -46.8456 H         1 UNK         0.0849 
     69 H69        19.4030  -30.3593  -46.8911 H         1 UNK         0.0865 
     70 H70        20.7734  -31.0421  -46.0707 H         1 UNK         0.0865 
     71 H71        20.6623  -31.5998  -43.7277 H         1 UNK         0.1346 
     72 H72        17.1202  -30.6981  -41.4894 H         1 UNK         0.1412 
     73 H73        17.5717  -29.1968  -45.4789 H         1 UNK         0.1426 
     74 H74        15.3503  -29.3861  -42.4608 H         1 UNK         0.0716 
     75 H75        15.2583  -29.3535  -44.2059 H         1 UNK         0.0716 
     76 H76        16.6749  -27.8237  -41.0739 H         1 UNK         0.0695 
     77 H77        16.7587  -26.1128  -41.3554 H         1 UNK         0.0695 
     78 H78        18.8926  -28.1492  -42.2216 H         1 UNK         0.0983 
     79 H79        19.7851  -26.6792  -43.5595 H         1 UNK         0.3095 
     80 H80        19.3405  -23.3558  -44.3340 H         1 UNK         0.0454 
     81 H81        21.8786  -24.3031  -42.9030 H         1 UNK         0.0851 
     82 H82        20.9432  -22.8740  -42.5001 H         1 UNK         0.0851 
     83 H83        21.7755  -22.9598  -44.0425 H         1 UNK         0.0851 
     84 H84        21.3321  -25.2887  -45.1186 H         1 UNK         0.2976 
     85 H85        18.0825  -28.4787  -39.7866 H         1 UNK         0.3116 
     86 H86        18.4881  -28.6432  -37.6634 H         1 UNK         0.0646 
     87 H87        19.5170  -25.7602  -37.7464 H         1 UNK         0.0847 
     88 H88        19.0592  -26.6506  -36.3044 H         1 UNK         0.0847 
     89 H89        17.8425  -26.2571  -37.5080 H         1 UNK         0.0847 
     90 H90        21.3280  -27.2020  -39.2353 H         1 UNK         0.3040 
     91 H91        23.0898  -29.2772  -38.1946 H         1 UNK         0.1015 
     92 H92        23.5451  -26.3571  -37.3615 H         1 UNK         0.0786 
     93 H93        24.6911  -27.6726  -37.1271 H         1 UNK         0.0786 
     94 H94        23.1574  -27.6907  -36.2754 H         1 UNK         0.0786 
     95 H95        22.4317  -29.2618  -40.6832 H         1 UNK         0.3172 
     96 H96        24.6710  -28.0280  -42.1792 H         1 UNK         0.0595 
     97 H97        23.0795  -27.3454  -43.9699 H         1 UNK         0.0839 
     98 H98        22.6608  -26.5236  -42.4708 H         1 UNK         0.0839 
     99 H99        21.7144  -27.9083  -43.0142 H         1 UNK         0.0839 
    100 H100       25.4392  -29.3638  -43.7378 H         1 UNK         0.2998 
    101 H101       25.9696  -31.2529  -44.8022 H         1 UNK         0.0822 
    102 H102       24.1673  -32.0824  -46.3600 H         1 UNK         0.0787 
    103 H103       22.9802  -31.1289  -45.4670 H         1 UNK         0.0787 
    104 H104       24.2821  -30.3331  -46.3322 H         1 UNK         0.0787 
    105 H105       22.9944  -32.9260  -44.5505 H         1 UNK         0.3055 
    106 H106       24.0722  -35.2646  -43.4046 H         1 UNK         0.1106 
    107 H107       21.6777  -36.0129  -43.3784 H         1 UNK         0.0828 
    108 H108       21.1509  -34.3673  -43.7014 H         1 UNK         0.0828 
    109 H109       22.0927  -35.2515  -44.9035 H         1 UNK         0.0828 
    110 H110       22.6847  -32.4508  -41.7837 H         1 UNK         0.2931 
    111 H111       22.9024  -33.8613  -39.1684 H         1 UNK         0.0412 
    112 H112       24.9520  -32.1275  -41.0070 H         1 UNK         0.3472 
    113 H113       25.6851  -31.1907  -39.7275 H         1 UNK         0.3472 
    114 H114       21.3628  -32.0941  -38.2383 H         1 UNK         0.0970 
    115 H115       20.6469  -33.2789  -39.2720 H         1 UNK         0.0970 
    116 H116       20.0009  -32.9457  -41.7205 H         1 UNK         0.0612 
    117 H117       18.6624  -32.4439  -40.7154 H         1 UNK         0.0612 
@<TRIPOS>BOND
     1    1    2 1    
     2    1   62 1    
     3    1   63 1    
     4    1   64 1    
     5    2    3 2    
     6    2    4 am   BACKBONE|DICT|INTERRES
     7    4    5 1    
     8    4   65 1    
     9    5    6 1    
    10    5   25 1    
    11    5   66 1    
    12    6    7 1    
    13    6   67 1    
    14    6   68 1    
    15    7    8 1    
    16    8    9 1    
    17    8   69 1    
    18    8   70 1    
    19    9   10 ar   
    20    9   14 ar   
    21   10   11 ar   
    22   10   71 1    
    23   11   12 ar   
    24   11   61 1    
    25   12   13 ar   
    26   12   72 1    
    27   13   14 ar   
    28   13   15 1    
    29   14   73 1    
    30   15   16 1    
    31   15   74 1    
    32   15   75 1    
    33   16   17 1    
    34   17   18 1    
    35   17   76 1    
    36   17   77 1    
    37   18   19 1    
    38   18   27 1    
    39   18   78 1    
    40   19   20 am   BACKBONE|DICT|INTERRES
    41   19   79 1    
    42   20   21 2    
    43   20   22 1    
    44   22   23 1    
    45   22   24 1    
    46   22   80 1    
    47   23   81 1    
    48   23   82 1    
    49   23   83 1    
    50   24   25 am   BACKBONE|DICT|INTERRES
    51   24   84 1    
    52   25   26 2    
    53   27   28 2    
    54   27   29 am   BACKBONE|DICT|INTERRES
    55   29   30 1    
    56   29   85 1    
    57   30   31 1    
    58   30   32 1    
    59   30   86 1    
    60   31   87 1    
    61   31   88 1    
    62   31   89 1    
    63   32   33 2    
    64   32   34 am   BACKBONE|DICT|INTERRES
    65   34   35 1    
    66   34   90 1    
    67   35   36 1    
    68   35   37 1    
    69   35   91 1    
    70   36   92 1    
    71   36   93 1    
    72   36   94 1    
    73   37   38 2    
    74   37   39 am   BACKBONE|DICT|INTERRES
    75   39   40 1    
    76   39   95 1    
    77   40   41 1    
    78   40   42 1    
    79   40   96 1    
    80   41   97 1    
    81   41   98 1    
    82   41   99 1    
    83   42   43 2    
    84   42   44 am   BACKBONE|DICT|INTERRES
    85   44   45 1    
    86   44  100 1    
    87   45   46 1    
    88   45   47 1    
    89   45  101 1    
    90   46  102 1    
    91   46  103 1    
    92   46  104 1    
    93   47   48 2    
    94   47   49 am   BACKBONE|DICT|INTERRES
    95   49   50 1    
    96   49  105 1    
    97   50   51 1    
    98   50   52 1    
    99   50  106 1    
   100   51  107 1    
   101   51  108 1    
   102   51  109 1    
   103   52   53 2    
   104   52   54 am   BACKBONE|DICT|INTERRES
   105   54   55 1    
   106   54  110 1    
   107   55   56 1    
   108   55   59 1    
   109   55  111 1    
   110   56   57 am   BACKBONE|DICT|INTERRES
   111   56   58 2    
   112   57  112 1    
   113   57  113 1    
   114   59   60 1    
   115   59  114 1    
   116   59  115 1    
   117   60   61 1    
   118   61  116 1    
   119   61  117 1    
@<TRIPOS>SUBSTRUCTURE
     1 UNK         1 GROUP             0       ****    0 ROOT    
