@<TRIPOS>MOLECULE
3R8
117   119    1
SMALL
USER_CHARGES


@<TRIPOS>ATOM
      1 CA         13.4031  -26.8982  -47.7983 C.3       0 UNK        -0.2013 
      2 C          14.7847  -26.5364  -48.3222 C.2       0 UNK         0.4866 
      3 O          15.0448  -26.6794  -49.5172 O.2       0 UNK        -0.5176 
      4 N          15.6708  -26.0681  -47.4391 N.am      1 UNK        -0.4884 
      5 CA         17.0341  -25.6334  -47.7391 C.3       1 UNK         0.0853 
      6 C6         17.9973  -26.8251  -48.0453 C.3       10 UNK        -0.0849 
      7 S7         18.7186  -27.6791  -46.5966 S.3       10 UNK        -0.2776 
      8 C8         17.4340  -28.9017  -46.2098 C.3       10 UNK         0.0316 
      9 C9         17.6109  -29.4168  -44.7915 C.ar      10 UNK        -0.0863 
     10 C10        18.3138  -30.6010  -44.5490 C.ar      10 UNK        -0.1009 
     11 C11        18.4752  -31.0747  -43.2433 C.ar      10 UNK        -0.0712 
     12 C12        17.9218  -30.3556  -42.1789 C.ar      10 UNK        -0.0894 
     13 C13        17.2323  -29.1614  -42.4084 C.ar      10 UNK        -0.0745 
     14 C14        17.0751  -28.6990  -43.7177 C.ar      10 UNK        -0.0972 
     15 C15        16.6497  -28.3834  -41.2384 C.3       10 UNK         0.0209 
     16 S16        17.8849  -27.2810  -40.4795 S.3       10 UNK        -0.2568 
     17 C17        17.8861  -25.8485  -41.6130 C.3       10 UNK        -0.0983 
     18 CA         19.1892  -25.7147  -42.4409 C.3       3 UNK         0.0876 
     19 N          18.9921  -24.7932  -43.5637 N.am      3 UNK        -0.4424 
     20 C          19.8778  -24.5357  -44.5347 C.2       2 UNK         0.4918 
     21 O          20.9741  -25.0893  -44.6376 O.2       2 UNK        -0.4875 
     22 CA         19.4321  -23.5177  -45.6021 C.3       2 UNK         0.0481 
     23 CB         20.6212  -22.7318  -46.1833 C.3       2 UNK        -0.1831 
     24 N          18.7342  -24.2067  -46.6876 N.am      2 UNK        -0.4498 
     25 C          17.4974  -24.7121  -46.5918 C.2       1 UNK         0.5027 
     26 O          16.7483  -24.5030  -45.6303 O.2       1 UNK        -0.4969 
     27 C          20.3851  -25.2760  -41.5652 C.2       3 UNK         0.5005 
     28 O          20.5428  -24.0815  -41.2951 O.2       3 UNK        -0.5279 
     29 N          21.1947  -26.2479  -41.1363 N.am      4 UNK        -0.4463 
     30 CA         22.3982  -26.0812  -40.3282 C.3       4 UNK         0.0283 
     31 CB         23.5569  -25.5718  -41.2103 C.3       4 UNK        -0.1875 
     32 C          22.7364  -27.4357  -39.6924 C.2       4 UNK         0.4949 
     33 O          22.0992  -28.4387  -40.0185 O.2       4 UNK        -0.5039 
     34 N          23.7449  -27.4492  -38.8115 N.am      5 UNK        -0.4663 
     35 CA         24.2569  -28.6661  -38.1679 C.3       5 UNK         0.0242 
     36 CB         25.0722  -28.2720  -36.9255 C.3       5 UNK        -0.1982 
     37 C          25.1021  -29.5540  -39.1041 C.2       5 UNK         0.5017 
     38 O          25.2803  -30.7386  -38.8128 O.2       5 UNK        -0.5012 
     39 N          25.6208  -28.9597  -40.1889 N.am      6 UNK        -0.4439 
     40 CA         26.4564  -29.5899  -41.2143 C.3       6 UNK         0.0297 
     41 CB         26.9002  -28.5108  -42.2162 C.3       6 UNK        -0.2006 
     42 C          25.7527  -30.7434  -41.9510 C.2       6 UNK         0.4892 
     43 O          24.5230  -30.7882  -41.9970 O.2       6 UNK        -0.5089 
     44 N          26.5586  -31.6546  -42.5173 N.am      7 UNK        -0.4243 
     45 CA         26.1435  -32.8576  -43.2589 C.3       7 UNK         0.0196 
     46 CB         25.4585  -32.4698  -44.5875 C.3       7 UNK        -0.2007 
     47 C          25.2942  -33.8374  -42.4200 C.2       7 UNK         0.5020 
     48 O          24.4720  -34.5678  -42.9741 O.2       7 UNK        -0.5147 
     49 N          25.5118  -33.8235  -41.0957 N.am      8 UNK        -0.4734 
     50 CA         24.7961  -34.5744  -40.0565 C.3       8 UNK         0.0238 
     51 CB         24.9853  -36.0966  -40.2361 C.3       8 UNK        -0.1912 
     52 C          23.3139  -34.1757  -39.8915 C.2       8 UNK         0.5038 
     53 O          22.5551  -34.9390  -39.2905 O.2       8 UNK        -0.5046 
     54 N          22.9252  -32.9912  -40.3858 N.am      9 UNK        -0.4200 
     55 CA         21.5834  -32.4157  -40.1969 C.3       9 UNK         0.0839 
     56 C          21.3217  -31.8561  -38.7678 C.2       9 UNK         0.5513 
     57 N          22.3206  -31.7283  -37.9019 N.am      9 UNK        -0.7519 
     58 O          20.1787  -31.5618  -38.4279 O.2       9 UNK        -0.4960 
     59 C59        21.2478  -31.3678  -41.2879 C.3       10 UNK        -0.0876 
     60 S60        21.0355  -32.1224  -42.9352 S.3       10 UNK        -0.2414 
     61 C61        19.2313  -32.3723  -42.9894 C.3       10 UNK         0.0169 
     62 H62        13.1914  -27.9491  -47.9939 H         1 UNK         0.0903 
     63 H63        13.3171  -26.7295  -46.7249 H         1 UNK         0.0903 
     64 H64        12.6430  -26.2983  -48.2981 H         1 UNK         0.0903 
     65 H65        15.4044  -25.8923  -46.4767 H         1 UNK         0.3096 
     66 H66        16.9796  -25.0023  -48.6292 H         1 UNK         0.1121 
     67 H67        18.8368  -26.4544  -48.6354 H         1 UNK         0.0849 
     68 H68        17.5128  -27.5612  -48.6884 H         1 UNK         0.0849 
     69 H69        16.4451  -28.4546  -46.3129 H         1 UNK         0.0865 
     70 H70        17.4795  -29.7201  -46.9299 H         1 UNK         0.0865 
     71 H71        18.7399  -31.1535  -45.3755 H         1 UNK         0.1346 
     72 H72        18.0332  -30.7195  -41.1665 H         1 UNK         0.1412 
     73 H73        16.5418  -27.7765  -43.9033 H         1 UNK         0.1426 
     74 H74        16.2959  -29.0822  -40.4788 H         1 UNK         0.0716 
     75 H75        15.7742  -27.8108  -41.5484 H         1 UNK         0.0716 
     76 H76        17.0298  -25.9376  -42.2828 H         1 UNK         0.0695 
     77 H77        17.7051  -24.9444  -41.0282 H         1 UNK         0.0695 
     78 H78        19.4198  -26.6880  -42.8813 H         1 UNK         0.0983 
     79 H79        18.1024  -24.3160  -43.5985 H         1 UNK         0.3095 
     80 H80        18.7535  -22.7985  -45.1381 H         1 UNK         0.0454 
     81 H81        21.3269  -23.3822  -46.7017 H         1 UNK         0.0851 
     82 H82        21.1714  -22.2201  -45.3927 H         1 UNK         0.0851 
     83 H83        20.2867  -21.9712  -46.8888 H         1 UNK         0.0851 
     84 H84        19.2962  -24.4543  -47.4893 H         1 UNK         0.2976 
     85 H85        20.9630  -27.2194  -41.3132 H         1 UNK         0.3116 
     86 H86        22.1964  -25.3669  -39.5274 H         1 UNK         0.0646 
     87 H87        23.7973  -26.2798  -42.0046 H         1 UNK         0.0847 
     88 H88        24.4637  -25.4112  -40.6268 H         1 UNK         0.0847 
     89 H89        23.3113  -24.6193  -41.6803 H         1 UNK         0.0847 
     90 H90        24.2051  -26.5807  -38.5764 H         1 UNK         0.3040 
     91 H91        23.4030  -29.2598  -37.8382 H         1 UNK         0.1015 
     92 H92        25.9400  -27.6648  -37.1863 H         1 UNK         0.0786 
     93 H93        25.4391  -29.1570  -36.4033 H         1 UNK         0.0786 
     94 H94        24.4668  -27.7082  -36.2155 H         1 UNK         0.0786 
     95 H95        25.3812  -27.9921  -40.3386 H         1 UNK         0.3172 
     96 H96        27.3400  -29.9915  -40.7141 H         1 UNK         0.0595 
     97 H97        27.5577  -28.9275  -42.9804 H         1 UNK         0.0839 
     98 H98        27.4515  -27.7101  -41.7225 H         1 UNK         0.0839 
     99 H99        26.0476  -28.0650  -42.7308 H         1 UNK         0.0839 
    100 H100       27.5576  -31.5283  -42.4226 H         1 UNK         0.2998 
    101 H101       27.0601  -33.3950  -43.5068 H         1 UNK         0.0822 
    102 H102       25.2860  -33.3480  -45.2107 H         1 UNK         0.0787 
    103 H103       24.4899  -31.9970  -44.4196 H         1 UNK         0.0787 
    104 H104       26.0734  -31.7800  -45.1655 H         1 UNK         0.0787 
    105 H105       26.2028  -33.1700  -40.7526 H         1 UNK         0.3055 
    106 H106       25.2717  -34.2992  -39.1135 H         1 UNK         0.1106 
    107 H107       24.6029  -36.6435  -39.3733 H         1 UNK         0.0828 
    108 H108       24.4578  -36.4711  -41.1137 H         1 UNK         0.0828 
    109 H109       26.0384  -36.3573  -40.3398 H         1 UNK         0.0828 
    110 H110       23.5936  -32.4101  -40.8787 H         1 UNK         0.2931 
    111 H111       20.8654  -33.2303  -40.3113 H         1 UNK         0.0412 
    112 H112       22.1246  -31.3918  -36.9728 H         1 UNK         0.3472 
    113 H113       23.2696  -31.9289  -38.1803 H         1 UNK         0.3472 
    114 H114       22.0430  -30.6262  -41.3542 H         1 UNK         0.0970 
    115 H115       20.3526  -30.8020  -41.0334 H         1 UNK         0.0970 
    116 H116       19.0030  -33.0857  -43.7826 H         1 UNK         0.0612 
    117 H117       18.8994  -32.8369  -42.0596 H         1 UNK         0.0612 
@<TRIPOS>BOND
     1    1    2 1    
     2    1   62 1    
     3    1   63 1    
     4    1   64 1    
     5    2    3 2    
     6    2    4 am   BACKBONE|DICT|INTERRES
     7    4    5 1    
     8    4   65 1    
     9    5    6 1    
    10    5   25 1    
    11    5   66 1    
    12    6    7 1    
    13    6   67 1    
    14    6   68 1    
    15    7    8 1    
    16    8    9 1    
    17    8   69 1    
    18    8   70 1    
    19    9   10 ar   
    20    9   14 ar   
    21   10   11 ar   
    22   10   71 1    
    23   11   12 ar   
    24   11   61 1    
    25   12   13 ar   
    26   12   72 1    
    27   13   14 ar   
    28   13   15 1    
    29   14   73 1    
    30   15   16 1    
    31   15   74 1    
    32   15   75 1    
    33   16   17 1    
    34   17   18 1    
    35   17   76 1    
    36   17   77 1    
    37   18   19 1    
    38   18   27 1    
    39   18   78 1    
    40   19   20 am   BACKBONE|DICT|INTERRES
    41   19   79 1    
    42   20   21 2    
    43   20   22 1    
    44   22   23 1    
    45   22   24 1    
    46   22   80 1    
    47   23   81 1    
    48   23   82 1    
    49   23   83 1    
    50   24   25 am   BACKBONE|DICT|INTERRES
    51   24   84 1    
    52   25   26 2    
    53   27   28 2    
    54   27   29 am   BACKBONE|DICT|INTERRES
    55   29   30 1    
    56   29   85 1    
    57   30   31 1    
    58   30   32 1    
    59   30   86 1    
    60   31   87 1    
    61   31   88 1    
    62   31   89 1    
    63   32   33 2    
    64   32   34 am   BACKBONE|DICT|INTERRES
    65   34   35 1    
    66   34   90 1    
    67   35   36 1    
    68   35   37 1    
    69   35   91 1    
    70   36   92 1    
    71   36   93 1    
    72   36   94 1    
    73   37   38 2    
    74   37   39 am   BACKBONE|DICT|INTERRES
    75   39   40 1    
    76   39   95 1    
    77   40   41 1    
    78   40   42 1    
    79   40   96 1    
    80   41   97 1    
    81   41   98 1    
    82   41   99 1    
    83   42   43 2    
    84   42   44 am   BACKBONE|DICT|INTERRES
    85   44   45 1    
    86   44  100 1    
    87   45   46 1    
    88   45   47 1    
    89   45  101 1    
    90   46  102 1    
    91   46  103 1    
    92   46  104 1    
    93   47   48 2    
    94   47   49 am   BACKBONE|DICT|INTERRES
    95   49   50 1    
    96   49  105 1    
    97   50   51 1    
    98   50   52 1    
    99   50  106 1    
   100   51  107 1    
   101   51  108 1    
   102   51  109 1    
   103   52   53 2    
   104   52   54 am   BACKBONE|DICT|INTERRES
   105   54   55 1    
   106   54  110 1    
   107   55   56 1    
   108   55   59 1    
   109   55  111 1    
   110   56   57 am   BACKBONE|DICT|INTERRES
   111   56   58 2    
   112   57  112 1    
   113   57  113 1    
   114   59   60 1    
   115   59  114 1    
   116   59  115 1    
   117   60   61 1    
   118   61  116 1    
   119   61  117 1    
@<TRIPOS>SUBSTRUCTURE
     1 UNK         1 GROUP             0       ****    0 ROOT    
