@<TRIPOS>MOLECULE
3R8
117   119    1
SMALL
USER_CHARGES


@<TRIPOS>ATOM
      1 CA         16.1339  -23.8390  -44.8028 C.3       0 UNK        -0.2013 
      2 C          17.2340  -24.8444  -45.1062 C.2       0 UNK         0.4866 
      3 O          17.7863  -25.4383  -44.1786 O.2       0 UNK        -0.5176 
      4 N          17.5561  -25.0326  -46.3958 N.am      1 UNK        -0.4884 
      5 CA         18.5699  -25.9592  -46.9226 C.3       1 UNK         0.0853 
      6 C6         18.1630  -27.4521  -46.7602 C.3       10 UNK        -0.0849 
      7 S7         16.5587  -27.9384  -47.4739 S.3       10 UNK        -0.2776 
      8 C8         16.6039  -29.7522  -47.2114 C.3       10 UNK         0.0316 
      9 C9         17.1545  -30.1283  -45.8384 C.ar      10 UNK        -0.0863 
     10 C10        18.4664  -30.5990  -45.7098 C.ar      10 UNK        -0.1009 
     11 C11        19.0143  -30.8403  -44.4467 C.ar      10 UNK        -0.0712 
     12 C12        18.2291  -30.6393  -43.3091 C.ar      10 UNK        -0.0894 
     13 C13        16.9186  -30.1628  -43.4206 C.ar      10 UNK        -0.0745 
     14 C14        16.3834  -29.9235  -44.6906 C.ar      10 UNK        -0.0972 
     15 C15        16.0793  -29.8672  -42.1800 C.3       10 UNK         0.0209 
     16 S16        16.9875  -29.0032  -40.8473 S.3       10 UNK        -0.2568 
     17 C17        17.7380  -27.5776  -41.7115 C.3       10 UNK        -0.0983 
     18 CA         19.2910  -27.6030  -41.6536 C.3       3 UNK         0.0876 
     19 N          19.8922  -26.9907  -42.8465 N.am      3 UNK        -0.4424 
     20 C          21.1834  -27.1045  -43.2085 C.2       2 UNK         0.4918 
     21 O          22.0350  -27.6549  -42.5087 O.2       2 UNK        -0.4875 
     22 CA         21.5817  -26.5276  -44.5845 C.3       2 UNK         0.0481 
     23 CB         22.7688  -27.2670  -45.2300 C.3       2 UNK        -0.1831 
     24 N          20.4410  -26.6151  -45.4856 N.am      2 UNK        -0.4498 
     25 C          19.9522  -25.6619  -46.2874 C.2       1 UNK         0.5027 
     26 O          20.5058  -24.5810  -46.4980 O.2       1 UNK        -0.4969 
     27 C          19.8148  -27.0102  -40.3280 C.2       3 UNK         0.5005 
     28 O          19.8167  -27.7066  -39.3111 O.2       3 UNK        -0.5279 
     29 N          20.2872  -25.7547  -40.3538 N.am      4 UNK        -0.4463 
     30 CA         20.8654  -25.0249  -39.2184 C.3       4 UNK         0.0283 
     31 CB         20.8189  -23.5162  -39.5250 C.3       4 UNK        -0.1875 
     32 C          22.2850  -25.5099  -38.8461 C.2       4 UNK         0.4949 
     33 O          23.2035  -24.6978  -38.7314 O.2       4 UNK        -0.5039 
     34 N          22.4369  -26.8324  -38.6876 N.am      5 UNK        -0.4663 
     35 CA         23.6488  -27.5866  -38.3359 C.3       5 UNK         0.0242 
     36 CB         24.1094  -27.2309  -36.9062 C.3       5 UNK        -0.1982 
     37 C          24.8009  -27.4848  -39.3581 C.2       5 UNK         0.5017 
     38 O          25.9253  -27.8709  -39.0343 O.2       5 UNK        -0.5012 
     39 N          24.5171  -26.9862  -40.5690 N.am      6 UNK        -0.4439 
     40 CA         25.4928  -26.8281  -41.6491 C.3       6 UNK         0.0297 
     41 CB         25.0535  -25.6810  -42.5733 C.3       6 UNK        -0.2006 
     42 C          25.7386  -28.1344  -42.4252 C.2       6 UNK         0.4892 
     43 O          26.8226  -28.2969  -42.9869 O.2       6 UNK        -0.5089 
     44 N          24.7589  -29.0467  -42.4217 N.am      7 UNK        -0.4243 
     45 CA         24.8707  -30.4073  -42.9378 C.3       7 UNK         0.0196 
     46 CB         24.2131  -30.4948  -44.3218 C.3       7 UNK        -0.2007 
     47 C          24.1925  -31.3579  -41.9469 C.2       7 UNK         0.5020 
     48 O          23.1485  -31.0185  -41.3845 O.2       7 UNK        -0.5147 
     49 N          24.7879  -32.5394  -41.7564 N.am      8 UNK        -0.4734 
     50 CA         24.3425  -33.5584  -40.8042 C.3       8 UNK         0.0238 
     51 CB         25.5748  -34.3309  -40.2946 C.3       8 UNK        -0.1912 
     52 C          23.2752  -34.4842  -41.4166 C.2       8 UNK         0.5038 
     53 O          23.5093  -35.6875  -41.5482 O.2       8 UNK        -0.5046 
     54 N          22.1233  -33.9092  -41.7845 N.am      9 UNK        -0.4200 
     55 CA         20.9507  -34.6523  -42.2831 C.3       9 UNK         0.0839 
     56 C          20.1862  -35.4564  -41.1897 C.2       9 UNK         0.5513 
     57 N          20.4241  -35.2304  -39.9028 N.am      9 UNK        -0.7519 
     58 O          19.3635  -36.3070  -41.5187 O.2       9 UNK        -0.4960 
     59 C59        19.9724  -33.7468  -43.0737 C.3       10 UNK        -0.0876 
     60 S60        20.7268  -33.0303  -44.5724 S.3       10 UNK        -0.2414 
     61 C61        20.4741  -31.2495  -44.3096 C.3       10 UNK         0.0169 
     62 H62        15.7266  -23.3921  -45.7094 H         1 UNK         0.0903 
     63 H63        15.3190  -24.3278  -44.2696 H         1 UNK         0.0903 
     64 H64        16.5218  -23.0388  -44.1732 H         1 UNK         0.0903 
     65 H65        17.0743  -24.4907  -47.0998 H         1 UNK         0.3096 
     66 H66        18.6698  -25.7502  -47.9890 H         1 UNK         0.1121 
     67 H67        18.9238  -28.0983  -47.2034 H         1 UNK         0.0849 
     68 H68        18.1063  -27.6976  -45.6985 H         1 UNK         0.0849 
     69 H69        17.2059  -30.2079  -47.9992 H         1 UNK         0.0865 
     70 H70        15.5972  -30.1564  -47.3272 H         1 UNK         0.0865 
     71 H71        19.0782  -30.7389  -46.5907 H         1 UNK         0.1346 
     72 H72        18.6507  -30.8147  -42.3296 H         1 UNK         0.1412 
     73 H73        15.3782  -29.5363  -44.7892 H         1 UNK         0.1426 
     74 H74        15.6908  -30.8076  -41.7875 H         1 UNK         0.0716 
     75 H75        15.2115  -29.2606  -42.4437 H         1 UNK         0.0716 
     76 H76        17.3345  -26.6511  -41.2982 H         1 UNK         0.0695 
     77 H77        17.3992  -27.5972  -42.7474 H         1 UNK         0.0695 
     78 H78        19.6178  -28.6449  -41.6659 H         1 UNK         0.0983 
     79 H79        19.2517  -26.4646  -43.4378 H         1 UNK         0.3095 
     80 H80        21.8570  -25.4839  -44.4222 H         1 UNK         0.0454 
     81 H81        22.5027  -28.2900  -45.4940 H         1 UNK         0.0851 
     82 H82        23.6329  -27.3170  -44.5700 H         1 UNK         0.0851 
     83 H83        23.0916  -26.7653  -46.1421 H         1 UNK         0.0851 
     84 H84        19.8916  -27.4566  -45.3816 H         1 UNK         0.2976 
     85 H85        20.2695  -25.2691  -41.2390 H         1 UNK         0.3116 
     86 H86        20.2351  -25.2018  -38.3443 H         1 UNK         0.0646 
     87 H87        21.4387  -23.2593  -40.3850 H         1 UNK         0.0847 
     88 H88        21.1806  -22.9328  -38.6771 H         1 UNK         0.0847 
     89 H89        19.8017  -23.1827  -39.7312 H         1 UNK         0.0847 
     90 H90        21.5956  -27.3911  -38.8224 H         1 UNK         0.3040 
     91 H91        23.3546  -28.6375  -38.3343 H         1 UNK         0.1015 
     92 H92        24.4815  -26.2078  -36.8441 H         1 UNK         0.0786 
     93 H93        24.9141  -27.8890  -36.5760 H         1 UNK         0.0786 
     94 H94        23.2951  -27.3361  -36.1892 H         1 UNK         0.0786 
     95 H95        23.5597  -26.7319  -40.7705 H         1 UNK         0.3172 
     96 H96        26.4514  -26.5392  -41.2124 H         1 UNK         0.0595 
     97 H97        24.0257  -25.7971  -42.9110 H         1 UNK         0.0839 
     98 H98        25.6890  -25.6190  -43.4579 H         1 UNK         0.0839 
     99 H99        25.1210  -24.7215  -42.0603 H         1 UNK         0.0839 
    100 H100       23.8840  -28.8345  -41.9543 H         1 UNK         0.2998 
    101 H101       25.9226  -30.6893  -43.0234 H         1 UNK         0.0822 
    102 H102       24.7194  -29.8524  -45.0424 H         1 UNK         0.0787 
    103 H103       24.2429  -31.5133  -44.7113 H         1 UNK         0.0787 
    104 H104       23.1693  -30.1905  -44.2753 H         1 UNK         0.0787 
    105 H105       25.6124  -32.7628  -42.2964 H         1 UNK         0.3055 
    106 H106       23.8841  -33.0700  -39.9407 H         1 UNK         0.1106 
    107 H107       26.0935  -34.8479  -41.1030 H         1 UNK         0.0828 
    108 H108       25.2880  -35.0828  -39.5580 H         1 UNK         0.0828 
    109 H109       26.2886  -33.6642  -39.8105 H         1 UNK         0.0828 
    110 H110       22.0248  -32.9080  -41.6727 H         1 UNK         0.2931 
    111 H111       21.3228  -35.4016  -42.9850 H         1 UNK         0.0412 
    112 H112       19.9232  -35.7627  -39.2083 H         1 UNK         0.3472 
    113 H113       21.0909  -34.5318  -39.6176 H         1 UNK         0.3472 
    114 H114       19.0980  -34.3137  -43.3999 H         1 UNK         0.0970 
    115 H115       19.5920  -32.9591  -42.4238 H         1 UNK         0.0970 
    116 H116       21.0610  -30.7067  -45.0510 H         1 UNK         0.0612 
    117 H117       20.8711  -30.9606  -43.3346 H         1 UNK         0.0612 
@<TRIPOS>BOND
     1    1    2 1    
     2    1   62 1    
     3    1   63 1    
     4    1   64 1    
     5    2    3 2    
     6    2    4 am   BACKBONE|DICT|INTERRES
     7    4    5 1    
     8    4   65 1    
     9    5    6 1    
    10    5   25 1    
    11    5   66 1    
    12    6    7 1    
    13    6   67 1    
    14    6   68 1    
    15    7    8 1    
    16    8    9 1    
    17    8   69 1    
    18    8   70 1    
    19    9   10 ar   
    20    9   14 ar   
    21   10   11 ar   
    22   10   71 1    
    23   11   12 ar   
    24   11   61 1    
    25   12   13 ar   
    26   12   72 1    
    27   13   14 ar   
    28   13   15 1    
    29   14   73 1    
    30   15   16 1    
    31   15   74 1    
    32   15   75 1    
    33   16   17 1    
    34   17   18 1    
    35   17   76 1    
    36   17   77 1    
    37   18   19 1    
    38   18   27 1    
    39   18   78 1    
    40   19   20 am   BACKBONE|DICT|INTERRES
    41   19   79 1    
    42   20   21 2    
    43   20   22 1    
    44   22   23 1    
    45   22   24 1    
    46   22   80 1    
    47   23   81 1    
    48   23   82 1    
    49   23   83 1    
    50   24   25 am   BACKBONE|DICT|INTERRES
    51   24   84 1    
    52   25   26 2    
    53   27   28 2    
    54   27   29 am   BACKBONE|DICT|INTERRES
    55   29   30 1    
    56   29   85 1    
    57   30   31 1    
    58   30   32 1    
    59   30   86 1    
    60   31   87 1    
    61   31   88 1    
    62   31   89 1    
    63   32   33 2    
    64   32   34 am   BACKBONE|DICT|INTERRES
    65   34   35 1    
    66   34   90 1    
    67   35   36 1    
    68   35   37 1    
    69   35   91 1    
    70   36   92 1    
    71   36   93 1    
    72   36   94 1    
    73   37   38 2    
    74   37   39 am   BACKBONE|DICT|INTERRES
    75   39   40 1    
    76   39   95 1    
    77   40   41 1    
    78   40   42 1    
    79   40   96 1    
    80   41   97 1    
    81   41   98 1    
    82   41   99 1    
    83   42   43 2    
    84   42   44 am   BACKBONE|DICT|INTERRES
    85   44   45 1    
    86   44  100 1    
    87   45   46 1    
    88   45   47 1    
    89   45  101 1    
    90   46  102 1    
    91   46  103 1    
    92   46  104 1    
    93   47   48 2    
    94   47   49 am   BACKBONE|DICT|INTERRES
    95   49   50 1    
    96   49  105 1    
    97   50   51 1    
    98   50   52 1    
    99   50  106 1    
   100   51  107 1    
   101   51  108 1    
   102   51  109 1    
   103   52   53 2    
   104   52   54 am   BACKBONE|DICT|INTERRES
   105   54   55 1    
   106   54  110 1    
   107   55   56 1    
   108   55   59 1    
   109   55  111 1    
   110   56   57 am   BACKBONE|DICT|INTERRES
   111   56   58 2    
   112   57  112 1    
   113   57  113 1    
   114   59   60 1    
   115   59  114 1    
   116   59  115 1    
   117   60   61 1    
   118   61  116 1    
   119   61  117 1    
@<TRIPOS>SUBSTRUCTURE
     1 UNK         1 GROUP             0       ****    0 ROOT    
