@<TRIPOS>MOLECULE
3R8
117   119    1
SMALL
USER_CHARGES


@<TRIPOS>ATOM
      1 CA         13.5866  -23.0739  -42.0511 C.3       0 UNK        -0.2013 
      2 C          13.9448  -24.2732  -42.9159 C.2       0 UNK         0.4866 
      3 O          13.3446  -24.4664  -43.9732 O.2       0 UNK        -0.5176 
      4 N          14.9210  -25.0801  -42.4770 N.am      1 UNK        -0.4884 
      5 CA         15.3925  -26.2810  -43.1832 C.3       1 UNK         0.0853 
      6 C6         16.1032  -27.2597  -42.2088 C.3       10 UNK        -0.0849 
      7 S7         15.8701  -29.0027  -42.6918 S.3       10 UNK        -0.2776 
      8 C8         17.0466  -29.8492  -41.5906 C.3       10 UNK         0.0316 
      9 C9         18.4909  -29.6754  -42.0400 C.ar      10 UNK        -0.0863 
     10 C10        18.9575  -30.3518  -43.1714 C.ar      10 UNK        -0.1009 
     11 C11        20.2944  -30.2440  -43.5647 C.ar      10 UNK        -0.0712 
     12 C12        21.1720  -29.4678  -42.8015 C.ar      10 UNK        -0.0894 
     13 C13        20.7187  -28.7847  -41.6689 C.ar      10 UNK        -0.0745 
     14 C14        19.3717  -28.8773  -41.3037 C.ar      10 UNK        -0.0972 
     15 C15        21.6904  -27.9861  -40.8102 C.3       10 UNK         0.0209 
     16 S16        22.5779  -26.7065  -41.7495 S.3       10 UNK        -0.2568 
     17 C17        21.2168  -25.6215  -42.3032 C.3       10 UNK        -0.0983 
     18 CA         20.9358  -25.7201  -43.8250 C.3       3 UNK         0.0876 
     19 N          19.6979  -25.0186  -44.1661 N.am      3 UNK        -0.4424 
     20 C          19.1110  -25.0003  -45.3703 C.2       2 UNK         0.4918 
     21 O          19.5414  -25.5917  -46.3623 O.2       2 UNK        -0.4875 
     22 CA         17.7889  -24.2126  -45.4382 C.3       2 UNK         0.0481 
     23 CB         17.1817  -24.1558  -46.8565 C.3       2 UNK        -0.1831 
     24 N          16.8193  -24.7203  -44.4580 N.am      2 UNK        -0.4498 
     25 C          16.2831  -25.9526  -44.4051 C.2       1 UNK         0.5027 
     26 O          16.4688  -26.8174  -45.2620 O.2       1 UNK        -0.4969 
     27 C          22.1339  -25.2039  -44.6523 C.2       3 UNK         0.5005 
     28 O          22.3056  -23.9903  -44.7975 O.2       3 UNK        -0.5279 
     29 N          22.9585  -26.1417  -45.1289 N.am      4 UNK        -0.4463 
     30 CA         24.2398  -25.8987  -45.7899 C.3       4 UNK         0.0283 
     31 CB         24.0260  -25.7247  -47.3064 C.3       4 UNK        -0.1875 
     32 C          25.2232  -27.0309  -45.4429 C.2       4 UNK         0.4949 
     33 O          26.0313  -27.4231  -46.2857 O.2       4 UNK        -0.5039 
     34 N          25.1195  -27.5585  -44.2161 N.am      5 UNK        -0.4663 
     35 CA         25.9101  -28.6732  -43.6989 C.3       5 UNK         0.0242 
     36 CB         25.3759  -30.0128  -44.2539 C.3       5 UNK        -0.1982 
     37 C          25.9335  -28.5862  -42.1639 C.2       5 UNK         0.5017 
     38 O          26.1708  -27.5005  -41.6311 O.2       5 UNK        -0.5012 
     39 N          25.6914  -29.7093  -41.4802 N.am      6 UNK        -0.4439 
     40 CA         25.6515  -29.8479  -40.0282 C.3       6 UNK         0.0297 
     41 CB         27.0860  -29.8958  -39.4643 C.3       6 UNK        -0.2006 
     42 C          24.8741  -31.1245  -39.6793 C.2       6 UNK         0.4892 
     43 O          24.5512  -31.9093  -40.5770 O.2       6 UNK        -0.5089 
     44 N          24.5894  -31.3020  -38.3796 N.am      7 UNK        -0.4243 
     45 CA         23.9602  -32.4798  -37.7572 C.3       7 UNK         0.0196 
     46 CB         24.9345  -33.6770  -37.7872 C.3       7 UNK        -0.2007 
     47 C          22.5765  -32.8400  -38.3370 C.2       7 UNK         0.5020 
     48 O          22.2134  -34.0169  -38.3776 O.2       7 UNK        -0.5147 
     49 N          21.8481  -31.8204  -38.8170 N.am      8 UNK        -0.4734 
     50 CA         20.5608  -31.9009  -39.5229 C.3       8 UNK         0.0238 
     51 CB         19.4357  -32.3101  -38.5491 C.3       8 UNK        -0.1912 
     52 C          20.5903  -32.7802  -40.7935 C.2       8 UNK         0.5038 
     53 O          19.5466  -33.3047  -41.1870 O.2       8 UNK        -0.5046 
     54 N          21.7824  -32.9553  -41.3865 N.am      9 UNK        -0.4200 
     55 CA         22.0755  -33.9111  -42.4667 C.3       9 UNK         0.0839 
     56 C          21.8623  -35.4074  -42.0724 C.2       9 UNK         0.5513 
     57 N          21.8560  -35.7634  -40.7921 N.am      9 UNK        -0.7519 
     58 O          21.7365  -36.2718  -42.9365 O.2       9 UNK        -0.4960 
     59 C59        21.4121  -33.5218  -43.8210 C.3       10 UNK        -0.0876 
     60 S60        22.1918  -32.0452  -44.5538 S.3       10 UNK        -0.2414 
     61 C61        20.7775  -30.9334  -44.8339 C.3       10 UNK         0.0169 
     62 H62        13.7357  -22.1504  -42.6098 H         1 UNK         0.0903 
     63 H63        12.5397  -23.1263  -41.7532 H         1 UNK         0.0903 
     64 H64        14.1936  -23.0253  -41.1472 H         1 UNK         0.0903 
     65 H65        15.3741  -24.8763  -41.5965 H         1 UNK         0.3096 
     66 H66        14.5043  -26.7796  -43.5795 H         1 UNK         0.1121 
     67 H67        17.1678  -27.0341  -42.1179 H         1 UNK         0.0849 
     68 H68        15.6907  -27.1612  -41.2032 H         1 UNK         0.0849 
     69 H69        16.9080  -29.4962  -40.5674 H         1 UNK         0.0865 
     70 H70        16.8088  -30.9141  -41.5756 H         1 UNK         0.0865 
     71 H71        18.2732  -30.9606  -43.7464 H         1 UNK         0.1346 
     72 H72        22.2112  -29.3958  -43.0896 H         1 UNK         0.1412 
     73 H73        19.0163  -28.3588  -40.4235 H         1 UNK         0.1426 
     74 H74        21.1780  -27.5152  -39.9698 H         1 UNK         0.0716 
     75 H75        22.4221  -28.6712  -40.3802 H         1 UNK         0.0716 
     76 H76        21.4605  -24.5951  -42.0221 H         1 UNK         0.0695 
     77 H77        20.3170  -25.8765  -41.7409 H         1 UNK         0.0695 
     78 H78        20.7671  -26.7703  -44.0741 H         1 UNK         0.0983 
     79 H79        19.2750  -24.4841  -43.4226 H         1 UNK         0.3095 
     80 H80        18.0205  -23.1880  -45.1430 H         1 UNK         0.0454 
     81 H81        17.8718  -23.6793  -47.5537 H         1 UNK         0.0851 
     82 H82        16.2575  -23.5784  -46.8691 H         1 UNK         0.0851 
     83 H83        16.9619  -25.1483  -47.2503 H         1 UNK         0.0851 
     84 H84        16.5795  -24.0870  -43.7081 H         1 UNK         0.2976 
     85 H85        22.7374  -27.1147  -44.9648 H         1 UNK         0.3116 
     86 H86        24.6797  -24.9805  -45.3951 H         1 UNK         0.0646 
     87 H87        23.3399  -24.9048  -47.5192 H         1 UNK         0.0847 
     88 H88        24.9651  -25.4976  -47.8125 H         1 UNK         0.0847 
     89 H89        23.6186  -26.6288  -47.7600 H         1 UNK         0.0847 
     90 H90        24.5038  -27.1198  -43.5418 H         1 UNK         0.3040 
     91 H91        26.9443  -28.5499  -44.0282 H         1 UNK         0.1015 
     92 H92        25.3680  -30.0185  -45.3439 H         1 UNK         0.0786 
     93 H93        24.3580  -30.2064  -43.9179 H         1 UNK         0.0786 
     94 H94        25.9988  -30.8524  -43.9429 H         1 UNK         0.0786 
     95 H95        25.4421  -30.5584  -41.9746 H         1 UNK         0.3172 
     96 H96        25.1150  -28.9963  -39.6043 H         1 UNK         0.0595 
     97 H97        27.6457  -30.7420  -39.8649 H         1 UNK         0.0839 
     98 H98        27.0856  -29.9900  -38.3779 H         1 UNK         0.0839 
     99 H99        27.6396  -28.9877  -39.7031 H         1 UNK         0.0839 
    100 H100       24.8766  -30.5790  -37.7335 H         1 UNK         0.2998 
    101 H101       23.7871  -32.2208  -36.7115 H         1 UNK         0.0822 
    102 H102       25.8997  -33.4146  -37.3541 H         1 UNK         0.0787 
    103 H103       24.5432  -34.5184  -37.2139 H         1 UNK         0.0787 
    104 H104       25.1081  -34.0292  -38.8048 H         1 UNK         0.0787 
    105 H105       22.2479  -30.8958  -38.7410 H         1 UNK         0.3055 
    106 H106       20.3419  -30.8928  -39.8652 H         1 UNK         0.1106 
    107 H107       19.4181  -31.6674  -37.6691 H         1 UNK         0.0828 
    108 H108       18.4573  -32.2299  -39.0247 H         1 UNK         0.0828 
    109 H109       19.5496  -33.3406  -38.2112 H         1 UNK         0.0828 
    110 H110       22.5960  -32.5011  -40.9870 H         1 UNK         0.2931 
    111 H111       23.1547  -33.8430  -42.6095 H         1 UNK         0.0412 
    112 H112       21.9688  -35.0753  -40.0543 H         1 UNK         0.3472 
    113 H113       21.7302  -36.7342  -40.5536 H         1 UNK         0.3472 
    114 H114       20.3383  -33.3711  -43.7038 H         1 UNK         0.0970 
    115 H115       21.5215  -34.3198  -44.5569 H         1 UNK         0.0970 
    116 H116       19.9718  -31.4919  -45.3126 H         1 UNK         0.0612 
    117 H117       21.0808  -30.1651  -45.5462 H         1 UNK         0.0612 
@<TRIPOS>BOND
     1    1    2 1    
     2    1   62 1    
     3    1   63 1    
     4    1   64 1    
     5    2    3 2    
     6    2    4 am   BACKBONE|DICT|INTERRES
     7    4    5 1    
     8    4   65 1    
     9    5    6 1    
    10    5   25 1    
    11    5   66 1    
    12    6    7 1    
    13    6   67 1    
    14    6   68 1    
    15    7    8 1    
    16    8    9 1    
    17    8   69 1    
    18    8   70 1    
    19    9   10 ar   
    20    9   14 ar   
    21   10   11 ar   
    22   10   71 1    
    23   11   12 ar   
    24   11   61 1    
    25   12   13 ar   
    26   12   72 1    
    27   13   14 ar   
    28   13   15 1    
    29   14   73 1    
    30   15   16 1    
    31   15   74 1    
    32   15   75 1    
    33   16   17 1    
    34   17   18 1    
    35   17   76 1    
    36   17   77 1    
    37   18   19 1    
    38   18   27 1    
    39   18   78 1    
    40   19   20 am   BACKBONE|DICT|INTERRES
    41   19   79 1    
    42   20   21 2    
    43   20   22 1    
    44   22   23 1    
    45   22   24 1    
    46   22   80 1    
    47   23   81 1    
    48   23   82 1    
    49   23   83 1    
    50   24   25 am   BACKBONE|DICT|INTERRES
    51   24   84 1    
    52   25   26 2    
    53   27   28 2    
    54   27   29 am   BACKBONE|DICT|INTERRES
    55   29   30 1    
    56   29   85 1    
    57   30   31 1    
    58   30   32 1    
    59   30   86 1    
    60   31   87 1    
    61   31   88 1    
    62   31   89 1    
    63   32   33 2    
    64   32   34 am   BACKBONE|DICT|INTERRES
    65   34   35 1    
    66   34   90 1    
    67   35   36 1    
    68   35   37 1    
    69   35   91 1    
    70   36   92 1    
    71   36   93 1    
    72   36   94 1    
    73   37   38 2    
    74   37   39 am   BACKBONE|DICT|INTERRES
    75   39   40 1    
    76   39   95 1    
    77   40   41 1    
    78   40   42 1    
    79   40   96 1    
    80   41   97 1    
    81   41   98 1    
    82   41   99 1    
    83   42   43 2    
    84   42   44 am   BACKBONE|DICT|INTERRES
    85   44   45 1    
    86   44  100 1    
    87   45   46 1    
    88   45   47 1    
    89   45  101 1    
    90   46  102 1    
    91   46  103 1    
    92   46  104 1    
    93   47   48 2    
    94   47   49 am   BACKBONE|DICT|INTERRES
    95   49   50 1    
    96   49  105 1    
    97   50   51 1    
    98   50   52 1    
    99   50  106 1    
   100   51  107 1    
   101   51  108 1    
   102   51  109 1    
   103   52   53 2    
   104   52   54 am   BACKBONE|DICT|INTERRES
   105   54   55 1    
   106   54  110 1    
   107   55   56 1    
   108   55   59 1    
   109   55  111 1    
   110   56   57 am   BACKBONE|DICT|INTERRES
   111   56   58 2    
   112   57  112 1    
   113   57  113 1    
   114   59   60 1    
   115   59  114 1    
   116   59  115 1    
   117   60   61 1    
   118   61  116 1    
   119   61  117 1    
@<TRIPOS>SUBSTRUCTURE
     1 UNK         1 GROUP             0       ****    0 ROOT    
