@<TRIPOS>MOLECULE
3R8
117   119    1
SMALL
USER_CHARGES


@<TRIPOS>ATOM
      1 CA         18.0919  -26.8004  -39.2995 C.3       0 UNK        -0.2013 
      2 C          17.8715  -25.9569  -40.5459 C.2       0 UNK         0.4866 
      3 O          17.8065  -24.7312  -40.4551 O.2       0 UNK        -0.5176 
      4 N          17.7528  -26.6063  -41.7109 N.am      1 UNK        -0.4884 
      5 CA         17.5027  -25.9644  -43.0098 C.3       1 UNK         0.0853 
      6 C6         17.0377  -26.9904  -44.0650 C.3       10 UNK        -0.0849 
      7 S7         15.4720  -27.8454  -43.6526 S.3       10 UNK        -0.2776 
      8 C8         15.9828  -29.5335  -43.1439 C.3       10 UNK         0.0316 
      9 C9         17.0653  -30.1852  -44.0061 C.ar      10 UNK        -0.0863 
     10 C10        18.0175  -31.0105  -43.3981 C.ar      10 UNK        -0.1009 
     11 C11        19.0694  -31.5559  -44.1412 C.ar      10 UNK        -0.0712 
     12 C12        19.1779  -31.2552  -45.5006 C.ar      10 UNK        -0.0894 
     13 C13        18.2540  -30.4046  -46.1118 C.ar      10 UNK        -0.0745 
     14 C14        17.1657  -29.9286  -45.3789 C.ar      10 UNK        -0.0972 
     15 C15        18.4814  -29.9096  -47.5309 C.3       10 UNK         0.0209 
     16 S16        19.2487  -28.2501  -47.5164 S.3       10 UNK        -0.2568 
     17 C17        20.9464  -28.6459  -46.9794 C.3       10 UNK        -0.0983 
     18 CA         21.7848  -27.4014  -46.5881 C.3       3 UNK         0.0876 
     19 N          21.3006  -26.7603  -45.3582 N.am      3 UNK        -0.4424 
     20 C          21.5978  -25.5068  -44.9835 C.2       2 UNK         0.4918 
     21 O          22.1701  -24.7003  -45.7196 O.2       2 UNK        -0.4875 
     22 CA         21.2490  -25.1129  -43.5337 C.3       2 UNK         0.0481 
     23 CB         21.4161  -23.6041  -43.2529 C.3       2 UNK        -0.1831 
     24 N          19.9352  -25.6004  -43.1017 N.am      2 UNK        -0.4498 
     25 C          18.7352  -25.2162  -43.5636 C.2       1 UNK         0.5027 
     26 O          18.5707  -24.3393  -44.4126 O.2       1 UNK        -0.4969 
     27 C          23.2673  -27.7768  -46.3773 C.2       3 UNK         0.5005 
     28 O          23.5645  -28.9119  -46.0007 O.2       3 UNK        -0.5279 
     29 N          24.1607  -26.7884  -46.5290 N.am      4 UNK        -0.4463 
     30 CA         25.6045  -26.7960  -46.2412 C.3       4 UNK         0.0283 
     31 CB         26.3513  -27.8982  -47.0181 C.3       4 UNK        -0.1875 
     32 C          25.9433  -26.8393  -44.7379 C.2       4 UNK         0.4949 
     33 O          26.8611  -26.1359  -44.3154 O.2       4 UNK        -0.5039 
     34 N          25.1932  -27.6211  -43.9549 N.am      5 UNK        -0.4663 
     35 CA         25.2491  -27.6780  -42.4978 C.3       5 UNK         0.0242 
     36 CB         26.0049  -28.9434  -42.0587 C.3       5 UNK        -0.1982 
     37 C          23.8150  -27.6916  -41.9597 C.2       5 UNK         0.5017 
     38 O          22.9643  -28.3862  -42.5201 O.2       5 UNK        -0.5012 
     39 N          23.5717  -26.9313  -40.8848 N.am      6 UNK        -0.4439 
     40 CA         22.2873  -26.8988  -40.1778 C.3       6 UNK         0.0297 
     41 CB         22.1062  -25.5267  -39.5091 C.3       6 UNK        -0.2006 
     42 C          22.1681  -28.0293  -39.1425 C.2       6 UNK         0.4892 
     43 O          21.0655  -28.5273  -38.9169 O.2       6 UNK        -0.5089 
     44 N          23.3000  -28.4246  -38.5435 N.am      7 UNK        -0.4243 
     45 CA         23.4082  -29.5203  -37.5803 C.3       7 UNK         0.0196 
     46 CB         24.5584  -29.2126  -36.6027 C.3       7 UNK        -0.2007 
     47 C          23.6013  -30.8533  -38.3226 C.2       7 UNK         0.5020 
     48 O          24.6809  -31.4447  -38.2683 O.2       7 UNK        -0.5147 
     49 N          22.5584  -31.2829  -39.0364 N.am      8 UNK        -0.4734 
     50 CA         22.5249  -32.4961  -39.8474 C.3       8 UNK         0.0238 
     51 CB         23.1269  -32.1980  -41.2352 C.3       8 UNK        -0.1912 
     52 C          21.0769  -32.9899  -39.9580 C.2       8 UNK         0.5038 
     53 O          20.1496  -32.2301  -39.6654 O.2       8 UNK        -0.5046 
     54 N          20.9146  -34.2412  -40.4085 N.am      9 UNK        -0.4200 
     55 CA         19.6251  -34.9156  -40.6601 C.3       9 UNK         0.0839 
     56 C          18.7764  -35.2012  -39.3824 C.2       9 UNK         0.5513 
     57 N          19.3548  -35.1801  -38.1875 N.am      9 UNK        -0.7519 
     58 O          17.5833  -35.4802  -39.4724 O.2       9 UNK        -0.4960 
     59 C59        18.7939  -34.2468  -41.7963 C.3       10 UNK        -0.0876 
     60 S60        19.7007  -34.1564  -43.3803 S.3       10 UNK        -0.2414 
     61 C61        20.1435  -32.3935  -43.4659 C.3       10 UNK         0.0169 
     62 H62        18.9395  -26.4218  -38.7299 H         1 UNK         0.0903 
     63 H63        17.2100  -26.7626  -38.6608 H         1 UNK         0.0903 
     64 H64        18.2927  -27.8439  -39.5425 H         1 UNK         0.0903 
     65 H65        17.7898  -27.6152  -41.7234 H         1 UNK         0.3096 
     66 H66        16.7118  -25.2226  -42.8767 H         1 UNK         0.1121 
     67 H67        17.8417  -27.7032  -44.2419 H         1 UNK         0.0849 
     68 H68        16.8727  -26.4969  -45.0255 H         1 UNK         0.0849 
     69 H69        16.3159  -29.4810  -42.1064 H         1 UNK         0.0865 
     70 H70        15.1029  -30.1779  -43.1466 H         1 UNK         0.0865 
     71 H71        17.9587  -31.2029  -42.3361 H         1 UNK         0.1346 
     72 H72        20.0184  -31.6320  -46.0674 H         1 UNK         0.1412 
     73 H73        16.4526  -29.2739  -45.8608 H         1 UNK         0.1426 
     74 H74        17.5289  -29.8583  -48.0603 H         1 UNK         0.0716 
     75 H75        19.1102  -30.6032  -48.0915 H         1 UNK         0.0716 
     76 H76        21.4235  -29.1867  -47.7993 H         1 UNK         0.0695 
     77 H77        20.9092  -29.3375  -46.1383 H         1 UNK         0.0695 
     78 H78        21.7309  -26.6867  -47.4127 H         1 UNK         0.0983 
     79 H79        20.8561  -27.3716  -44.6897 H         1 UNK         0.3095 
     80 H80        21.9759  -25.6284  -42.9088 H         1 UNK         0.0454 
     81 H81        21.1616  -23.3604  -42.2217 H         1 UNK         0.0851 
     82 H82        20.7904  -22.9952  -43.9058 H         1 UNK         0.0851 
     83 H83        22.4483  -23.2911  -43.4140 H         1 UNK         0.0851 
     84 H84        19.9411  -26.3301  -42.4037 H         1 UNK         0.2976 
     85 H85        23.7806  -25.8723  -46.7407 H         1 UNK         0.3116 
     86 H86        25.9730  -25.8378  -46.6115 H         1 UNK         0.0646 
     87 H87        26.0866  -28.8977  -46.6723 H         1 UNK         0.0847 
     88 H88        27.4299  -27.7932  -46.8947 H         1 UNK         0.0847 
     89 H89        26.1407  -27.8447  -48.0861 H         1 UNK         0.0847 
     90 H90        24.4551  -28.1708  -44.3888 H         1 UNK         0.3040 
     91 H91        25.7657  -26.7980  -42.1077 H         1 UNK         0.1015 
     92 H92        25.5214  -29.8492  -42.4279 H         1 UNK         0.0786 
     93 H93        26.0499  -29.0175  -40.9713 H         1 UNK         0.0786 
     94 H94        27.0308  -28.9386  -42.4273 H         1 UNK         0.0786 
     95 H95        24.3175  -26.3660  -40.5033 H         1 UNK         0.3172 
     96 H96        21.4759  -27.0293  -40.8964 H         1 UNK         0.0595 
     97 H97        22.8857  -25.3263  -38.7729 H         1 UNK         0.0839 
     98 H98        21.1487  -25.4663  -38.9910 H         1 UNK         0.0839 
     99 H99        22.1240  -24.7220  -40.2441 H         1 UNK         0.0839 
    100 H100       24.1656  -27.9851  -38.8170 H         1 UNK         0.2998 
    101 H101       22.4862  -29.5927  -36.9988 H         1 UNK         0.0822 
    102 H102       24.3757  -28.2874  -36.0558 H         1 UNK         0.0787 
    103 H103       24.6650  -30.0084  -35.8642 H         1 UNK         0.0787 
    104 H104       25.5152  -29.1143  -37.1173 H         1 UNK         0.0787 
    105 H105       21.6898  -30.7563  -39.0204 H         1 UNK         0.3055 
    106 H106       23.1086  -33.2772  -39.3544 H         1 UNK         0.1106 
    107 H107       23.0617  -33.0639  -41.8952 H         1 UNK         0.0828 
    108 H108       22.6138  -31.3702  -41.7268 H         1 UNK         0.0828 
    109 H109       24.1812  -31.9316  -41.1590 H         1 UNK         0.0828 
    110 H110       21.7339  -34.7929  -40.6179 H         1 UNK         0.2931 
    111 H111       19.8982  -35.9086  -41.0191 H         1 UNK         0.0412 
    112 H112       20.3351  -34.9670  -38.0963 H         1 UNK         0.3472 
    113 H113       18.8019  -35.3768  -37.3677 H         1 UNK         0.3472 
    114 H114       18.4574  -33.2567  -41.4911 H         1 UNK         0.0970 
    115 H115       17.8850  -34.8195  -41.9885 H         1 UNK         0.0970 
    116 H116       21.0841  -32.3010  -44.0111 H         1 UNK         0.0612 
    117 H117       20.3386  -31.9996  -42.4704 H         1 UNK         0.0612 
@<TRIPOS>BOND
     1    1    2 1    
     2    1   62 1    
     3    1   63 1    
     4    1   64 1    
     5    2    3 2    
     6    2    4 am   BACKBONE|DICT|INTERRES
     7    4    5 1    
     8    4   65 1    
     9    5    6 1    
    10    5   25 1    
    11    5   66 1    
    12    6    7 1    
    13    6   67 1    
    14    6   68 1    
    15    7    8 1    
    16    8    9 1    
    17    8   69 1    
    18    8   70 1    
    19    9   10 ar   
    20    9   14 ar   
    21   10   11 ar   
    22   10   71 1    
    23   11   12 ar   
    24   11   61 1    
    25   12   13 ar   
    26   12   72 1    
    27   13   14 ar   
    28   13   15 1    
    29   14   73 1    
    30   15   16 1    
    31   15   74 1    
    32   15   75 1    
    33   16   17 1    
    34   17   18 1    
    35   17   76 1    
    36   17   77 1    
    37   18   19 1    
    38   18   27 1    
    39   18   78 1    
    40   19   20 am   BACKBONE|DICT|INTERRES
    41   19   79 1    
    42   20   21 2    
    43   20   22 1    
    44   22   23 1    
    45   22   24 1    
    46   22   80 1    
    47   23   81 1    
    48   23   82 1    
    49   23   83 1    
    50   24   25 am   BACKBONE|DICT|INTERRES
    51   24   84 1    
    52   25   26 2    
    53   27   28 2    
    54   27   29 am   BACKBONE|DICT|INTERRES
    55   29   30 1    
    56   29   85 1    
    57   30   31 1    
    58   30   32 1    
    59   30   86 1    
    60   31   87 1    
    61   31   88 1    
    62   31   89 1    
    63   32   33 2    
    64   32   34 am   BACKBONE|DICT|INTERRES
    65   34   35 1    
    66   34   90 1    
    67   35   36 1    
    68   35   37 1    
    69   35   91 1    
    70   36   92 1    
    71   36   93 1    
    72   36   94 1    
    73   37   38 2    
    74   37   39 am   BACKBONE|DICT|INTERRES
    75   39   40 1    
    76   39   95 1    
    77   40   41 1    
    78   40   42 1    
    79   40   96 1    
    80   41   97 1    
    81   41   98 1    
    82   41   99 1    
    83   42   43 2    
    84   42   44 am   BACKBONE|DICT|INTERRES
    85   44   45 1    
    86   44  100 1    
    87   45   46 1    
    88   45   47 1    
    89   45  101 1    
    90   46  102 1    
    91   46  103 1    
    92   46  104 1    
    93   47   48 2    
    94   47   49 am   BACKBONE|DICT|INTERRES
    95   49   50 1    
    96   49  105 1    
    97   50   51 1    
    98   50   52 1    
    99   50  106 1    
   100   51  107 1    
   101   51  108 1    
   102   51  109 1    
   103   52   53 2    
   104   52   54 am   BACKBONE|DICT|INTERRES
   105   54   55 1    
   106   54  110 1    
   107   55   56 1    
   108   55   59 1    
   109   55  111 1    
   110   56   57 am   BACKBONE|DICT|INTERRES
   111   56   58 2    
   112   57  112 1    
   113   57  113 1    
   114   59   60 1    
   115   59  114 1    
   116   59  115 1    
   117   60   61 1    
   118   61  116 1    
   119   61  117 1    
@<TRIPOS>SUBSTRUCTURE
     1 UNK         1 GROUP             0       ****    0 ROOT    
