@<TRIPOS>MOLECULE
3R8
117   119    1
SMALL
USER_CHARGES


@<TRIPOS>ATOM
      1 CA         18.0768  -28.8323  -38.9297 C.3       0 UNK        -0.2013 
      2 C          18.4257  -28.6039  -40.3921 C.2       0 UNK         0.4866 
      3 O          17.5518  -28.6984  -41.2541 O.2       0 UNK        -0.5176 
      4 N          19.6976  -28.3001  -40.6840 N.am      1 UNK        -0.4884 
      5 CA         20.2060  -28.0261  -42.0310 C.3       1 UNK         0.0853 
      6 C6         21.7085  -28.3937  -42.1472 C.3       10 UNK        -0.0849 
      7 S7         22.3668  -28.3693  -43.8553 S.3       10 UNK        -0.2776 
      8 C8         22.2379  -30.1136  -44.3632 C.3       10 UNK         0.0316 
      9 C9         20.7842  -30.4789  -44.5856 C.ar      10 UNK        -0.0863 
     10 C10        20.0561  -31.1003  -43.5735 C.ar      10 UNK        -0.1009 
     11 C11        18.6899  -31.3396  -43.7237 C.ar      10 UNK        -0.0712 
     12 C12        18.0478  -30.9353  -44.9014 C.ar      10 UNK        -0.0894 
     13 C13        18.7733  -30.3184  -45.9300 C.ar      10 UNK        -0.0745 
     14 C14        20.1492  -30.1287  -45.7762 C.ar      10 UNK        -0.0972 
     15 C15        18.0790  -29.8511  -47.2042 C.3       10 UNK         0.0209 
     16 S16        17.5466  -28.1046  -47.1124 S.3       10 UNK        -0.2568 
     17 C17        19.0968  -27.1913  -47.4536 C.3       10 UNK        -0.0983 
     18 CA         19.1840  -25.7931  -46.7848 C.3       3 UNK         0.0876 
     19 N          18.7847  -25.8287  -45.3762 N.am      3 UNK        -0.4424 
     20 C          18.4677  -24.7620  -44.6296 C.2       2 UNK         0.4918 
     21 O          18.4743  -23.6046  -45.0487 O.2       2 UNK        -0.4875 
     22 CA         18.0710  -25.0336  -43.1659 C.3       2 UNK         0.0481 
     23 CB         16.5422  -25.0141  -43.0119 C.3       2 UNK        -0.1831 
     24 N          18.5870  -26.3090  -42.6615 N.am      2 UNK        -0.4498 
     25 C          19.8790  -26.5746  -42.4282 C.2       1 UNK         0.5027 
     26 O          20.7719  -25.7329  -42.5110 O.2       1 UNK        -0.4969 
     27 C          20.6001  -25.2024  -46.9852 C.2       3 UNK         0.5005 
     28 O          20.8874  -24.6916  -48.0693 O.2       3 UNK        -0.5279 
     29 N          21.4620  -25.3002  -45.9624 N.am      4 UNK        -0.4463 
     30 CA         22.8566  -24.8621  -45.9731 C.3       4 UNK         0.0283 
     31 CB         23.7365  -25.8972  -46.7107 C.3       4 UNK        -0.1875 
     32 C          23.2786  -24.5786  -44.5223 C.2       4 UNK         0.4949 
     33 O          22.7177  -23.6682  -43.9117 O.2       4 UNK        -0.5039 
     34 N          24.2347  -25.3510  -43.9927 N.am      5 UNK        -0.4663 
     35 CA         24.6469  -25.3640  -42.5911 C.3       5 UNK         0.0242 
     36 CB         25.5342  -24.1470  -42.2654 C.3       5 UNK        -0.1982 
     37 C          25.3938  -26.6784  -42.3293 C.2       5 UNK         0.5017 
     38 O          26.3243  -26.9922  -43.0750 O.2       5 UNK        -0.5012 
     39 N          24.9808  -27.4084  -41.2872 N.am      6 UNK        -0.4439 
     40 CA         25.4884  -28.7055  -40.8342 C.3       6 UNK         0.0297 
     41 CB         25.3808  -29.7828  -41.9356 C.3       6 UNK        -0.2006 
     42 C          24.6598  -29.1302  -39.6123 C.2       6 UNK         0.4892 
     43 O          23.6268  -28.5152  -39.3263 O.2       6 UNK        -0.5089 
     44 N          25.1029  -30.1923  -38.9287 N.am      7 UNK        -0.4243 
     45 CA         24.4560  -30.7800  -37.7503 C.3       7 UNK         0.0196 
     46 CB         25.5096  -31.5728  -36.9531 C.3       7 UNK        -0.2007 
     47 C          23.2164  -31.6310  -38.1064 C.2       7 UNK         0.5020 
     48 O          23.1717  -32.8197  -37.7841 O.2       7 UNK        -0.5147 
     49 N          22.2298  -30.9947  -38.7524 N.am      8 UNK        -0.4734 
     50 CA         20.9349  -31.5438  -39.1799 C.3       8 UNK         0.0238 
     51 CB         20.0600  -31.8825  -37.9508 C.3       8 UNK        -0.1912 
     52 C          21.0597  -32.6997  -40.1959 C.2       8 UNK         0.5038 
     53 O          22.0337  -32.7441  -40.9508 O.2       8 UNK        -0.5046 
     54 N          20.0497  -33.5752  -40.2393 N.am      9 UNK        -0.4200 
     55 CA         19.9598  -34.7463  -41.1173 C.3       9 UNK         0.0839 
     56 C          19.1210  -35.8727  -40.4573 C.2       9 UNK         0.5513 
     57 N          19.1595  -37.0790  -41.0067 N.am      9 UNK        -0.7519 
     58 O          18.4375  -35.6672  -39.4549 O.2       9 UNK        -0.4960 
     59 C59        19.5020  -34.3866  -42.5614 C.3       10 UNK        -0.0876 
     60 S60        17.7765  -33.7875  -42.7271 S.3       10 UNK        -0.2414 
     61 C61        17.9130  -31.9755  -42.5796 C.3       10 UNK         0.0169 
     62 H62        17.3415  -28.0979  -38.6019 H         1 UNK         0.0903 
     63 H63        17.6473  -29.8249  -38.7979 H         1 UNK         0.0903 
     64 H64        18.9499  -28.7508  -38.2826 H         1 UNK         0.0903 
     65 H65        20.3591  -28.1609  -39.9329 H         1 UNK         0.3096 
     66 H66        19.6602  -28.6534  -42.7354 H         1 UNK         0.1121 
     67 H67        21.8858  -29.3834  -41.7239 H         1 UNK         0.0849 
     68 H68        22.3007  -27.7069  -41.5443 H         1 UNK         0.0849 
     69 H69        22.6919  -30.7666  -43.6168 H         1 UNK         0.0865 
     70 H70        22.8030  -30.2606  -45.2847 H         1 UNK         0.0865 
     71 H71        20.5495  -31.3618  -42.6502 H         1 UNK         0.1346 
     72 H72        16.9834  -31.0916  -45.0118 H         1 UNK         0.1412 
     73 H73        20.7307  -29.6744  -46.5647 H         1 UNK         0.1426 
     74 H74        17.2012  -30.4717  -47.3904 H         1 UNK         0.0716 
     75 H75        18.7334  -29.9894  -48.0664 H         1 UNK         0.0716 
     76 H76        19.1931  -27.0926  -48.5365 H         1 UNK         0.0695 
     77 H77        19.9426  -27.7954  -47.1380 H         1 UNK         0.0695 
     78 H78        18.4860  -25.1314  -47.3026 H         1 UNK         0.0983 
     79 H79        18.7041  -26.7464  -44.9647 H         1 UNK         0.3095 
     80 H80        18.4881  -24.2307  -42.5546 H         1 UNK         0.0454 
     81 H81        16.0668  -25.8037  -43.5954 H         1 UNK         0.0851 
     82 H82        16.1279  -24.0637  -43.3514 H         1 UNK         0.0851 
     83 H83        16.2461  -25.1410  -41.9705 H         1 UNK         0.0851 
     84 H84        17.9148  -27.0493  -42.4852 H         1 UNK         0.2976 
     85 H85        21.1339  -25.6698  -45.0786 H         1 UNK         0.3116 
     86 H86        22.9241  -23.9114  -46.5059 H         1 UNK         0.0646 
     87 H87        24.7861  -25.6002  -46.7064 H         1 UNK         0.0847 
     88 H88        23.4411  -25.9887  -47.7559 H         1 UNK         0.0847 
     89 H89        23.6641  -26.8894  -46.2638 H         1 UNK         0.0847 
     90 H90        24.6443  -26.0853  -44.5559 H         1 UNK         0.3040 
     91 H91        23.7491  -25.3314  -41.9689 H         1 UNK         0.1015 
     92 H92        24.9940  -23.2098  -42.3987 H         1 UNK         0.0786 
     93 H93        26.4208  -24.1154  -42.8999 H         1 UNK         0.0786 
     94 H94        25.8736  -24.1787  -41.2293 H         1 UNK         0.0786 
     95 H95        24.2177  -27.0739  -40.7097 H         1 UNK         0.3172 
     96 H96        26.5297  -28.5838  -40.5308 H         1 UNK         0.0595 
     97 H97        24.3455  -29.9488  -42.2258 H         1 UNK         0.0839 
     98 H98        25.7749  -30.7404  -41.5940 H         1 UNK         0.0839 
     99 H99        25.9413  -29.5202  -42.8317 H         1 UNK         0.0839 
    100 H100       25.9372  -30.6590  -39.2546 H         1 UNK         0.2998 
    101 H101       24.1057  -29.9678  -37.1093 H         1 UNK         0.0822 
    102 H102       26.3425  -30.9365  -36.6531 H         1 UNK         0.0787 
    103 H103       25.0790  -31.9883  -36.0408 H         1 UNK         0.0787 
    104 H104       25.9131  -32.4046  -37.5320 H         1 UNK         0.0787 
    105 H105       22.4170  -30.0290  -39.0067 H         1 UNK         0.3055 
    106 H106       20.4393  -30.7432  -39.7254 H         1 UNK         0.1106 
    107 H107       19.0244  -32.0753  -38.2326 H         1 UNK         0.0828 
    108 H108       20.4287  -32.7618  -37.4209 H         1 UNK         0.0828 
    109 H109       20.0410  -31.0551  -37.2413 H         1 UNK         0.0828 
    110 H110       19.2985  -33.5110  -39.5657 H         1 UNK         0.2931 
    111 H111       20.9698  -35.1555  -41.1889 H         1 UNK         0.0412 
    112 H112       19.7186  -37.2645  -41.8249 H         1 UNK         0.3472 
    113 H113       18.6189  -37.8225  -40.5921 H         1 UNK         0.3472 
    114 H114       20.1936  -33.6720  -43.0015 H         1 UNK         0.0970 
    115 H115       19.5915  -35.2692  -43.1963 H         1 UNK         0.0970 
    116 H116       18.3709  -31.7227  -41.6227 H         1 UNK         0.0612 
    117 H117       16.9076  -31.5531  -42.5470 H         1 UNK         0.0612 
@<TRIPOS>BOND
     1    1    2 1    
     2    1   62 1    
     3    1   63 1    
     4    1   64 1    
     5    2    3 2    
     6    2    4 am   BACKBONE|DICT|INTERRES
     7    4    5 1    
     8    4   65 1    
     9    5    6 1    
    10    5   25 1    
    11    5   66 1    
    12    6    7 1    
    13    6   67 1    
    14    6   68 1    
    15    7    8 1    
    16    8    9 1    
    17    8   69 1    
    18    8   70 1    
    19    9   10 ar   
    20    9   14 ar   
    21   10   11 ar   
    22   10   71 1    
    23   11   12 ar   
    24   11   61 1    
    25   12   13 ar   
    26   12   72 1    
    27   13   14 ar   
    28   13   15 1    
    29   14   73 1    
    30   15   16 1    
    31   15   74 1    
    32   15   75 1    
    33   16   17 1    
    34   17   18 1    
    35   17   76 1    
    36   17   77 1    
    37   18   19 1    
    38   18   27 1    
    39   18   78 1    
    40   19   20 am   BACKBONE|DICT|INTERRES
    41   19   79 1    
    42   20   21 2    
    43   20   22 1    
    44   22   23 1    
    45   22   24 1    
    46   22   80 1    
    47   23   81 1    
    48   23   82 1    
    49   23   83 1    
    50   24   25 am   BACKBONE|DICT|INTERRES
    51   24   84 1    
    52   25   26 2    
    53   27   28 2    
    54   27   29 am   BACKBONE|DICT|INTERRES
    55   29   30 1    
    56   29   85 1    
    57   30   31 1    
    58   30   32 1    
    59   30   86 1    
    60   31   87 1    
    61   31   88 1    
    62   31   89 1    
    63   32   33 2    
    64   32   34 am   BACKBONE|DICT|INTERRES
    65   34   35 1    
    66   34   90 1    
    67   35   36 1    
    68   35   37 1    
    69   35   91 1    
    70   36   92 1    
    71   36   93 1    
    72   36   94 1    
    73   37   38 2    
    74   37   39 am   BACKBONE|DICT|INTERRES
    75   39   40 1    
    76   39   95 1    
    77   40   41 1    
    78   40   42 1    
    79   40   96 1    
    80   41   97 1    
    81   41   98 1    
    82   41   99 1    
    83   42   43 2    
    84   42   44 am   BACKBONE|DICT|INTERRES
    85   44   45 1    
    86   44  100 1    
    87   45   46 1    
    88   45   47 1    
    89   45  101 1    
    90   46  102 1    
    91   46  103 1    
    92   46  104 1    
    93   47   48 2    
    94   47   49 am   BACKBONE|DICT|INTERRES
    95   49   50 1    
    96   49  105 1    
    97   50   51 1    
    98   50   52 1    
    99   50  106 1    
   100   51  107 1    
   101   51  108 1    
   102   51  109 1    
   103   52   53 2    
   104   52   54 am   BACKBONE|DICT|INTERRES
   105   54   55 1    
   106   54  110 1    
   107   55   56 1    
   108   55   59 1    
   109   55  111 1    
   110   56   57 am   BACKBONE|DICT|INTERRES
   111   56   58 2    
   112   57  112 1    
   113   57  113 1    
   114   59   60 1    
   115   59  114 1    
   116   59  115 1    
   117   60   61 1    
   118   61  116 1    
   119   61  117 1    
@<TRIPOS>SUBSTRUCTURE
     1 UNK         1 GROUP             0       ****    0 ROOT    
