@<TRIPOS>MOLECULE
3R8
117   119    1
SMALL
USER_CHARGES


@<TRIPOS>ATOM
      1 CA         13.2475  -23.8264  -44.5261 C.3       0 UNK        -0.2013 
      2 C          14.6655  -24.3700  -44.4394 C.2       0 UNK         0.4866 
      3 O          15.3746  -24.0696  -43.4786 O.2       0 UNK        -0.5176 
      4 N          15.0849  -25.1532  -45.4440 N.am      1 UNK        -0.4884 
      5 CA         16.3806  -25.8397  -45.6017 C.3       1 UNK         0.0853 
      6 C6         16.7535  -26.7908  -44.4339 C.3       10 UNK        -0.0849 
      7 S7         15.4989  -28.0503  -44.0225 S.3       10 UNK        -0.2776 
      8 C8         16.4963  -29.5862  -43.9553 C.3       10 UNK         0.0316 
      9 C9         17.7997  -29.5027  -43.1523 C.ar      10 UNK        -0.0863 
     10 C10        18.8627  -30.3387  -43.5085 C.ar      10 UNK        -0.1009 
     11 C11        20.0783  -30.2870  -42.8206 C.ar      10 UNK        -0.0712 
     12 C12        20.2421  -29.3676  -41.7806 C.ar      10 UNK        -0.0894 
     13 C13        19.1930  -28.5216  -41.4118 C.ar      10 UNK        -0.0745 
     14 C14        17.9671  -28.6177  -42.0783 C.ar      10 UNK        -0.0972 
     15 C15        19.3717  -27.5113  -40.2863 C.3       10 UNK         0.0209 
     16 S16        19.2784  -25.7897  -40.8860 S.3       10 UNK        -0.2568 
     17 C17        20.9346  -25.5189  -41.6091 C.3       10 UNK        -0.0983 
     18 CA         20.9686  -25.7120  -43.1494 C.3       3 UNK         0.0876 
     19 N          19.9940  -24.8823  -43.8703 N.am      3 UNK        -0.4424 
     20 C          20.0171  -23.5557  -44.0734 C.2       2 UNK         0.4918 
     21 O          20.9112  -22.8127  -43.6683 O.2       2 UNK        -0.4875 
     22 CA         18.8261  -22.9295  -44.8328 C.3       2 UNK         0.0481 
     23 CB         19.2766  -22.2702  -46.1522 C.3       2 UNK        -0.1831 
     24 N          17.6895  -23.8426  -45.0299 N.am      2 UNK        -0.4498 
     25 C          17.5753  -24.8951  -45.8522 C.2       1 UNK         0.5027 
     26 O          18.4058  -25.1916  -46.7103 O.2       1 UNK        -0.4969 
     27 C          22.3849  -25.5578  -43.7458 C.2       3 UNK         0.5005 
     28 O          23.3126  -25.1230  -43.0593 O.2       3 UNK        -0.5279 
     29 N          22.5153  -25.9013  -45.0376 N.am      4 UNK        -0.4463 
     30 CA         23.7774  -25.8838  -45.7910 C.3       4 UNK         0.0283 
     31 CB         23.4783  -26.1060  -47.2824 C.3       4 UNK        -0.1875 
     32 C          24.8139  -26.9102  -45.2898 C.2       4 UNK         0.4949 
     33 O          26.0096  -26.7259  -45.5185 O.2       4 UNK        -0.5039 
     34 N          24.3362  -27.9521  -44.6034 N.am      5 UNK        -0.4663 
     35 CA         25.1151  -28.8974  -43.8118 C.3       5 UNK         0.0242 
     36 CB         25.0170  -30.2911  -44.4567 C.3       5 UNK        -0.1982 
     37 C          24.5330  -28.9068  -42.3906 C.2       5 UNK         0.5017 
     38 O          23.4148  -28.4261  -42.1847 O.2       5 UNK        -0.5012 
     39 N          25.2887  -29.4654  -41.4377 N.am      6 UNK        -0.4439 
     40 CA         24.8567  -29.6590  -40.0505 C.3       6 UNK         0.0297 
     41 CB         26.0569  -30.1309  -39.2130 C.3       6 UNK        -0.2006 
     42 C          23.7056  -30.6737  -39.9468 C.2       6 UNK         0.4892 
     43 O          23.6244  -31.5872  -40.7688 O.2       6 UNK        -0.5089 
     44 N          22.8768  -30.5325  -38.9023 N.am      7 UNK        -0.4243 
     45 CA         21.6894  -31.3564  -38.6204 C.3       7 UNK         0.0196 
     46 CB         20.9501  -30.7648  -37.4091 C.3       7 UNK        -0.2007 
     47 C          21.9516  -32.8649  -38.4183 C.2       7 UNK         0.5020 
     48 O          21.0013  -33.6474  -38.4094 O.2       7 UNK        -0.5147 
     49 N          23.2273  -33.2592  -38.3064 N.am      8 UNK        -0.4734 
     50 CA         23.7078  -34.6432  -38.3645 C.3       8 UNK         0.0238 
     51 CB         25.1823  -34.6692  -37.9269 C.3       8 UNK        -0.1912 
     52 C          23.5381  -35.3126  -39.7477 C.2       8 UNK         0.5038 
     53 O          23.7790  -36.5160  -39.8533 O.2       8 UNK        -0.5046 
     54 N          23.1342  -34.5430  -40.7702 N.am      9 UNK        -0.4200 
     55 CA         22.7889  -34.9904  -42.1294 C.3       9 UNK         0.0839 
     56 C          21.7127  -36.1147  -42.2301 C.2       9 UNK         0.5513 
     57 N          20.8505  -36.3008  -41.2370 N.am      9 UNK        -0.7519 
     58 O          21.6669  -36.8300  -43.2278 O.2       9 UNK        -0.4960 
     59 C59        22.4214  -33.7827  -43.0364 C.3       10 UNK        -0.0876 
     60 S60        20.9402  -32.8722  -42.4643 S.3       10 UNK        -0.2414 
     61 C61        21.2073  -31.2324  -43.1997 C.3       10 UNK         0.0169 
     62 H62        12.7336  -24.1645  -45.4258 H         1 UNK         0.0903 
     63 H63        12.6687  -24.1534  -43.6627 H         1 UNK         0.0903 
     64 H64        13.2632  -22.7369  -44.5331 H         1 UNK         0.0903 
     65 H65        14.4405  -25.3235  -46.2044 H         1 UNK         0.3096 
     66 H66        16.2801  -26.4500  -46.5013 H         1 UNK         0.1121 
     67 H67        17.6875  -27.3013  -44.6766 H         1 UNK         0.0849 
     68 H68        16.9521  -26.2246  -43.5217 H         1 UNK         0.0849 
     69 H69        16.7185  -29.8805  -44.9824 H         1 UNK         0.0865 
     70 H70        15.8803  -30.3826  -43.5359 H         1 UNK         0.0865 
     71 H71        18.7442  -31.0439  -44.3202 H         1 UNK         0.1346 
     72 H72        21.1853  -29.3169  -41.2549 H         1 UNK         0.1412 
     73 H73        17.1544  -27.9735  -41.7731 H         1 UNK         0.1426 
     74 H74        20.3141  -27.6683  -39.7590 H         1 UNK         0.0716 
     75 H75        18.5825  -27.6662  -39.5493 H         1 UNK         0.0716 
     76 H76        21.6455  -26.1926  -41.1267 H         1 UNK         0.0695 
     77 H77        21.2506  -24.5075  -41.3475 H         1 UNK         0.0695 
     78 H78        20.6819  -26.7479  -43.3394 H         1 UNK         0.0983 
     79 H79        19.2083  -25.3815  -44.2545 H         1 UNK         0.3095 
     80 H80        18.4444  -22.1363  -44.1884 H         1 UNK         0.0454 
     81 H81        18.4348  -21.8277  -46.6844 H         1 UNK         0.0851 
     82 H82        19.7640  -22.9799  -46.8209 H         1 UNK         0.0851 
     83 H83        19.9934  -21.4710  -45.9596 H         1 UNK         0.0851 
     84 H84        16.9342  -23.7412  -44.3518 H         1 UNK         0.2976 
     85 H85        21.6951  -26.2107  -45.5401 H         1 UNK         0.3116 
     86 H86        24.2200  -24.8921  -45.6754 H         1 UNK         0.0646 
     87 H87        24.3942  -26.0646  -47.8737 H         1 UNK         0.0847 
     88 H88        22.8089  -25.3394  -47.6733 H         1 UNK         0.0847 
     89 H89        23.0195  -27.0790  -47.4626 H         1 UNK         0.0847 
     90 H90        23.3472  -27.9599  -44.3940 H         1 UNK         0.3040 
     91 H91        26.1609  -28.5862  -43.7562 H         1 UNK         0.1015 
     92 H92        25.4297  -30.2871  -45.4657 H         1 UNK         0.0786 
     93 H93        23.9845  -30.6357  -44.5211 H         1 UNK         0.0786 
     94 H94        25.5730  -31.0334  -43.8826 H         1 UNK         0.0786 
     95 H95        26.1753  -29.8735  -41.6957 H         1 UNK         0.3172 
     96 H96        24.5121  -28.6971  -39.6645 H         1 UNK         0.0595 
     97 H97        26.4374  -31.0934  -39.5585 H         1 UNK         0.0839 
     98 H98        25.7836  -30.2472  -38.1634 H         1 UNK         0.0839 
     99 H99        26.8760  -29.4125  -39.2522 H         1 UNK         0.0839 
    100 H100       23.0476  -29.7721  -38.2595 H         1 UNK         0.2998 
    101 H101       21.0327  -31.2768  -39.4895 H         1 UNK         0.0822 
    102 H102       21.5683  -30.7856  -36.5107 H         1 UNK         0.0787 
    103 H103       20.6517  -29.7321  -37.5910 H         1 UNK         0.0787 
    104 H104       20.0404  -31.3267  -37.1919 H         1 UNK         0.0787 
    105 H105       23.9346  -32.5398  -38.3361 H         1 UNK         0.3055 
    106 H106       23.1247  -35.2330  -37.6538 H         1 UNK         0.1106 
    107 H107       25.5692  -35.6891  -37.9122 H         1 UNK         0.0828 
    108 H108       25.3064  -34.2653  -36.9219 H         1 UNK         0.0828 
    109 H109       25.8138  -34.0915  -38.6031 H         1 UNK         0.0828 
    110 H110       23.0239  -33.5480  -40.6071 H         1 UNK         0.2931 
    111 H111       23.7054  -35.4242  -42.5331 H         1 UNK         0.0412 
    112 H112       20.8716  -35.6975  -40.4289 H         1 UNK         0.3472 
    113 H113       20.1596  -37.0308  -41.3082 H         1 UNK         0.3472 
    114 H114       23.2651  -33.0917  -43.0772 H         1 UNK         0.0970 
    115 H115       22.2573  -34.1087  -44.0652 H         1 UNK         0.0970 
    116 H116       22.1641  -30.8345  -42.8630 H         1 UNK         0.0612 
    117 H117       21.2702  -31.3245  -44.2849 H         1 UNK         0.0612 
@<TRIPOS>BOND
     1    1    2 1    
     2    1   62 1    
     3    1   63 1    
     4    1   64 1    
     5    2    3 2    
     6    2    4 am   BACKBONE|DICT|INTERRES
     7    4    5 1    
     8    4   65 1    
     9    5    6 1    
    10    5   25 1    
    11    5   66 1    
    12    6    7 1    
    13    6   67 1    
    14    6   68 1    
    15    7    8 1    
    16    8    9 1    
    17    8   69 1    
    18    8   70 1    
    19    9   10 ar   
    20    9   14 ar   
    21   10   11 ar   
    22   10   71 1    
    23   11   12 ar   
    24   11   61 1    
    25   12   13 ar   
    26   12   72 1    
    27   13   14 ar   
    28   13   15 1    
    29   14   73 1    
    30   15   16 1    
    31   15   74 1    
    32   15   75 1    
    33   16   17 1    
    34   17   18 1    
    35   17   76 1    
    36   17   77 1    
    37   18   19 1    
    38   18   27 1    
    39   18   78 1    
    40   19   20 am   BACKBONE|DICT|INTERRES
    41   19   79 1    
    42   20   21 2    
    43   20   22 1    
    44   22   23 1    
    45   22   24 1    
    46   22   80 1    
    47   23   81 1    
    48   23   82 1    
    49   23   83 1    
    50   24   25 am   BACKBONE|DICT|INTERRES
    51   24   84 1    
    52   25   26 2    
    53   27   28 2    
    54   27   29 am   BACKBONE|DICT|INTERRES
    55   29   30 1    
    56   29   85 1    
    57   30   31 1    
    58   30   32 1    
    59   30   86 1    
    60   31   87 1    
    61   31   88 1    
    62   31   89 1    
    63   32   33 2    
    64   32   34 am   BACKBONE|DICT|INTERRES
    65   34   35 1    
    66   34   90 1    
    67   35   36 1    
    68   35   37 1    
    69   35   91 1    
    70   36   92 1    
    71   36   93 1    
    72   36   94 1    
    73   37   38 2    
    74   37   39 am   BACKBONE|DICT|INTERRES
    75   39   40 1    
    76   39   95 1    
    77   40   41 1    
    78   40   42 1    
    79   40   96 1    
    80   41   97 1    
    81   41   98 1    
    82   41   99 1    
    83   42   43 2    
    84   42   44 am   BACKBONE|DICT|INTERRES
    85   44   45 1    
    86   44  100 1    
    87   45   46 1    
    88   45   47 1    
    89   45  101 1    
    90   46  102 1    
    91   46  103 1    
    92   46  104 1    
    93   47   48 2    
    94   47   49 am   BACKBONE|DICT|INTERRES
    95   49   50 1    
    96   49  105 1    
    97   50   51 1    
    98   50   52 1    
    99   50  106 1    
   100   51  107 1    
   101   51  108 1    
   102   51  109 1    
   103   52   53 2    
   104   52   54 am   BACKBONE|DICT|INTERRES
   105   54   55 1    
   106   54  110 1    
   107   55   56 1    
   108   55   59 1    
   109   55  111 1    
   110   56   57 am   BACKBONE|DICT|INTERRES
   111   56   58 2    
   112   57  112 1    
   113   57  113 1    
   114   59   60 1    
   115   59  114 1    
   116   59  115 1    
   117   60   61 1    
   118   61  116 1    
   119   61  117 1    
@<TRIPOS>SUBSTRUCTURE
     1 UNK         1 GROUP             0       ****    0 ROOT    
