@<TRIPOS>MOLECULE
3R8
117   119    1
SMALL
USER_CHARGES


@<TRIPOS>ATOM
      1 CA         15.9803  -22.9066  -41.0361 C.3       0 UNK        -0.2013 
      2 C          16.0634  -23.8678  -42.2125 C.2       0 UNK         0.4866 
      3 O          15.0825  -24.0333  -42.9385 O.2       0 UNK        -0.5176 
      4 N          17.2260  -24.4972  -42.4085 N.am      1 UNK        -0.4884 
      5 CA         17.4870  -25.4666  -43.4712 C.3       1 UNK         0.0853 
      6 C6         17.0333  -26.9145  -43.1258 C.3       10 UNK        -0.0849 
      7 S7         17.3650  -27.5154  -41.4229 S.3       10 UNK        -0.2776 
      8 C8         18.8763  -28.5330  -41.5424 C.3       10 UNK         0.0316 
      9 C9         18.7787  -29.6499  -42.5739 C.ar      10 UNK        -0.0863 
     10 C10        18.2595  -30.9042  -42.2391 C.ar      10 UNK        -0.1009 
     11 C11        18.1533  -31.9055  -43.2112 C.ar      10 UNK        -0.0712 
     12 C12        18.5302  -31.6305  -44.5320 C.ar      10 UNK        -0.0894 
     13 C13        19.0518  -30.3807  -44.8772 C.ar      10 UNK        -0.0745 
     14 C14        19.2177  -29.4198  -43.8780 C.ar      10 UNK        -0.0972 
     15 C15        19.4313  -30.0605  -46.3204 C.3       10 UNK         0.0209 
     16 S16        18.7750  -28.4388  -46.8508 S.3       10 UNK        -0.2568 
     17 C17        20.0292  -27.8766  -48.0557 C.3       10 UNK        -0.0983 
     18 CA         21.1440  -26.9703  -47.4597 C.3       3 UNK         0.0876 
     19 N          20.6067  -25.9124  -46.5935 N.am      3 UNK        -0.4424 
     20 C          21.3051  -24.8966  -46.0664 C.2       2 UNK         0.4918 
     21 O          22.5114  -24.7337  -46.2497 O.2       2 UNK        -0.4875 
     22 CA         20.5476  -23.8775  -45.1902 C.3       2 UNK         0.0481 
     23 CB         20.4202  -22.5350  -45.9288 C.3       2 UNK        -0.1831 
     24 N          19.2152  -24.2941  -44.7339 N.am      2 UNK        -0.4498 
     25 C          18.9546  -25.3165  -43.9066 C.2       1 UNK         0.5027 
     26 O          19.8236  -26.0728  -43.4766 O.2       1 UNK        -0.4969 
     27 C          22.2689  -27.8097  -46.8147 C.2       3 UNK         0.5005 
     28 O          23.1620  -28.2593  -47.5352 O.2       3 UNK        -0.5279 
     29 N          22.2154  -28.0103  -45.4908 N.am      4 UNK        -0.4463 
     30 CA         23.1853  -28.7997  -44.7285 C.3       4 UNK         0.0283 
     31 CB         22.9990  -30.3118  -44.9864 C.3       4 UNK        -0.1875 
     32 C          23.0960  -28.4524  -43.2381 C.2       4 UNK         0.4949 
     33 O          23.1035  -29.3552  -42.4019 O.2       4 UNK        -0.5039 
     34 N          23.0133  -27.1528  -42.9194 N.am      5 UNK        -0.4663 
     35 CA         22.8086  -26.6239  -41.5620 C.3       5 UNK         0.0242 
     36 CB         22.7103  -25.0914  -41.6267 C.3       5 UNK        -0.1982 
     37 C          23.8643  -27.0482  -40.5227 C.2       5 UNK         0.5017 
     38 O          23.5428  -27.1246  -39.3369 O.2       5 UNK        -0.5012 
     39 N          25.0921  -27.3259  -40.9823 N.am      6 UNK        -0.4439 
     40 CA         26.1987  -27.8206  -40.1600 C.3       6 UNK         0.0297 
     41 CB         27.5183  -27.6299  -40.9254 C.3       6 UNK        -0.2006 
     42 C          26.0404  -29.2915  -39.7274 C.2       6 UNK         0.4892 
     43 O          26.6045  -29.6694  -38.6997 O.2       6 UNK        -0.5089 
     44 N          25.3047  -30.0916  -40.5119 N.am      7 UNK        -0.4243 
     45 CA         25.0507  -31.5108  -40.2502 C.3       7 UNK         0.0196 
     46 CB         25.2190  -32.3072  -41.5552 C.3       7 UNK        -0.2007 
     47 C          23.6451  -31.7218  -39.6744 C.2       7 UNK         0.5020 
     48 O          23.4838  -32.4976  -38.7321 O.2       7 UNK        -0.5147 
     49 N          22.6552  -31.0374  -40.2648 N.am      8 UNK        -0.4734 
     50 CA         21.2352  -31.0003  -39.9018 C.3       8 UNK         0.0238 
     51 CB         21.0415  -30.1803  -38.6097 C.3       8 UNK        -0.1912 
     52 C          20.5433  -32.3773  -39.8469 C.2       8 UNK         0.5038 
     53 O          19.6110  -32.5578  -39.0614 O.2       8 UNK        -0.5046 
     54 N          21.0213  -33.3216  -40.6698 N.am      9 UNK        -0.4200 
     55 CA         20.6312  -34.7421  -40.6769 C.3       9 UNK         0.0839 
     56 C          20.9907  -35.5132  -39.3664 C.2       9 UNK         0.5513 
     57 N          21.8923  -35.0178  -38.5257 N.am      9 UNK        -0.7519 
     58 O          20.4735  -36.5999  -39.1195 O.2       9 UNK        -0.4960 
     59 C59        19.1605  -34.9707  -41.1378 C.3       10 UNK        -0.0876 
     60 S60        18.9056  -34.5520  -42.8975 S.3       10 UNK        -0.2414 
     61 C61        17.6027  -33.2776  -42.8533 C.3       10 UNK         0.0169 
     62 H62        15.1962  -23.2231  -40.3487 H         1 UNK         0.0903 
     63 H63        16.9172  -22.8581  -40.4814 H         1 UNK         0.0903 
     64 H64        15.7414  -21.9030  -41.3871 H         1 UNK         0.0903 
     65 H65        18.0068  -24.3249  -41.7891 H         1 UNK         0.3096 
     66 H66        16.9026  -25.1746  -44.3476 H         1 UNK         0.1121 
     67 H67        17.3882  -27.6180  -43.8747 H         1 UNK         0.0849 
     68 H68        15.9480  -26.9500  -43.2311 H         1 UNK         0.0849 
     69 H69        19.7351  -27.8975  -41.7520 H         1 UNK         0.0865 
     70 H70        19.0578  -28.9568  -40.5553 H         1 UNK         0.0865 
     71 H71        17.9362  -31.0991  -41.2254 H         1 UNK         0.1346 
     72 H72        18.4178  -32.3954  -45.2883 H         1 UNK         0.1412 
     73 H73        19.6359  -28.4591  -44.1327 H         1 UNK         0.1426 
     74 H74        20.5153  -30.0808  -46.4121 H         1 UNK         0.0716 
     75 H75        19.0518  -30.8252  -46.9996 H         1 UNK         0.0716 
     76 H76        20.4487  -28.7371  -48.5813 H         1 UNK         0.0695 
     77 H77        19.4939  -27.3116  -48.8202 H         1 UNK         0.0695 
     78 H78        21.6170  -26.4567  -48.2998 H         1 UNK         0.0983 
     79 H79        19.6205  -25.9750  -46.3892 H         1 UNK         0.3095 
     80 H80        21.1584  -23.7119  -44.3011 H         1 UNK         0.0454 
     81 H81        19.7982  -22.6220  -46.8205 H         1 UNK         0.0851 
     82 H82        19.9858  -21.7674  -45.2881 H         1 UNK         0.0851 
     83 H83        21.3967  -22.1682  -46.2486 H         1 UNK         0.0851 
     84 H84        18.4453  -23.7080  -45.0251 H         1 UNK         0.2976 
     85 H85        21.4638  -27.5855  -44.9624 H         1 UNK         0.3116 
     86 H86        24.1895  -28.5179  -45.0517 H         1 UNK         0.0646 
     87 H87        22.0392  -30.6682  -44.6113 H         1 UNK         0.0847 
     88 H88        23.0596  -30.5566  -46.0464 H         1 UNK         0.0847 
     89 H89        23.7756  -30.8898  -44.4847 H         1 UNK         0.0847 
     90 H90        23.0400  -26.4726  -43.6660 H         1 UNK         0.3040 
     91 H91        21.8513  -27.0093  -41.2070 H         1 UNK         0.1015 
     92 H92        23.6166  -24.6445  -42.0369 H         1 UNK         0.0786 
     93 H93        22.5565  -24.6662  -40.6337 H         1 UNK         0.0786 
     94 H94        21.8690  -24.7743  -42.2417 H         1 UNK         0.0786 
     95 H95        25.2623  -27.2208  -41.9719 H         1 UNK         0.3172 
     96 H96        26.2442  -27.2153  -39.2520 H         1 UNK         0.0595 
     97 H97        28.3678  -27.9600  -40.3256 H         1 UNK         0.0839 
     98 H98        27.6877  -26.5815  -41.1719 H         1 UNK         0.0839 
     99 H99        27.5349  -28.2020  -41.8540 H         1 UNK         0.0839 
    100 H100       24.8178  -29.6825  -41.3007 H         1 UNK         0.2998 
    101 H101       25.7697  -31.8983  -39.5250 H         1 UNK         0.0822 
    102 H102       25.0348  -33.3698  -41.3905 H         1 UNK         0.0787 
    103 H103       24.5287  -31.9713  -42.3298 H         1 UNK         0.0787 
    104 H104       26.2317  -32.2116  -41.9470 H         1 UNK         0.0787 
    105 H105       22.8953  -30.4481  -41.0629 H         1 UNK         0.3055 
    106 H106       20.7544  -30.4670  -40.7186 H         1 UNK         0.1106 
    107 H107       21.4949  -29.1927  -38.6966 H         1 UNK         0.0828 
    108 H108       19.9839  -30.0313  -38.3889 H         1 UNK         0.0828 
    109 H109       21.4874  -30.6794  -37.7488 H         1 UNK         0.0828 
    110 H110       21.7886  -33.0747  -41.2766 H         1 UNK         0.2931 
    111 H111       21.2735  -35.2039  -41.4277 H         1 UNK         0.0412 
    112 H112       22.1204  -35.5361  -37.6922 H         1 UNK         0.3472 
    113 H113       22.3452  -34.1264  -38.7008 H         1 UNK         0.3472 
    114 H114       18.4642  -34.4264  -40.4999 H         1 UNK         0.0970 
    115 H115       18.8845  -36.0218  -41.0383 H         1 UNK         0.0970 
    116 H116       16.8313  -33.5477  -43.5758 H         1 UNK         0.0612 
    117 H117       17.1087  -33.2595  -41.8813 H         1 UNK         0.0612 
@<TRIPOS>BOND
     1    1    2 1    
     2    1   62 1    
     3    1   63 1    
     4    1   64 1    
     5    2    3 2    
     6    2    4 am   BACKBONE|DICT|INTERRES
     7    4    5 1    
     8    4   65 1    
     9    5    6 1    
    10    5   25 1    
    11    5   66 1    
    12    6    7 1    
    13    6   67 1    
    14    6   68 1    
    15    7    8 1    
    16    8    9 1    
    17    8   69 1    
    18    8   70 1    
    19    9   10 ar   
    20    9   14 ar   
    21   10   11 ar   
    22   10   71 1    
    23   11   12 ar   
    24   11   61 1    
    25   12   13 ar   
    26   12   72 1    
    27   13   14 ar   
    28   13   15 1    
    29   14   73 1    
    30   15   16 1    
    31   15   74 1    
    32   15   75 1    
    33   16   17 1    
    34   17   18 1    
    35   17   76 1    
    36   17   77 1    
    37   18   19 1    
    38   18   27 1    
    39   18   78 1    
    40   19   20 am   BACKBONE|DICT|INTERRES
    41   19   79 1    
    42   20   21 2    
    43   20   22 1    
    44   22   23 1    
    45   22   24 1    
    46   22   80 1    
    47   23   81 1    
    48   23   82 1    
    49   23   83 1    
    50   24   25 am   BACKBONE|DICT|INTERRES
    51   24   84 1    
    52   25   26 2    
    53   27   28 2    
    54   27   29 am   BACKBONE|DICT|INTERRES
    55   29   30 1    
    56   29   85 1    
    57   30   31 1    
    58   30   32 1    
    59   30   86 1    
    60   31   87 1    
    61   31   88 1    
    62   31   89 1    
    63   32   33 2    
    64   32   34 am   BACKBONE|DICT|INTERRES
    65   34   35 1    
    66   34   90 1    
    67   35   36 1    
    68   35   37 1    
    69   35   91 1    
    70   36   92 1    
    71   36   93 1    
    72   36   94 1    
    73   37   38 2    
    74   37   39 am   BACKBONE|DICT|INTERRES
    75   39   40 1    
    76   39   95 1    
    77   40   41 1    
    78   40   42 1    
    79   40   96 1    
    80   41   97 1    
    81   41   98 1    
    82   41   99 1    
    83   42   43 2    
    84   42   44 am   BACKBONE|DICT|INTERRES
    85   44   45 1    
    86   44  100 1    
    87   45   46 1    
    88   45   47 1    
    89   45  101 1    
    90   46  102 1    
    91   46  103 1    
    92   46  104 1    
    93   47   48 2    
    94   47   49 am   BACKBONE|DICT|INTERRES
    95   49   50 1    
    96   49  105 1    
    97   50   51 1    
    98   50   52 1    
    99   50  106 1    
   100   51  107 1    
   101   51  108 1    
   102   51  109 1    
   103   52   53 2    
   104   52   54 am   BACKBONE|DICT|INTERRES
   105   54   55 1    
   106   54  110 1    
   107   55   56 1    
   108   55   59 1    
   109   55  111 1    
   110   56   57 am   BACKBONE|DICT|INTERRES
   111   56   58 2    
   112   57  112 1    
   113   57  113 1    
   114   59   60 1    
   115   59  114 1    
   116   59  115 1    
   117   60   61 1    
   118   61  116 1    
   119   61  117 1    
@<TRIPOS>SUBSTRUCTURE
     1 UNK         1 GROUP             0       ****    0 ROOT    
