@<TRIPOS>MOLECULE
3R8
117   119    1
SMALL
USER_CHARGES


@<TRIPOS>ATOM
      1 CA         15.3147  -23.5433  -41.7330 C.3       0 UNK        -0.2013 
      2 C          15.8594  -24.1024  -43.0390 C.2       0 UNK         0.4866 
      3 O          15.6279  -23.5193  -44.0990 O.2       0 UNK        -0.5176 
      4 N          16.5719  -25.2337  -42.9717 N.am      1 UNK        -0.4884 
      5 CA         17.2156  -25.8918  -44.1148 C.3       1 UNK         0.0853 
      6 C6         17.7028  -27.3184  -43.7581 C.3       10 UNK        -0.0849 
      7 S7         16.3892  -28.4021  -43.0979 S.3       10 UNK        -0.2776 
      8 C8         17.3537  -29.5476  -42.0542 C.3       10 UNK         0.0316 
      9 C9         18.2102  -30.4822  -42.8963 C.ar      10 UNK        -0.0863 
     10 C10        17.7261  -31.7382  -43.2767 C.ar      10 UNK        -0.1009 
     11 C11        18.5063  -32.5896  -44.0660 C.ar      10 UNK        -0.0712 
     12 C12        19.7640  -32.1618  -44.5045 C.ar      10 UNK        -0.0894 
     13 C13        20.2532  -30.9075  -44.1336 C.ar      10 UNK        -0.0745 
     14 C14        19.4857  -30.0855  -43.3064 C.ar      10 UNK        -0.0972 
     15 C15        21.5882  -30.4091  -44.6560 C.3       10 UNK         0.0209 
     16 S16        21.3089  -29.2558  -46.0357 S.3       10 UNK        -0.2568 
     17 C17        22.7630  -28.1565  -45.9266 C.3       10 UNK        -0.0983 
     18 CA         22.4875  -26.8083  -45.2004 C.3       3 UNK         0.0876 
     19 N          21.2828  -26.1528  -45.7142 N.am      3 UNK        -0.4424 
     20 C          21.1825  -24.8780  -46.1065 C.2       2 UNK         0.4918 
     21 O          22.1129  -24.0728  -46.0792 O.2       2 UNK        -0.4875 
     22 CA         19.7935  -24.4189  -46.5941 C.3       2 UNK         0.0481 
     23 CB         19.6833  -24.5821  -48.1183 C.3       2 UNK        -0.1831 
     24 N          18.6730  -25.1165  -45.9456 N.am      2 UNK        -0.4498 
     25 C          18.4050  -25.0548  -44.6330 C.2       1 UNK         0.5027 
     26 O          19.0988  -24.4221  -43.8333 O.2       1 UNK        -0.4969 
     27 C          22.4609  -26.9566  -43.6625 C.2       3 UNK         0.5005 
     28 O          23.2647  -27.7230  -43.1299 O.2       3 UNK        -0.5279 
     29 N          21.5796  -26.2313  -42.9498 N.am      4 UNK        -0.4463 
     30 CA         21.4068  -26.3097  -41.4868 C.3       4 UNK         0.0283 
     31 CB         20.2574  -25.3900  -41.0435 C.3       4 UNK        -0.1875 
     32 C          22.6666  -26.0100  -40.6485 C.2       4 UNK         0.4949 
     33 O          22.7280  -26.4287  -39.4931 O.2       4 UNK        -0.5039 
     34 N          23.6531  -25.3186  -41.2365 N.am      5 UNK        -0.4663 
     35 CA         24.9818  -25.1092  -40.6537 C.3       5 UNK         0.0242 
     36 CB         25.7329  -24.0509  -41.4775 C.3       5 UNK        -0.1982 
     37 C          25.8128  -26.4045  -40.5530 C.2       5 UNK         0.5017 
     38 O          26.6529  -26.5059  -39.6583 O.2       5 UNK        -0.5012 
     39 N          25.5646  -27.3610  -41.4589 N.am      6 UNK        -0.4439 
     40 CA         26.1535  -28.7005  -41.4510 C.3       6 UNK         0.0297 
     41 CB         26.4865  -29.1255  -42.8913 C.3       6 UNK        -0.2006 
     42 C          25.1954  -29.7079  -40.7977 C.2       6 UNK         0.4892 
     43 O          25.6409  -30.5142  -39.9806 O.2       6 UNK        -0.5089 
     44 N          23.9043  -29.6229  -41.1572 N.am      7 UNK        -0.4243 
     45 CA         22.7889  -30.4543  -40.6976 C.3       7 UNK         0.0196 
     46 CB         22.4486  -30.1452  -39.2219 C.3       7 UNK        -0.2007 
     47 C          23.0201  -31.9478  -40.9990 C.2       7 UNK         0.5020 
     48 O          23.0216  -32.3225  -42.1713 O.2       7 UNK        -0.5147 
     49 N          23.1836  -32.7661  -39.9469 N.am      8 UNK        -0.4734 
     50 CA         23.3365  -34.2317  -39.9597 C.3       8 UNK         0.0238 
     51 CB         24.6041  -34.6566  -40.7323 C.3       8 UNK        -0.1912 
     52 C          22.0736  -34.9842  -40.4315 C.2       8 UNK         0.5038 
     53 O          22.1613  -36.1513  -40.8162 O.2       8 UNK        -0.5046 
     54 N          20.9236  -34.3079  -40.3714 N.am      9 UNK        -0.4200 
     55 CA         19.5889  -34.7678  -40.7548 C.3       9 UNK         0.0839 
     56 C          18.5622  -33.7407  -40.1985 C.2       9 UNK         0.5513 
     57 N          17.3616  -34.1824  -39.8504 N.am      9 UNK        -0.7519 
     58 O          18.8524  -32.5537  -40.0536 O.2       9 UNK        -0.4960 
     59 C59        19.5043  -35.0579  -42.2881 C.3       10 UNK        -0.0876 
     60 S60        17.8334  -35.1034  -43.0387 S.3       10 UNK        -0.2414 
     61 C61        17.9923  -33.9687  -44.4590 C.3       10 UNK         0.0169 
     62 H62        15.5840  -24.1647  -40.8791 H         1 UNK         0.0903 
     63 H63        15.7089  -22.5420  -41.5611 H         1 UNK         0.0903 
     64 H64        14.2278  -23.4793  -41.7763 H         1 UNK         0.0903 
     65 H65        16.7233  -25.6738  -42.0759 H         1 UNK         0.3096 
     66 H66        16.4747  -25.9667  -44.9141 H         1 UNK         0.1121 
     67 H67        18.1240  -27.8098  -44.6378 H         1 UNK         0.0849 
     68 H68        18.5075  -27.2625  -43.0243 H         1 UNK         0.0849 
     69 H69        17.9765  -28.9847  -41.3572 H         1 UNK         0.0865 
     70 H70        16.6662  -30.1300  -41.4389 H         1 UNK         0.0865 
     71 H71        16.7459  -32.0598  -42.9519 H         1 UNK         0.1346 
     72 H72        20.3619  -32.8022  -45.1383 H         1 UNK         0.1412 
     73 H73        19.8725  -29.1189  -43.0175 H         1 UNK         0.1426 
     74 H74        22.2134  -31.2376  -44.9923 H         1 UNK         0.0716 
     75 H75        22.1325  -29.9247  -43.8468 H         1 UNK         0.0716 
     76 H76        23.6061  -28.6933  -45.4872 H         1 UNK         0.0695 
     77 H77        23.0698  -27.9418  -46.9513 H         1 UNK         0.0695 
     78 H78        23.3505  -26.1689  -45.3984 H         1 UNK         0.0983 
     79 H79        20.4713  -26.7477  -45.7977 H         1 UNK         0.3095 
     80 H80        19.7003  -23.3564  -46.3599 H         1 UNK         0.0454 
     81 H81        20.4896  -24.0513  -48.6266 H         1 UNK         0.0851 
     82 H82        19.7429  -25.6287  -48.4196 H         1 UNK         0.0851 
     83 H83        18.7447  -24.1757  -48.4953 H         1 UNK         0.0851 
     84 H84        18.0693  -25.6596  -46.5471 H         1 UNK         0.2976 
     85 H85        20.9664  -25.5902  -43.4395 H         1 UNK         0.3116 
     86 H86        21.1208  -27.3380  -41.2558 H         1 UNK         0.0646 
     87 H87        20.1335  -25.4079  -39.9596 H         1 UNK         0.0847 
     88 H88        19.3062  -25.6990  -41.4724 H         1 UNK         0.0847 
     89 H89        20.4363  -24.3537  -41.3327 H         1 UNK         0.0847 
     90 H90        23.5073  -24.9882  -42.1791 H         1 UNK         0.3040 
     91 H91        24.8508  -24.7265  -39.6389 H         1 UNK         0.1015 
     92 H92        25.1935  -23.1036  -41.4938 H         1 UNK         0.0786 
     93 H93        25.8823  -24.3719  -42.5093 H         1 UNK         0.0786 
     94 H94        26.7180  -23.8532  -41.0522 H         1 UNK         0.0786 
     95 H95        24.8094  -27.2123  -42.1220 H         1 UNK         0.3172 
     96 H96        27.0839  -28.6971  -40.8791 H         1 UNK         0.0595 
     97 H97        26.9324  -30.1209  -42.9094 H         1 UNK         0.0839 
     98 H98        27.2014  -28.4420  -43.3494 H         1 UNK         0.0839 
     99 H99        25.5994  -29.1550  -43.5254 H         1 UNK         0.0839 
    100 H100       23.6650  -28.9455  -41.8792 H         1 UNK         0.2998 
    101 H101       21.9250  -30.1600  -41.2957 H         1 UNK         0.0822 
    102 H102       23.2800  -30.3574  -38.5491 H         1 UNK         0.0787 
    103 H103       22.1911  -29.0936  -39.0971 H         1 UNK         0.0787 
    104 H104       21.5860  -30.7224  -38.8856 H         1 UNK         0.0787 
    105 H105       23.1895  -32.3382  -39.0307 H         1 UNK         0.3055 
    106 H106       23.4786  -34.5276  -38.9190 H         1 UNK         0.1106 
    107 H107       24.5030  -34.4872  -41.8045 H         1 UNK         0.0828 
    108 H108       25.4813  -34.1092  -40.3872 H         1 UNK         0.0828 
    109 H109       24.8102  -35.7184  -40.5922 H         1 UNK         0.0828 
    110 H110       20.9371  -33.3541  -40.0345 H         1 UNK         0.2931 
    111 H111       19.4117  -35.7058  -40.2251 H         1 UNK         0.0412 
    112 H112       16.6878  -33.5313  -39.4796 H         1 UNK         0.3472 
    113 H113       17.1078  -35.1494  -39.9815 H         1 UNK         0.3472 
    114 H114       19.9792  -36.0176  -42.4954 H         1 UNK         0.0970 
    115 H115       20.1113  -34.3285  -42.8234 H         1 UNK         0.0970 
    116 H116       18.6472  -34.4289  -45.2005 H         1 UNK         0.0612 
    117 H117       17.0169  -33.8640  -44.9358 H         1 UNK         0.0612 
@<TRIPOS>BOND
     1    1    2 1    
     2    1   62 1    
     3    1   63 1    
     4    1   64 1    
     5    2    3 2    
     6    2    4 am   BACKBONE|DICT|INTERRES
     7    4    5 1    
     8    4   65 1    
     9    5    6 1    
    10    5   25 1    
    11    5   66 1    
    12    6    7 1    
    13    6   67 1    
    14    6   68 1    
    15    7    8 1    
    16    8    9 1    
    17    8   69 1    
    18    8   70 1    
    19    9   10 ar   
    20    9   14 ar   
    21   10   11 ar   
    22   10   71 1    
    23   11   12 ar   
    24   11   61 1    
    25   12   13 ar   
    26   12   72 1    
    27   13   14 ar   
    28   13   15 1    
    29   14   73 1    
    30   15   16 1    
    31   15   74 1    
    32   15   75 1    
    33   16   17 1    
    34   17   18 1    
    35   17   76 1    
    36   17   77 1    
    37   18   19 1    
    38   18   27 1    
    39   18   78 1    
    40   19   20 am   BACKBONE|DICT|INTERRES
    41   19   79 1    
    42   20   21 2    
    43   20   22 1    
    44   22   23 1    
    45   22   24 1    
    46   22   80 1    
    47   23   81 1    
    48   23   82 1    
    49   23   83 1    
    50   24   25 am   BACKBONE|DICT|INTERRES
    51   24   84 1    
    52   25   26 2    
    53   27   28 2    
    54   27   29 am   BACKBONE|DICT|INTERRES
    55   29   30 1    
    56   29   85 1    
    57   30   31 1    
    58   30   32 1    
    59   30   86 1    
    60   31   87 1    
    61   31   88 1    
    62   31   89 1    
    63   32   33 2    
    64   32   34 am   BACKBONE|DICT|INTERRES
    65   34   35 1    
    66   34   90 1    
    67   35   36 1    
    68   35   37 1    
    69   35   91 1    
    70   36   92 1    
    71   36   93 1    
    72   36   94 1    
    73   37   38 2    
    74   37   39 am   BACKBONE|DICT|INTERRES
    75   39   40 1    
    76   39   95 1    
    77   40   41 1    
    78   40   42 1    
    79   40   96 1    
    80   41   97 1    
    81   41   98 1    
    82   41   99 1    
    83   42   43 2    
    84   42   44 am   BACKBONE|DICT|INTERRES
    85   44   45 1    
    86   44  100 1    
    87   45   46 1    
    88   45   47 1    
    89   45  101 1    
    90   46  102 1    
    91   46  103 1    
    92   46  104 1    
    93   47   48 2    
    94   47   49 am   BACKBONE|DICT|INTERRES
    95   49   50 1    
    96   49  105 1    
    97   50   51 1    
    98   50   52 1    
    99   50  106 1    
   100   51  107 1    
   101   51  108 1    
   102   51  109 1    
   103   52   53 2    
   104   52   54 am   BACKBONE|DICT|INTERRES
   105   54   55 1    
   106   54  110 1    
   107   55   56 1    
   108   55   59 1    
   109   55  111 1    
   110   56   57 am   BACKBONE|DICT|INTERRES
   111   56   58 2    
   112   57  112 1    
   113   57  113 1    
   114   59   60 1    
   115   59  114 1    
   116   59  115 1    
   117   60   61 1    
   118   61  116 1    
   119   61  117 1    
@<TRIPOS>SUBSTRUCTURE
     1 UNK         1 GROUP             0       ****    0 ROOT    
