@<TRIPOS>MOLECULE
3R8
117   119    1
SMALL
USER_CHARGES


@<TRIPOS>ATOM
      1 CA         14.8994  -24.4829  -41.5784 C.3       0 UNK        -0.2013 
      2 C          15.5780  -24.5912  -42.9358 C.2       0 UNK         0.4866 
      3 O          15.6036  -23.6159  -43.6877 O.2       0 UNK        -0.5176 
      4 N          16.1187  -25.7722  -43.2588 N.am      1 UNK        -0.4884 
      5 CA         16.8591  -26.0467  -44.4956 C.3       1 UNK         0.0853 
      6 C6         17.0670  -27.5660  -44.7159 C.3       10 UNK        -0.0849 
      7 S7         15.5077  -28.5187  -44.7370 S.3       10 UNK        -0.2776 
      8 C8         15.8155  -29.7461  -46.0541 C.3       10 UNK         0.0316 
      9 C9         17.1359  -30.4838  -45.8655 C.ar      10 UNK        -0.0863 
     10 C10        17.3528  -31.2709  -44.7298 C.ar      10 UNK        -0.1009 
     11 C11        18.5870  -31.8948  -44.5230 C.ar      10 UNK        -0.0712 
     12 C12        19.5983  -31.7529  -45.4767 C.ar      10 UNK        -0.0894 
     13 C13        19.3967  -30.9579  -46.6103 C.ar      10 UNK        -0.0745 
     14 C14        18.1588  -30.3408  -46.8082 C.ar      10 UNK        -0.0972 
     15 C15        20.5447  -30.6945  -47.5759 C.3       10 UNK         0.0209 
     16 S16        21.2239  -29.0091  -47.3789 S.3       10 UNK        -0.2568 
     17 C17        21.6223  -28.9969  -45.5970 C.3       10 UNK        -0.0983 
     18 CA         21.9850  -27.6149  -45.0020 C.3       3 UNK         0.0876 
     19 N          21.0224  -26.5873  -45.4032 N.am      3 UNK        -0.4424 
     20 C          21.2447  -25.2679  -45.4152 C.2       2 UNK         0.4918 
     21 O          22.3120  -24.7492  -45.0889 O.2       2 UNK        -0.4875 
     22 CA         20.0675  -24.3728  -45.8553 C.3       2 UNK         0.0481 
     23 CB         20.2336  -23.9615  -47.3269 C.3       2 UNK        -0.1831 
     24 N          18.7437  -24.9863  -45.6703 N.am      2 UNK        -0.4498 
     25 C          18.2294  -25.3378  -44.4826 C.2       1 UNK         0.5027 
     26 O          18.8309  -25.1872  -43.4166 O.2       1 UNK        -0.4969 
     27 C          22.1108  -27.7666  -43.4677 C.2       3 UNK         0.5005 
     28 O          22.9585  -28.5472  -43.0296 O.2       3 UNK        -0.5279 
     29 N          21.2446  -27.1006  -42.6822 N.am      4 UNK        -0.4463 
     30 CA         21.1236  -27.2655  -41.2283 C.3       4 UNK         0.0283 
     31 CB         20.0551  -26.3096  -40.6774 C.3       4 UNK        -0.1875 
     32 C          22.4513  -27.0804  -40.4752 C.2       4 UNK         0.4949 
     33 O          23.2424  -26.2021  -40.8267 O.2       4 UNK        -0.5039 
     34 N          22.6773  -27.9454  -39.4796 N.am      5 UNK        -0.4663 
     35 CA         23.8976  -28.1418  -38.6855 C.3       5 UNK         0.0242 
     36 CB         24.3065  -26.8655  -37.9250 C.3       5 UNK        -0.1982 
     37 C          25.0785  -28.7241  -39.4846 C.2       5 UNK         0.5017 
     38 O          25.7399  -29.6328  -38.9829 O.2       5 UNK        -0.5012 
     39 N          25.3112  -28.2332  -40.7100 N.am      6 UNK        -0.4439 
     40 CA         26.3516  -28.7029  -41.6311 C.3       6 UNK         0.0297 
     41 CB         26.4309  -27.7681  -42.8488 C.3       6 UNK        -0.2006 
     42 C          26.1468  -30.1638  -42.0687 C.2       6 UNK         0.4892 
     43 O          27.1045  -30.9373  -42.0597 O.2       6 UNK        -0.5089 
     44 N          24.8967  -30.5248  -42.3873 N.am      7 UNK        -0.4243 
     45 CA         24.4594  -31.8940  -42.6774 C.3       7 UNK         0.0196 
     46 CB         23.4059  -31.8566  -43.7987 C.3       7 UNK        -0.2007 
     47 C          23.9304  -32.6179  -41.4231 C.2       7 UNK         0.5020 
     48 O          23.1706  -33.5770  -41.5571 O.2       7 UNK        -0.5147 
     49 N          24.3046  -32.1403  -40.2262 N.am      8 UNK        -0.4734 
     50 CA         23.9541  -32.6199  -38.8790 C.3       8 UNK         0.0238 
     51 CB         24.3960  -34.0815  -38.6672 C.3       8 UNK        -0.1912 
     52 C          22.4829  -32.4214  -38.4665 C.2       8 UNK         0.5038 
     53 O          22.2239  -32.2625  -37.2726 O.2       8 UNK        -0.5046 
     54 N          21.5545  -32.4284  -39.4296 N.am      9 UNK        -0.4200 
     55 CA         20.1237  -32.1599  -39.2394 C.3       9 UNK         0.0839 
     56 C          19.8128  -30.7092  -38.7688 C.2       9 UNK         0.5513 
     57 N          18.6252  -30.4779  -38.2263 N.am      9 UNK        -0.7519 
     58 O          20.6216  -29.7927  -38.9027 O.2       9 UNK        -0.4960 
     59 C59        19.2997  -32.5798  -40.4863 C.3       10 UNK        -0.0876 
     60 S60        19.6856  -31.6461  -42.0079 S.3       10 UNK        -0.2414 
     61 C61        18.8421  -32.6803  -43.2466 C.3       10 UNK         0.0169 
     62 H62        13.8530  -24.2056  -41.7027 H         1 UNK         0.0903 
     63 H63        14.9379  -25.4223  -41.0270 H         1 UNK         0.0903 
     64 H64        15.3865  -23.7164  -40.9763 H         1 UNK         0.0903 
     65 H65        16.0697  -26.5401  -42.6048 H         1 UNK         0.3096 
     66 H66        16.2756  -25.6493  -45.3293 H         1 UNK         0.1121 
     67 H67        17.7065  -27.9900  -43.9381 H         1 UNK         0.0849 
     68 H68        17.5891  -27.7313  -45.6600 H         1 UNK         0.0849 
     69 H69        14.9989  -30.4692  -46.0646 H         1 UNK         0.0865 
     70 H70        15.7873  -29.2398  -47.0203 H         1 UNK         0.0865 
     71 H71        16.5716  -31.3641  -43.9876 H         1 UNK         0.1346 
     72 H72        20.5614  -32.2139  -45.3046 H         1 UNK         0.1412 
     73 H73        18.0118  -29.7128  -47.6765 H         1 UNK         0.1426 
     74 H74        20.1968  -30.8224  -48.6019 H         1 UNK         0.0716 
     75 H75        21.3460  -31.4205  -47.4296 H         1 UNK         0.0716 
     76 H76        22.4413  -29.6989  -45.4438 H         1 UNK         0.0695 
     77 H77        20.7684  -29.3951  -45.0492 H         1 UNK         0.0695 
     78 H78        22.9691  -27.3276  -45.3787 H         1 UNK         0.0983 
     79 H79        20.1299  -26.9261  -45.7276 H         1 UNK         0.3095 
     80 H80        20.1009  -23.4687  -45.2437 H         1 UNK         0.0454 
     81 H81        20.1884  -24.8224  -47.9952 H         1 UNK         0.0851 
     82 H82        21.1961  -23.4743  -47.4896 H         1 UNK         0.0851 
     83 H83        19.4614  -23.2556  -47.6330 H         1 UNK         0.0851 
     84 H84        18.2003  -25.1441  -46.5076 H         1 UNK         0.2976 
     85 H85        20.5901  -26.4597  -43.1139 H         1 UNK         0.3116 
     86 H86        20.7783  -28.2884  -41.0676 H         1 UNK         0.0646 
     87 H87        19.0738  -26.5260  -41.0994 H         1 UNK         0.0847 
     88 H88        20.2956  -25.2685  -40.8965 H         1 UNK         0.0847 
     89 H89        19.9649  -26.4049  -39.5944 H         1 UNK         0.0847 
     90 H90        21.9400  -28.6257  -39.2877 H         1 UNK         0.3040 
     91 H91        23.6330  -28.8930  -37.9388 H         1 UNK         0.1015 
     92 H92        24.6293  -26.0704  -38.5975 H         1 UNK         0.0786 
     93 H93        25.1365  -27.0692  -37.2473 H         1 UNK         0.0786 
     94 H94        23.4828  -26.4823  -37.3227 H         1 UNK         0.0786 
     95 H95        24.6950  -27.4933  -41.0363 H         1 UNK         0.3172 
     96 H96        27.3053  -28.6477  -41.1020 H         1 UNK         0.0595 
     97 H97        25.4969  -27.7511  -43.4110 H         1 UNK         0.0839 
     98 H98        27.2173  -28.0872  -43.5341 H         1 UNK         0.0839 
     99 H99        26.6590  -26.7451  -42.5490 H         1 UNK         0.0839 
    100 H100       24.1761  -29.8039  -42.4213 H         1 UNK         0.2998 
    101 H101       25.3069  -32.4791  -43.0403 H         1 UNK         0.0822 
    102 H102       23.8139  -31.3988  -44.6991 H         1 UNK         0.0787 
    103 H103       23.0790  -32.8604  -44.0728 H         1 UNK         0.0787 
    104 H104       22.5201  -31.2946  -43.4994 H         1 UNK         0.0787 
    105 H105       24.9140  -31.3312  -40.2294 H         1 UNK         0.3055 
    106 H106       24.5393  -32.0040  -38.1936 H         1 UNK         0.1106 
    107 H107       23.8321  -34.7749  -39.2916 H         1 UNK         0.0828 
    108 H108       24.2438  -34.3862  -37.6309 H         1 UNK         0.0828 
    109 H109       25.4548  -34.2124  -38.8902 H         1 UNK         0.0828 
    110 H110       21.8595  -32.6061  -40.3793 H         1 UNK         0.2931 
    111 H111       19.8089  -32.8120  -38.4222 H         1 UNK         0.0412 
    112 H112       18.4030  -29.5436  -37.9205 H         1 UNK         0.3472 
    113 H113       17.9505  -31.2172  -38.1065 H         1 UNK         0.3472 
    114 H114       18.2315  -32.4817  -40.2850 H         1 UNK         0.0970 
    115 H115       19.4633  -33.6407  -40.6831 H         1 UNK         0.0970 
    116 H116       19.4510  -33.5605  -43.4582 H         1 UNK         0.0612 
    117 H117       17.8976  -33.0446  -42.8393 H         1 UNK         0.0612 
@<TRIPOS>BOND
     1    1    2 1    
     2    1   62 1    
     3    1   63 1    
     4    1   64 1    
     5    2    3 2    
     6    2    4 am   BACKBONE|DICT|INTERRES
     7    4    5 1    
     8    4   65 1    
     9    5    6 1    
    10    5   25 1    
    11    5   66 1    
    12    6    7 1    
    13    6   67 1    
    14    6   68 1    
    15    7    8 1    
    16    8    9 1    
    17    8   69 1    
    18    8   70 1    
    19    9   10 ar   
    20    9   14 ar   
    21   10   11 ar   
    22   10   71 1    
    23   11   12 ar   
    24   11   61 1    
    25   12   13 ar   
    26   12   72 1    
    27   13   14 ar   
    28   13   15 1    
    29   14   73 1    
    30   15   16 1    
    31   15   74 1    
    32   15   75 1    
    33   16   17 1    
    34   17   18 1    
    35   17   76 1    
    36   17   77 1    
    37   18   19 1    
    38   18   27 1    
    39   18   78 1    
    40   19   20 am   BACKBONE|DICT|INTERRES
    41   19   79 1    
    42   20   21 2    
    43   20   22 1    
    44   22   23 1    
    45   22   24 1    
    46   22   80 1    
    47   23   81 1    
    48   23   82 1    
    49   23   83 1    
    50   24   25 am   BACKBONE|DICT|INTERRES
    51   24   84 1    
    52   25   26 2    
    53   27   28 2    
    54   27   29 am   BACKBONE|DICT|INTERRES
    55   29   30 1    
    56   29   85 1    
    57   30   31 1    
    58   30   32 1    
    59   30   86 1    
    60   31   87 1    
    61   31   88 1    
    62   31   89 1    
    63   32   33 2    
    64   32   34 am   BACKBONE|DICT|INTERRES
    65   34   35 1    
    66   34   90 1    
    67   35   36 1    
    68   35   37 1    
    69   35   91 1    
    70   36   92 1    
    71   36   93 1    
    72   36   94 1    
    73   37   38 2    
    74   37   39 am   BACKBONE|DICT|INTERRES
    75   39   40 1    
    76   39   95 1    
    77   40   41 1    
    78   40   42 1    
    79   40   96 1    
    80   41   97 1    
    81   41   98 1    
    82   41   99 1    
    83   42   43 2    
    84   42   44 am   BACKBONE|DICT|INTERRES
    85   44   45 1    
    86   44  100 1    
    87   45   46 1    
    88   45   47 1    
    89   45  101 1    
    90   46  102 1    
    91   46  103 1    
    92   46  104 1    
    93   47   48 2    
    94   47   49 am   BACKBONE|DICT|INTERRES
    95   49   50 1    
    96   49  105 1    
    97   50   51 1    
    98   50   52 1    
    99   50  106 1    
   100   51  107 1    
   101   51  108 1    
   102   51  109 1    
   103   52   53 2    
   104   52   54 am   BACKBONE|DICT|INTERRES
   105   54   55 1    
   106   54  110 1    
   107   55   56 1    
   108   55   59 1    
   109   55  111 1    
   110   56   57 am   BACKBONE|DICT|INTERRES
   111   56   58 2    
   112   57  112 1    
   113   57  113 1    
   114   59   60 1    
   115   59  114 1    
   116   59  115 1    
   117   60   61 1    
   118   61  116 1    
   119   61  117 1    
@<TRIPOS>SUBSTRUCTURE
     1 UNK         1 GROUP             0       ****    0 ROOT    
