@<TRIPOS>MOLECULE
3R8
117   119    1
SMALL
USER_CHARGES


@<TRIPOS>ATOM
      1 CA         13.2130  -25.2340  -45.3247 C.3       0 UNK        -0.2013 
      2 C          14.6617  -25.6925  -45.3933 C.2       0 UNK         0.4866 
      3 O          15.1803  -25.9291  -46.4856 O.2       0 UNK        -0.5176 
      4 N          15.3235  -25.8228  -44.2369 N.am      1 UNK        -0.4884 
      5 CA         16.7232  -26.2378  -44.1151 C.3       1 UNK         0.0853 
      6 C6         17.0496  -26.8088  -42.7105 C.3       10 UNK        -0.0849 
      7 S7         16.0541  -28.2552  -42.2156 S.3       10 UNK        -0.2776 
      8 C8         16.5350  -29.5383  -43.4241 C.3       10 UNK         0.0316 
      9 C9         18.0410  -29.6923  -43.6256 C.ar      10 UNK        -0.0863 
     10 C10        18.9107  -29.8342  -42.5366 C.ar      10 UNK        -0.1009 
     11 C11        20.2890  -30.0037  -42.7381 C.ar      10 UNK        -0.0712 
     12 C12        20.7803  -30.0396  -44.0451 C.ar      10 UNK        -0.0894 
     13 C13        19.9293  -29.8878  -45.1388 C.ar      10 UNK        -0.0745 
     14 C14        18.5597  -29.7209  -44.9235 C.ar      10 UNK        -0.0972 
     15 C15        20.4862  -29.9203  -46.5528 C.3       10 UNK         0.0209 
     16 S16        20.4493  -28.2767  -47.3306 S.3       10 UNK        -0.2568 
     17 C17        21.9672  -27.4620  -46.6981 C.3       10 UNK        -0.0983 
     18 CA         21.7488  -26.2962  -45.6793 C.3       3 UNK         0.0876 
     19 N          20.4854  -25.5992  -45.9237 N.am      3 UNK        -0.4424 
     20 C          20.2825  -24.2834  -46.0395 C.2       2 UNK         0.4918 
     21 O          21.1668  -23.4346  -45.9318 O.2       2 UNK        -0.4875 
     22 CA         18.8251  -23.8489  -46.3027 C.3       2 UNK         0.0481 
     23 CB         18.5892  -23.6511  -47.8080 C.3       2 UNK        -0.1831 
     24 N          17.8384  -24.8046  -45.7782 N.am      2 UNK        -0.4498 
     25 C          17.6700  -25.0737  -44.4765 C.2       1 UNK         0.5027 
     26 O          18.2468  -24.4486  -43.5860 O.2       1 UNK        -0.4969 
     27 C          21.9062  -26.7135  -44.1956 C.2       3 UNK         0.5005 
     28 O          22.6992  -27.6112  -43.9080 O.2       3 UNK        -0.5279 
     29 N          21.1755  -26.0525  -43.2785 N.am      4 UNK        -0.4463 
     30 CA         21.1919  -26.2734  -41.8240 C.3       4 UNK         0.0283 
     31 CB         20.2725  -25.2467  -41.1400 C.3       4 UNK        -0.1875 
     32 C          22.5887  -26.2062  -41.1763 C.2       4 UNK         0.4949 
     33 O          23.4718  -25.5106  -41.6829 O.2       4 UNK        -0.5039 
     34 N          22.7206  -26.8926  -40.0302 N.am      5 UNK        -0.4663 
     35 CA         23.9385  -27.0609  -39.2255 C.3       5 UNK         0.0242 
     36 CB         24.4456  -25.7105  -38.6730 C.3       5 UNK        -0.1982 
     37 C          25.0116  -27.8521  -39.9950 C.2       5 UNK         0.5017 
     38 O          26.1193  -27.3591  -40.2178 O.2       5 UNK        -0.5012 
     39 N          24.6388  -29.0714  -40.3945 N.am      6 UNK        -0.4439 
     40 CA         25.4648  -30.0341  -41.1142 C.3       6 UNK         0.0297 
     41 CB         25.1736  -29.9249  -42.6219 C.3       6 UNK        -0.2006 
     42 C          25.1385  -31.4358  -40.5878 C.2       6 UNK         0.4892 
     43 O          24.1173  -31.6159  -39.9181 O.2       6 UNK        -0.5089 
     44 N          25.9855  -32.4157  -40.9308 N.am      7 UNK        -0.4243 
     45 CA         25.8927  -33.8206  -40.5029 C.3       7 UNK         0.0196 
     46 CB         27.0952  -34.5948  -41.0677 C.3       7 UNK        -0.2007 
     47 C          24.5762  -34.5380  -40.8655 C.2       7 UNK         0.5020 
     48 O          24.2516  -35.5504  -40.2451 O.2       7 UNK        -0.5147 
     49 N          23.8329  -33.9969  -41.8395 N.am      8 UNK        -0.4734 
     50 CA         22.4927  -34.4421  -42.2251 C.3       8 UNK         0.0238 
     51 CB         22.1331  -33.8131  -43.5826 C.3       8 UNK        -0.1912 
     52 C          21.3982  -34.1332  -41.1824 C.2       8 UNK         0.5038 
     53 O          20.3158  -34.7124  -41.2872 O.2       8 UNK        -0.5046 
     54 N          21.6684  -33.2378  -40.2210 N.am      9 UNK        -0.4200 
     55 CA         20.7047  -32.7997  -39.1997 C.3       9 UNK         0.0839 
     56 C          21.3169  -32.5447  -37.7949 C.2       9 UNK         0.5513 
     57 N          22.6229  -32.3577  -37.6531 N.am      9 UNK        -0.7519 
     58 O          20.5898  -32.5462  -36.8046 O.2       9 UNK        -0.4960 
     59 C59        19.8137  -31.6307  -39.7030 C.3       10 UNK        -0.0876 
     60 S60        20.6782  -30.0282  -39.8992 S.3       10 UNK        -0.2414 
     61 C61        21.3103  -30.1340  -41.6071 C.3       10 UNK         0.0169 
     62 H62        13.0890  -24.3006  -45.8730 H         1 UNK         0.0903 
     63 H63        12.5615  -25.9828  -45.7743 H         1 UNK         0.0903 
     64 H64        12.8847  -25.0713  -44.2982 H         1 UNK         0.0903 
     65 H65        14.8551  -25.6115  -43.3669 H         1 UNK         0.3096 
     66 H66        16.9121  -27.0325  -44.8399 H         1 UNK         0.1121 
     67 H67        16.9011  -26.0427  -41.9471 H         1 UNK         0.0849 
     68 H68        18.1028  -27.0887  -42.6506 H         1 UNK         0.0849 
     69 H69        16.1306  -30.4954  -43.0926 H         1 UNK         0.0865 
     70 H70        16.0401  -29.3159  -44.3707 H         1 UNK         0.0865 
     71 H71        18.5003  -29.8010  -41.5381 H         1 UNK         0.1346 
     72 H72        21.8421  -30.1605  -44.2117 H         1 UNK         0.1412 
     73 H73        17.9000  -29.6158  -45.7743 H         1 UNK         0.1426 
     74 H74        19.8834  -30.6030  -47.1534 H         1 UNK         0.0716 
     75 H75        21.5022  -30.3176  -46.5716 H         1 UNK         0.0716 
     76 H76        22.4593  -27.0461  -47.5784 H         1 UNK         0.0695 
     77 H77        22.6660  -28.2151  -46.3310 H         1 UNK         0.0695 
     78 H78        22.5659  -25.5887  -45.8376 H         1 UNK         0.0983 
     79 H79        19.6938  -26.2113  -46.0587 H         1 UNK         0.3095 
     80 H80        18.6683  -22.8910  -45.8026 H         1 UNK         0.0454 
     81 H81        18.7192  -24.5806  -48.3637 H         1 UNK         0.0851 
     82 H82        19.2903  -22.9242  -48.2204 H         1 UNK         0.0851 
     83 H83        17.5843  -23.2782  -48.0069 H         1 UNK         0.0851 
     84 H84        17.2544  -25.2945  -46.4473 H         1 UNK         0.2976 
     85 H85        20.5685  -25.3140  -43.6058 H         1 UNK         0.3116 
     86 H86        20.7826  -27.2690  -41.6492 H         1 UNK         0.0646 
     87 H87        19.2301  -25.3985  -41.4081 H         1 UNK         0.0847 
     88 H88        20.5436  -24.2239  -41.4045 H         1 UNK         0.0847 
     89 H89        20.3250  -25.3242  -40.0530 H         1 UNK         0.0847 
     90 H90        21.9168  -27.4117  -39.7024 H         1 UNK         0.3040 
     91 H91        23.6612  -27.6747  -38.3665 H         1 UNK         0.1015 
     92 H92        24.7978  -25.0475  -39.4636 H         1 UNK         0.0786 
     93 H93        25.2796  -25.8626  -37.9867 H         1 UNK         0.0786 
     94 H94        23.6633  -25.1888  -38.1218 H         1 UNK         0.0786 
     95 H95        23.7449  -29.4395  -40.0945 H         1 UNK         0.3172 
     96 H96        26.5220  -29.8360  -40.9257 H         1 UNK         0.0595 
     97 H97        24.1370  -30.1702  -42.8548 H         1 UNK         0.0839 
     98 H98        25.8080  -30.5975  -43.1999 H         1 UNK         0.0839 
     99 H99        25.3593  -28.9142  -42.9869 H         1 UNK         0.0839 
    100 H100       26.7870  -32.1772  -41.4977 H         1 UNK         0.2998 
    101 H101       25.9629  -33.8290  -39.4131 H         1 UNK         0.0822 
    102 H102       28.0390  -34.1691  -40.7264 H         1 UNK         0.0787 
    103 H103       27.0779  -35.6366  -40.7437 H         1 UNK         0.0787 
    104 H104       27.0988  -34.5932  -42.1585 H         1 UNK         0.0787 
    105 H105       24.1888  -33.1716  -42.2983 H         1 UNK         0.3055 
    106 H106       22.5179  -35.5275  -42.3459 H         1 UNK         0.1106 
    107 H107       22.1153  -32.7244  -43.5337 H         1 UNK         0.0828 
    108 H108       21.1464  -34.1379  -43.9161 H         1 UNK         0.0828 
    109 H109       22.8443  -34.1034  -44.3560 H         1 UNK         0.0828 
    110 H110       22.5813  -32.7972  -40.1880 H         1 UNK         0.2931 
    111 H111       20.0306  -33.6407  -39.0249 H         1 UNK         0.0412 
    112 H112       22.9950  -32.2117  -36.7285 H         1 UNK         0.3472 
    113 H113       23.2254  -32.2301  -38.4607 H         1 UNK         0.3472 
    114 H114       18.9882  -31.4753  -39.0064 H         1 UNK         0.0970 
    115 H115       19.3430  -31.9096  -40.6463 H         1 UNK         0.0970 
    116 H116       21.8612  -31.0647  -41.7287 H         1 UNK         0.0612 
    117 H117       22.0456  -29.3388  -41.7303 H         1 UNK         0.0612 
@<TRIPOS>BOND
     1    1    2 1    
     2    1   62 1    
     3    1   63 1    
     4    1   64 1    
     5    2    3 2    
     6    2    4 am   BACKBONE|DICT|INTERRES
     7    4    5 1    
     8    4   65 1    
     9    5    6 1    
    10    5   25 1    
    11    5   66 1    
    12    6    7 1    
    13    6   67 1    
    14    6   68 1    
    15    7    8 1    
    16    8    9 1    
    17    8   69 1    
    18    8   70 1    
    19    9   10 ar   
    20    9   14 ar   
    21   10   11 ar   
    22   10   71 1    
    23   11   12 ar   
    24   11   61 1    
    25   12   13 ar   
    26   12   72 1    
    27   13   14 ar   
    28   13   15 1    
    29   14   73 1    
    30   15   16 1    
    31   15   74 1    
    32   15   75 1    
    33   16   17 1    
    34   17   18 1    
    35   17   76 1    
    36   17   77 1    
    37   18   19 1    
    38   18   27 1    
    39   18   78 1    
    40   19   20 am   BACKBONE|DICT|INTERRES
    41   19   79 1    
    42   20   21 2    
    43   20   22 1    
    44   22   23 1    
    45   22   24 1    
    46   22   80 1    
    47   23   81 1    
    48   23   82 1    
    49   23   83 1    
    50   24   25 am   BACKBONE|DICT|INTERRES
    51   24   84 1    
    52   25   26 2    
    53   27   28 2    
    54   27   29 am   BACKBONE|DICT|INTERRES
    55   29   30 1    
    56   29   85 1    
    57   30   31 1    
    58   30   32 1    
    59   30   86 1    
    60   31   87 1    
    61   31   88 1    
    62   31   89 1    
    63   32   33 2    
    64   32   34 am   BACKBONE|DICT|INTERRES
    65   34   35 1    
    66   34   90 1    
    67   35   36 1    
    68   35   37 1    
    69   35   91 1    
    70   36   92 1    
    71   36   93 1    
    72   36   94 1    
    73   37   38 2    
    74   37   39 am   BACKBONE|DICT|INTERRES
    75   39   40 1    
    76   39   95 1    
    77   40   41 1    
    78   40   42 1    
    79   40   96 1    
    80   41   97 1    
    81   41   98 1    
    82   41   99 1    
    83   42   43 2    
    84   42   44 am   BACKBONE|DICT|INTERRES
    85   44   45 1    
    86   44  100 1    
    87   45   46 1    
    88   45   47 1    
    89   45  101 1    
    90   46  102 1    
    91   46  103 1    
    92   46  104 1    
    93   47   48 2    
    94   47   49 am   BACKBONE|DICT|INTERRES
    95   49   50 1    
    96   49  105 1    
    97   50   51 1    
    98   50   52 1    
    99   50  106 1    
   100   51  107 1    
   101   51  108 1    
   102   51  109 1    
   103   52   53 2    
   104   52   54 am   BACKBONE|DICT|INTERRES
   105   54   55 1    
   106   54  110 1    
   107   55   56 1    
   108   55   59 1    
   109   55  111 1    
   110   56   57 am   BACKBONE|DICT|INTERRES
   111   56   58 2    
   112   57  112 1    
   113   57  113 1    
   114   59   60 1    
   115   59  114 1    
   116   59  115 1    
   117   60   61 1    
   118   61  116 1    
   119   61  117 1    
@<TRIPOS>SUBSTRUCTURE
     1 UNK         1 GROUP             0       ****    0 ROOT    
