@<TRIPOS>MOLECULE
3R8
117   119    1
SMALL
USER_CHARGES


@<TRIPOS>ATOM
      1 CA         15.7405  -22.6282  -46.6487 C.3       0 UNK        -0.2013 
      2 C          16.5300  -23.7842  -46.0543 C.2       0 UNK         0.4866 
      3 O          17.7387  -23.8710  -46.2627 O.2       0 UNK        -0.5176 
      4 N          15.8612  -24.6605  -45.2933 N.am      1 UNK        -0.4884 
      5 CA         16.4174  -25.8831  -44.6873 C.3       1 UNK         0.0853 
      6 C6         15.3028  -26.9263  -44.4114 C.3       10 UNK        -0.0849 
      7 S7         14.6335  -27.5720  -45.9898 S.3       10 UNK        -0.2776 
      8 C8         15.2063  -29.3098  -46.0601 C.3       10 UNK         0.0316 
      9 C9         16.6193  -29.5120  -45.5253 C.ar      10 UNK        -0.0863 
     10 C10        16.8149  -30.2434  -44.3493 C.ar      10 UNK        -0.1009 
     11 C11        18.0902  -30.3794  -43.7968 C.ar      10 UNK        -0.0712 
     12 C12        19.1743  -29.7752  -44.4396 C.ar      10 UNK        -0.0894 
     13 C13        18.9998  -29.0375  -45.6129 C.ar      10 UNK        -0.0745 
     14 C14        17.7193  -28.9342  -46.1683 C.ar      10 UNK        -0.0972 
     15 C15        20.1829  -28.3158  -46.2490 C.3       10 UNK         0.0209 
     16 S16        19.9650  -26.5105  -46.1366 S.3       10 UNK        -0.2568 
     17 C17        21.5752  -25.8606  -45.5511 C.3       10 UNK        -0.0983 
     18 CA         21.6053  -25.4238  -44.0550 C.3       3 UNK         0.0876 
     19 N          20.3433  -24.8065  -43.6286 N.am      3 UNK        -0.4424 
     20 C          20.0529  -24.3033  -42.4197 C.2       2 UNK         0.4918 
     21 O          20.8819  -24.1669  -41.5200 O.2       2 UNK        -0.4875 
     22 CA         18.5870  -23.8948  -42.1535 C.3       2 UNK         0.0481 
     23 CB         18.4710  -22.3678  -42.0181 C.3       2 UNK        -0.1831 
     24 N          17.6332  -24.3532  -43.1710 N.am      2 UNK        -0.4498 
     25 C          17.3220  -25.6270  -43.4560 C.2       1 UNK         0.5027 
     26 O          17.7688  -26.5811  -42.8171 O.2       1 UNK        -0.4969 
     27 C          22.0614  -26.5836  -43.1457 C.2       3 UNK         0.5005 
     28 O          23.2667  -26.7437  -42.9360 O.2       3 UNK        -0.5279 
     29 N          21.1039  -27.3821  -42.6421 N.am      4 UNK        -0.4463 
     30 CA         21.2737  -28.4925  -41.6881 C.3       4 UNK         0.0283 
     31 CB         21.6479  -27.9406  -40.2977 C.3       4 UNK        -0.1875 
     32 C          22.2482  -29.6052  -42.1335 C.2       4 UNK         0.4949 
     33 O          22.6487  -30.4242  -41.3054 O.2       4 UNK        -0.5039 
     34 N          22.6308  -29.6011  -43.4200 N.am      5 UNK        -0.4663 
     35 CA         23.6381  -30.4501  -44.0621 C.3       5 UNK         0.0242 
     36 CB         23.1301  -31.9037  -44.1582 C.3       5 UNK        -0.1982 
     37 C          25.0217  -30.3164  -43.3941 C.2       5 UNK         0.5017 
     38 O          25.7321  -31.3110  -43.2551 O.2       5 UNK        -0.5012 
     39 N          25.3527  -29.0893  -42.9550 N.am      6 UNK        -0.4439 
     40 CA         26.5146  -28.7351  -42.1274 C.3       6 UNK         0.0297 
     41 CB         27.8395  -28.9617  -42.8873 C.3       6 UNK        -0.2006 
     42 C          26.4745  -29.4264  -40.7479 C.2       6 UNK         0.4892 
     43 O          27.4930  -29.9346  -40.2766 O.2       6 UNK        -0.5089 
     44 N          25.2767  -29.4286  -40.1434 N.am      7 UNK        -0.4243 
     45 CA         24.9025  -30.0522  -38.8684 C.3       7 UNK         0.0196 
     46 CB         25.7010  -29.4518  -37.6911 C.3       7 UNK        -0.2007 
     47 C          24.9311  -31.5942  -38.8968 C.2       7 UNK         0.5020 
     48 O          25.1005  -32.2160  -37.8467 O.2       7 UNK        -0.5147 
     49 N          24.7406  -32.1913  -40.0817 N.am      8 UNK        -0.4734 
     50 CA         24.6096  -33.6400  -40.2606 C.3       8 UNK         0.0238 
     51 CB         25.2266  -34.0622  -41.6026 C.3       8 UNK        -0.1912 
     52 C          23.1513  -34.1185  -40.1523 C.2       8 UNK         0.5038 
     53 O          22.9448  -35.3064  -39.8983 O.2       8 UNK        -0.5046 
     54 N          22.1712  -33.2175  -40.3302 N.am      9 UNK        -0.4200 
     55 CA         20.7472  -33.4889  -40.0700 C.3       9 UNK         0.0839 
     56 C          20.4820  -33.7959  -38.5695 C.2       9 UNK         0.5513 
     57 N          19.6133  -34.7535  -38.2758 N.am      9 UNK        -0.7519 
     58 O          21.0178  -33.1424  -37.6766 O.2       9 UNK        -0.4960 
     59 C59        19.8362  -32.3250  -40.5371 C.3       10 UNK        -0.0876 
     60 S60        19.7331  -32.1601  -42.3498 S.3       10 UNK        -0.2414 
     61 C61        18.2592  -31.0898  -42.4566 C.3       10 UNK         0.0169 
     62 H62        15.8015  -22.6544  -47.7364 H         1 UNK         0.0903 
     63 H63        14.6881  -22.6645  -46.3676 H         1 UNK         0.0903 
     64 H64        16.1507  -21.6780  -46.3076 H         1 UNK         0.0903 
     65 H65        14.8689  -24.5283  -45.1540 H         1 UNK         0.3096 
     66 H66        17.0935  -26.3216  -45.4228 H         1 UNK         0.1121 
     67 H67        15.6611  -27.7532  -43.7981 H         1 UNK         0.0849 
     68 H68        14.4895  -26.4751  -43.8408 H         1 UNK         0.0849 
     69 H69        14.4965  -29.9273  -45.5074 H         1 UNK         0.0865 
     70 H70        15.1619  -29.6548  -47.0940 H         1 UNK         0.0865 
     71 H71        15.9648  -30.6776  -43.8406 H         1 UNK         0.1346 
     72 H72        20.1547  -29.8655  -44.0086 H         1 UNK         0.1412 
     73 H73        17.5703  -28.3539  -47.0690 H         1 UNK         0.1426 
     74 H74        20.2640  -28.6020  -47.2984 H         1 UNK         0.0716 
     75 H75        21.1185  -28.6125  -45.7752 H         1 UNK         0.0716 
     76 H76        21.7835  -24.9832  -46.1652 H         1 UNK         0.0695 
     77 H77        22.3759  -26.5632  -45.7915 H         1 UNK         0.0695 
     78 H78        22.3720  -24.6529  -43.9516 H         1 UNK         0.0983 
     79 H79        19.5998  -24.8509  -44.3123 H         1 UNK         0.3095 
     80 H80        18.2967  -24.3452  -41.2023 H         1 UNK         0.0454 
     81 H81        19.1370  -21.9915  -41.2403 H         1 UNK         0.0851 
     82 H82        17.4590  -22.0680  -41.7454 H         1 UNK         0.0851 
     83 H83        18.7350  -21.8592  -42.9462 H         1 UNK         0.0851 
     84 H84        17.2400  -23.6429  -43.7719 H         1 UNK         0.2976 
     85 H85        20.1445  -27.1714  -42.8934 H         1 UNK         0.3116 
     86 H86        20.2965  -28.9666  -41.6005 H         1 UNK         0.0646 
     87 H87        22.6397  -27.4876  -40.2944 H         1 UNK         0.0847 
     88 H88        20.9360  -27.1832  -39.9696 H         1 UNK         0.0847 
     89 H89        21.6447  -28.7299  -39.5449 H         1 UNK         0.0847 
     90 H90        22.2744  -28.8473  -43.9879 H         1 UNK         0.3040 
     91 H91        23.7642  -30.0783  -45.0802 H         1 UNK         0.1015 
     92 H92        23.8522  -32.5449  -44.6650 H         1 UNK         0.0786 
     93 H93        22.1999  -31.9561  -44.7239 H         1 UNK         0.0786 
     94 H94        22.9378  -32.3326  -43.1754 H         1 UNK         0.0786 
     95 H95        24.6820  -28.3402  -43.1024 H         1 UNK         0.3172 
     96 H96        26.4304  -27.6649  -41.9319 H         1 UNK         0.0595 
     97 H97        28.0338  -30.0200  -43.0631 H         1 UNK         0.0839 
     98 H98        28.6844  -28.5696  -42.3198 H         1 UNK         0.0839 
     99 H99        27.8356  -28.4557  -43.8525 H         1 UNK         0.0839 
    100 H100       24.5039  -29.0306  -40.6582 H         1 UNK         0.2998 
    101 H101       23.8554  -29.7894  -38.7121 H         1 UNK         0.0822 
    102 H102       25.3014  -29.7909  -36.7345 H         1 UNK         0.0787 
    103 H103       25.6523  -28.3629  -37.6922 H         1 UNK         0.0787 
    104 H104       26.7514  -29.7421  -37.7229 H         1 UNK         0.0787 
    105 H105       24.5735  -31.6088  -40.8929 H         1 UNK         0.3055 
    106 H106       25.1694  -34.1493  -39.4726 H         1 UNK         0.1106 
    107 H107       26.2605  -33.7269  -41.6874 H         1 UNK         0.0828 
    108 H108       25.2282  -35.1481  -41.7045 H         1 UNK         0.0828 
    109 H109       24.6751  -33.6608  -42.4504 H         1 UNK         0.0828 
    110 H110       22.4126  -32.2576  -40.5542 H         1 UNK         0.2931 
    111 H111       20.4794  -34.3776  -40.6456 H         1 UNK         0.0412 
    112 H112       19.4144  -34.9561  -37.3082 H         1 UNK         0.3472 
    113 H113       19.1621  -35.2884  -39.0021 H         1 UNK         0.3472 
    114 H114       18.8186  -32.4728  -40.1685 H         1 UNK         0.0970 
    115 H115       20.1767  -31.3783  -40.1129 H         1 UNK         0.0970 
    116 H116       17.3818  -31.6993  -42.2344 H         1 UNK         0.0612 
    117 H117       18.3094  -30.3271  -41.6788 H         1 UNK         0.0612 
@<TRIPOS>BOND
     1    1    2 1    
     2    1   62 1    
     3    1   63 1    
     4    1   64 1    
     5    2    3 2    
     6    2    4 am   BACKBONE|DICT|INTERRES
     7    4    5 1    
     8    4   65 1    
     9    5    6 1    
    10    5   25 1    
    11    5   66 1    
    12    6    7 1    
    13    6   67 1    
    14    6   68 1    
    15    7    8 1    
    16    8    9 1    
    17    8   69 1    
    18    8   70 1    
    19    9   10 ar   
    20    9   14 ar   
    21   10   11 ar   
    22   10   71 1    
    23   11   12 ar   
    24   11   61 1    
    25   12   13 ar   
    26   12   72 1    
    27   13   14 ar   
    28   13   15 1    
    29   14   73 1    
    30   15   16 1    
    31   15   74 1    
    32   15   75 1    
    33   16   17 1    
    34   17   18 1    
    35   17   76 1    
    36   17   77 1    
    37   18   19 1    
    38   18   27 1    
    39   18   78 1    
    40   19   20 am   BACKBONE|DICT|INTERRES
    41   19   79 1    
    42   20   21 2    
    43   20   22 1    
    44   22   23 1    
    45   22   24 1    
    46   22   80 1    
    47   23   81 1    
    48   23   82 1    
    49   23   83 1    
    50   24   25 am   BACKBONE|DICT|INTERRES
    51   24   84 1    
    52   25   26 2    
    53   27   28 2    
    54   27   29 am   BACKBONE|DICT|INTERRES
    55   29   30 1    
    56   29   85 1    
    57   30   31 1    
    58   30   32 1    
    59   30   86 1    
    60   31   87 1    
    61   31   88 1    
    62   31   89 1    
    63   32   33 2    
    64   32   34 am   BACKBONE|DICT|INTERRES
    65   34   35 1    
    66   34   90 1    
    67   35   36 1    
    68   35   37 1    
    69   35   91 1    
    70   36   92 1    
    71   36   93 1    
    72   36   94 1    
    73   37   38 2    
    74   37   39 am   BACKBONE|DICT|INTERRES
    75   39   40 1    
    76   39   95 1    
    77   40   41 1    
    78   40   42 1    
    79   40   96 1    
    80   41   97 1    
    81   41   98 1    
    82   41   99 1    
    83   42   43 2    
    84   42   44 am   BACKBONE|DICT|INTERRES
    85   44   45 1    
    86   44  100 1    
    87   45   46 1    
    88   45   47 1    
    89   45  101 1    
    90   46  102 1    
    91   46  103 1    
    92   46  104 1    
    93   47   48 2    
    94   47   49 am   BACKBONE|DICT|INTERRES
    95   49   50 1    
    96   49  105 1    
    97   50   51 1    
    98   50   52 1    
    99   50  106 1    
   100   51  107 1    
   101   51  108 1    
   102   51  109 1    
   103   52   53 2    
   104   52   54 am   BACKBONE|DICT|INTERRES
   105   54   55 1    
   106   54  110 1    
   107   55   56 1    
   108   55   59 1    
   109   55  111 1    
   110   56   57 am   BACKBONE|DICT|INTERRES
   111   56   58 2    
   112   57  112 1    
   113   57  113 1    
   114   59   60 1    
   115   59  114 1    
   116   59  115 1    
   117   60   61 1    
   118   61  116 1    
   119   61  117 1    
@<TRIPOS>SUBSTRUCTURE
     1 UNK         1 GROUP             0       ****    0 ROOT    
