@<TRIPOS>MOLECULE
3R8
117   119    1
SMALL
USER_CHARGES


@<TRIPOS>ATOM
      1 CA         15.0053  -22.9524  -42.2791 C.3       0 UNK        -0.2013 
      2 C          15.6511  -23.6436  -43.4707 C.2       0 UNK         0.4866 
      3 O          15.3695  -23.2834  -44.6143 O.2       0 UNK        -0.5176 
      4 N          16.5075  -24.6399  -43.2133 N.am      1 UNK        -0.4884 
      5 CA         17.2575  -25.3845  -44.2296 C.3       1 UNK         0.0853 
      6 C6         17.9226  -26.6499  -43.6351 C.3       10 UNK        -0.0849 
      7 S7         16.6965  -27.8882  -43.0960 S.3       10 UNK        -0.2776 
      8 C8         16.9571  -29.2266  -44.3067 C.3       10 UNK         0.0316 
      9 C9         18.2754  -29.9521  -44.0715 C.ar      10 UNK        -0.0863 
     10 C10        18.3830  -30.8841  -43.0359 C.ar      10 UNK        -0.1009 
     11 C11        19.5863  -31.5561  -42.8068 C.ar      10 UNK        -0.0712 
     12 C12        20.6895  -31.2771  -43.6187 C.ar      10 UNK        -0.0894 
     13 C13        20.6025  -30.3503  -44.6626 C.ar      10 UNK        -0.0745 
     14 C14        19.3812  -29.7029  -44.8910 C.ar      10 UNK        -0.0972 
     15 C15        21.8319  -30.1190  -45.5448 C.3       10 UNK         0.0209 
     16 S16        21.9035  -28.4991  -46.3878 S.3       10 UNK        -0.2568 
     17 C17        22.2902  -27.3880  -44.9974 C.3       10 UNK        -0.0983 
     18 CA         22.4021  -25.9074  -45.4401 C.3       3 UNK         0.0876 
     19 N          21.1432  -25.4286  -46.0170 N.am      3 UNK        -0.4424 
     20 C          20.9520  -24.2589  -46.6414 C.2       2 UNK         0.4918 
     21 O          21.8534  -23.4613  -46.8988 O.2       2 UNK        -0.4875 
     22 CA         19.4976  -23.9058  -47.0124 C.3       2 UNK         0.0481 
     23 CB         19.2453  -24.1833  -48.5029 C.3       2 UNK        -0.1831 
     24 N          18.4845  -24.6080  -46.2101 N.am      2 UNK        -0.4498 
     25 C          18.3324  -24.4934  -44.8814 C.2       1 UNK         0.5027 
     26 O          19.0498  -23.7871  -44.1681 O.2       1 UNK        -0.4969 
     27 C          22.8904  -25.0400  -44.2577 C.2       3 UNK         0.5005 
     28 O          24.0898  -25.0463  -43.9766 O.2       3 UNK        -0.5279 
     29 N          21.9691  -24.3353  -43.5759 N.am      4 UNK        -0.4463 
     30 CA         22.1487  -23.4516  -42.4135 C.3       4 UNK         0.0283 
     31 CB         23.0528  -22.2489  -42.7482 C.3       4 UNK        -0.1875 
     32 C          22.6187  -24.1742  -41.1383 C.2       4 UNK         0.4949 
     33 O          21.9317  -24.1157  -40.1191 O.2       4 UNK        -0.5039 
     34 N          23.7649  -24.8574  -41.2227 N.am      5 UNK        -0.4663 
     35 CA         24.3471  -25.6807  -40.1593 C.3       5 UNK         0.0242 
     36 CB         25.8686  -25.7507  -40.3720 C.3       5 UNK        -0.1982 
     37 C          23.7459  -27.0979  -40.0991 C.2       5 UNK         0.5017 
     38 O          24.0116  -27.8160  -39.1342 O.2       5 UNK        -0.5012 
     39 N          22.9646  -27.4721  -41.1244 N.am      6 UNK        -0.4439 
     40 CA         22.3595  -28.7884  -41.3518 C.3       6 UNK         0.0297 
     41 CB         21.3296  -29.1232  -40.2480 C.3       6 UNK        -0.2006 
     42 C          23.4341  -29.8719  -41.5834 C.2       6 UNK         0.4892 
     43 O          24.4493  -29.5868  -42.2221 O.2       6 UNK        -0.5089 
     44 N          23.1870  -31.0904  -41.0949 N.am      7 UNK        -0.4243 
     45 CA         24.0641  -32.2554  -41.1680 C.3       7 UNK         0.0196 
     46 CB         24.0693  -32.8536  -42.5915 C.3       7 UNK        -0.2007 
     47 C          23.5686  -33.2792  -40.1390 C.2       7 UNK         0.5020 
     48 O          22.5590  -33.0424  -39.4678 O.2       7 UNK        -0.5147 
     49 N          24.2587  -34.4215  -40.0516 N.am      8 UNK        -0.4734 
     50 CA         23.8958  -35.5609  -39.2038 C.3       8 UNK         0.0238 
     51 CB         25.1519  -36.4199  -38.9617 C.3       8 UNK        -0.1912 
     52 C          22.7252  -36.3741  -39.7975 C.2       8 UNK         0.5038 
     53 O          22.8931  -37.5529  -40.1164 O.2       8 UNK        -0.5046 
     54 N          21.5640  -35.7241  -39.9468 N.am      9 UNK        -0.4200 
     55 CA         20.3093  -36.3278  -40.4265 C.3       9 UNK         0.0839 
     56 C          19.6503  -37.3259  -39.4283 C.2       9 UNK         0.5513 
     57 N          20.0334  -37.3529  -38.1570 N.am      9 UNK        -0.7519 
     58 O          18.7745  -38.0934  -39.8193 O.2       9 UNK        -0.4960 
     59 C59        19.2824  -35.2539  -40.8740 C.3       10 UNK        -0.0876 
     60 S60        19.8347  -34.2736  -42.3130 S.3       10 UNK        -0.2414 
     61 C61        19.6910  -32.5737  -41.6784 C.3       10 UNK         0.0169 
     62 H62        13.9209  -23.0435  -42.3347 H         1 UNK         0.0903 
     63 H63        15.3332  -23.3805  -41.3320 H         1 UNK         0.0903 
     64 H64        15.2590  -21.8927  -42.2779 H         1 UNK         0.0903 
     65 H65        16.7056  -24.8916  -42.2555 H         1 UNK         0.3096 
     66 H66        16.5517  -25.6927  -45.0046 H         1 UNK         0.1121 
     67 H67        18.5488  -26.3918  -42.7785 H         1 UNK         0.0849 
     68 H68        18.5937  -27.1075  -44.3618 H         1 UNK         0.0849 
     69 H69        16.1345  -29.9389  -44.2266 H         1 UNK         0.0865 
     70 H70        16.9077  -28.8218  -45.3188 H         1 UNK         0.0865 
     71 H71        17.5254  -31.0835  -42.4076 H         1 UNK         0.1346 
     72 H72        21.6177  -31.7988  -43.4454 H         1 UNK         0.1412 
     73 H73        19.2848  -29.0036  -45.7090 H         1 UNK         0.1426 
     74 H74        21.8523  -30.8996  -46.3061 H         1 UNK         0.0716 
     75 H75        22.7429  -30.2408  -44.9557 H         1 UNK         0.0716 
     76 H76        23.2234  -27.7306  -44.5444 H         1 UNK         0.0695 
     77 H77        21.5127  -27.5001  -44.2401 H         1 UNK         0.0695 
     78 H78        23.1671  -25.8359  -46.2166 H         1 UNK         0.0983 
     79 H79        20.3501  -26.0411  -45.9104 H         1 UNK         0.3095 
     80 H80        19.3701  -22.8354  -46.8384 H         1 UNK         0.0454 
     81 H81        19.9641  -23.6497  -49.1265 H         1 UNK         0.0851 
     82 H82        18.2516  -23.8539  -48.8068 H         1 UNK         0.0851 
     83 H83        19.3359  -25.2445  -48.7384 H         1 UNK         0.0851 
     84 H84        17.8558  -25.2123  -46.7208 H         1 UNK         0.2976 
     85 H85        21.0083  -24.3868  -43.8996 H         1 UNK         0.3116 
     86 H86        21.1551  -23.0548  -42.1976 H         1 UNK         0.0646 
     87 H87        24.0729  -22.5511  -42.9863 H         1 UNK         0.0847 
     88 H88        22.6643  -21.6890  -43.5989 H         1 UNK         0.0847 
     89 H89        23.1092  -21.5592  -41.9051 H         1 UNK         0.0847 
     90 H90        24.2228  -24.8783  -42.1325 H         1 UNK         0.3040 
     91 H91        24.1551  -25.2050  -39.1948 H         1 UNK         0.1015 
     92 H92        26.3490  -26.3275  -39.5804 H         1 UNK         0.0786 
     93 H93        26.3165  -24.7568  -40.3640 H         1 UNK         0.0786 
     94 H94        26.1207  -26.2260  -41.3211 H         1 UNK         0.0786 
     95 H95        22.8568  -26.8023  -41.8705 H         1 UNK         0.3172 
     96 H96        21.8082  -28.7119  -42.2884 H         1 UNK         0.0595 
     97 H97        20.7177  -29.9819  -40.5219 H         1 UNK         0.0839 
     98 H98        21.8065  -29.3449  -39.2925 H         1 UNK         0.0839 
     99 H99        20.6432  -28.2915  -40.0886 H         1 UNK         0.0839 
    100 H100       22.3679  -31.2428  -40.5186 H         1 UNK         0.2998 
    101 H101       25.0745  -31.9480  -40.8905 H         1 UNK         0.0822 
    102 H102       24.8581  -33.5985  -42.6990 H         1 UNK         0.0787 
    103 H103       24.2482  -32.0952  -43.3536 H         1 UNK         0.0787 
    104 H104       23.1272  -33.3513  -42.8241 H         1 UNK         0.0787 
    105 H105       25.0555  -34.5523  -40.6588 H         1 UNK         0.3055 
    106 H106       23.5627  -35.1848  -38.2335 H         1 UNK         0.1106 
    107 H107       25.9422  -35.8416  -38.4827 H         1 UNK         0.0828 
    108 H108       24.9286  -37.2625  -38.3058 H         1 UNK         0.0828 
    109 H109       25.5503  -36.8275  -39.8917 H         1 UNK         0.0828 
    110 H110       21.5364  -34.7411  -39.6979 H         1 UNK         0.2931 
    111 H111       20.5613  -36.9201  -41.3085 H         1 UNK         0.0412 
    112 H112       19.5993  -38.0070  -37.5244 H         1 UNK         0.3472 
    113 H113       20.7452  -36.7241  -37.8220 H         1 UNK         0.3472 
    114 H114       18.3395  -35.7232  -41.1624 H         1 UNK         0.0970 
    115 H115       19.0421  -34.5969  -40.0365 H         1 UNK         0.0970 
    116 H116       18.8170  -32.4989  -41.0298 H         1 UNK         0.0612 
    117 H117       20.5564  -32.3511  -41.0570 H         1 UNK         0.0612 
@<TRIPOS>BOND
     1    1    2 1    
     2    1   62 1    
     3    1   63 1    
     4    1   64 1    
     5    2    3 2    
     6    2    4 am   BACKBONE|DICT|INTERRES
     7    4    5 1    
     8    4   65 1    
     9    5    6 1    
    10    5   25 1    
    11    5   66 1    
    12    6    7 1    
    13    6   67 1    
    14    6   68 1    
    15    7    8 1    
    16    8    9 1    
    17    8   69 1    
    18    8   70 1    
    19    9   10 ar   
    20    9   14 ar   
    21   10   11 ar   
    22   10   71 1    
    23   11   12 ar   
    24   11   61 1    
    25   12   13 ar   
    26   12   72 1    
    27   13   14 ar   
    28   13   15 1    
    29   14   73 1    
    30   15   16 1    
    31   15   74 1    
    32   15   75 1    
    33   16   17 1    
    34   17   18 1    
    35   17   76 1    
    36   17   77 1    
    37   18   19 1    
    38   18   27 1    
    39   18   78 1    
    40   19   20 am   BACKBONE|DICT|INTERRES
    41   19   79 1    
    42   20   21 2    
    43   20   22 1    
    44   22   23 1    
    45   22   24 1    
    46   22   80 1    
    47   23   81 1    
    48   23   82 1    
    49   23   83 1    
    50   24   25 am   BACKBONE|DICT|INTERRES
    51   24   84 1    
    52   25   26 2    
    53   27   28 2    
    54   27   29 am   BACKBONE|DICT|INTERRES
    55   29   30 1    
    56   29   85 1    
    57   30   31 1    
    58   30   32 1    
    59   30   86 1    
    60   31   87 1    
    61   31   88 1    
    62   31   89 1    
    63   32   33 2    
    64   32   34 am   BACKBONE|DICT|INTERRES
    65   34   35 1    
    66   34   90 1    
    67   35   36 1    
    68   35   37 1    
    69   35   91 1    
    70   36   92 1    
    71   36   93 1    
    72   36   94 1    
    73   37   38 2    
    74   37   39 am   BACKBONE|DICT|INTERRES
    75   39   40 1    
    76   39   95 1    
    77   40   41 1    
    78   40   42 1    
    79   40   96 1    
    80   41   97 1    
    81   41   98 1    
    82   41   99 1    
    83   42   43 2    
    84   42   44 am   BACKBONE|DICT|INTERRES
    85   44   45 1    
    86   44  100 1    
    87   45   46 1    
    88   45   47 1    
    89   45  101 1    
    90   46  102 1    
    91   46  103 1    
    92   46  104 1    
    93   47   48 2    
    94   47   49 am   BACKBONE|DICT|INTERRES
    95   49   50 1    
    96   49  105 1    
    97   50   51 1    
    98   50   52 1    
    99   50  106 1    
   100   51  107 1    
   101   51  108 1    
   102   51  109 1    
   103   52   53 2    
   104   52   54 am   BACKBONE|DICT|INTERRES
   105   54   55 1    
   106   54  110 1    
   107   55   56 1    
   108   55   59 1    
   109   55  111 1    
   110   56   57 am   BACKBONE|DICT|INTERRES
   111   56   58 2    
   112   57  112 1    
   113   57  113 1    
   114   59   60 1    
   115   59  114 1    
   116   59  115 1    
   117   60   61 1    
   118   61  116 1    
   119   61  117 1    
@<TRIPOS>SUBSTRUCTURE
     1 UNK         1 GROUP             0       ****    0 ROOT    
