@<TRIPOS>MOLECULE
3R8
117   119    1
SMALL
USER_CHARGES


@<TRIPOS>ATOM
      1 CA         14.2850  -24.6644  -43.1205 C.3       0 UNK        -0.2013 
      2 C          15.4839  -25.5676  -43.3656 C.2       0 UNK         0.4866 
      3 O          16.1595  -25.4275  -44.3859 O.2       0 UNK        -0.5176 
      4 N          15.7622  -26.4898  -42.4357 N.am      1 UNK        -0.4884 
      5 CA         16.8654  -27.4582  -42.4951 C.3       1 UNK         0.0853 
      6 C6         16.5658  -28.7235  -41.6523 C.3       10 UNK        -0.0849 
      7 S7         15.0840  -29.5997  -42.2616 S.3       10 UNK        -0.2776 
      8 C8         15.7421  -31.2613  -42.6381 C.3       10 UNK         0.0316 
      9 C9         16.8297  -31.3015  -43.7119 C.ar      10 UNK        -0.0863 
     10 C10        17.8500  -32.2512  -43.6026 C.ar      10 UNK        -0.1009 
     11 C11        18.8549  -32.3411  -44.5704 C.ar      10 UNK        -0.0712 
     12 C12        18.8338  -31.4685  -45.6627 C.ar      10 UNK        -0.0894 
     13 C13        17.8094  -30.5270  -45.8001 C.ar      10 UNK        -0.0745 
     14 C14        16.8093  -30.4510  -44.8247 C.ar      10 UNK        -0.0972 
     15 C15        17.7491  -29.6289  -47.0288 C.3       10 UNK         0.0209 
     16 S16        18.3286  -27.9390  -46.6863 S.3       10 UNK        -0.2568 
     17 C17        20.1420  -28.1498  -46.7217 C.3       10 UNK        -0.0983 
     18 CA         20.8816  -26.8729  -46.2489 C.3       3 UNK         0.0876 
     19 N          20.4732  -26.5065  -44.8941 N.am      3 UNK        -0.4424 
     20 C          20.5253  -25.2873  -44.3505 C.2       2 UNK         0.4918 
     21 O          20.9529  -24.2891  -44.9319 O.2       2 UNK        -0.4875 
     22 CA         19.9366  -25.1850  -42.9351 C.3       2 UNK         0.0481 
     23 CB         19.7765  -23.7343  -42.4463 C.3       2 UNK        -0.1831 
     24 N          18.6327  -25.8440  -42.9514 N.am      2 UNK        -0.4498 
     25 C          18.2032  -26.7896  -42.1119 C.2       1 UNK         0.5027 
     26 O          18.7991  -27.1194  -41.0865 O.2       1 UNK        -0.4969 
     27 C          22.4095  -27.0562  -46.3369 C.2       3 UNK         0.5005 
     28 O          22.9879  -26.8508  -47.4054 O.2       3 UNK        -0.5279 
     29 N          23.0316  -27.4280  -45.2133 N.am      4 UNK        -0.4463 
     30 CA         24.4647  -27.6083  -45.0259 C.3       4 UNK         0.0283 
     31 CB         24.8305  -29.0694  -45.3558 C.3       4 UNK        -0.1875 
     32 C          24.8237  -27.2441  -43.5773 C.2       4 UNK         0.4949 
     33 O          23.9428  -26.9045  -42.7838 O.2       4 UNK        -0.5039 
     34 N          26.1150  -27.3534  -43.2451 N.am      5 UNK        -0.4663 
     35 CA         26.6348  -27.2192  -41.8780 C.3       5 UNK         0.0242 
     36 CB         28.0730  -26.6769  -41.9500 C.3       5 UNK        -0.1982 
     37 C          26.5911  -28.5450  -41.0886 C.2       5 UNK         0.5017 
     38 O          27.0055  -28.5702  -39.9284 O.2       5 UNK        -0.5012 
     39 N          26.1276  -29.6273  -41.7298 N.am      6 UNK        -0.4439 
     40 CA         26.0774  -30.9973  -41.2173 C.3       6 UNK         0.0297 
     41 CB         25.9349  -31.9629  -42.4091 C.3       6 UNK        -0.2006 
     42 C          24.9797  -31.2051  -40.1552 C.2       6 UNK         0.4892 
     43 O          24.0077  -31.9220  -40.4041 O.2       6 UNK        -0.5089 
     44 N          25.1717  -30.5799  -38.9853 N.am      7 UNK        -0.4243 
     45 CA         24.3609  -30.6861  -37.7676 C.3       7 UNK         0.0196 
     46 CB         24.6040  -32.0541  -37.0890 C.3       7 UNK        -0.2007 
     47 C          22.8769  -30.3704  -38.0316 C.2       7 UNK         0.5020 
     48 O          22.5573  -29.2263  -38.3547 O.2       7 UNK        -0.5147 
     49 N          22.0054  -31.3822  -37.9189 N.am      8 UNK        -0.4734 
     50 CA         20.5604  -31.2950  -38.1544 C.3       8 UNK         0.0238 
     51 CB         19.9052  -32.6244  -37.7448 C.3       8 UNK        -0.1912 
     52 C          20.1660  -30.9250  -39.5969 C.2       8 UNK         0.5038 
     53 O          19.0532  -30.4379  -39.7942 O.2       8 UNK        -0.5046 
     54 N          21.0651  -31.1554  -40.5622 N.am      9 UNK        -0.4200 
     55 CA         20.9176  -30.7132  -41.9560 C.3       9 UNK         0.0839 
     56 C          21.4352  -29.2706  -42.2013 C.2       9 UNK         0.5513 
     57 N          22.0942  -28.6142  -41.2553 N.am      9 UNK        -0.7519 
     58 O          21.2430  -28.7370  -43.2893 O.2       9 UNK        -0.4960 
     59 C59        21.5903  -31.7010  -42.9442 C.3       10 UNK        -0.0876 
     60 S60        20.8424  -33.3621  -42.8818 S.3       10 UNK        -0.2414 
     61 C61        19.9376  -33.4101  -44.4632 C.3       10 UNK         0.0169 
     62 H62        14.6025  -23.6229  -43.0793 H         1 UNK         0.0903 
     63 H63        13.5651  -24.7696  -43.9317 H         1 UNK         0.0903 
     64 H64        13.7788  -24.9026  -42.1851 H         1 UNK         0.0903 
     65 H65        15.1793  -26.5529  -41.6130 H         1 UNK         0.3096 
     66 H66        16.9785  -27.7855  -43.5318 H         1 UNK         0.1121 
     67 H67        16.4155  -28.4668  -40.6022 H         1 UNK         0.0849 
     68 H68        17.4190  -29.4043  -41.6772 H         1 UNK         0.0849 
     69 H69        16.1145  -31.6946  -41.7080 H         1 UNK         0.0865 
     70 H70        14.9163  -31.8958  -42.9621 H         1 UNK         0.0865 
     71 H71        17.8644  -32.9310  -42.7614 H         1 UNK         0.1346 
     72 H72        19.6007  -31.5384  -46.4219 H         1 UNK         0.1412 
     73 H73        16.0100  -29.7320  -44.9415 H         1 UNK         0.1426 
     74 H74        16.7183  -29.5766  -47.3822 H         1 UNK         0.0716 
     75 H75        18.3276  -30.0534  -47.8508 H         1 UNK         0.0716 
     76 H76        20.4357  -28.4093  -47.7406 H         1 UNK         0.0695 
     77 H77        20.4093  -29.0011  -46.0923 H         1 UNK         0.0695 
     78 H78        20.6165  -26.0537  -46.9210 H         1 UNK         0.0983 
     79 H79        20.1852  -27.2805  -44.3067 H         1 UNK         0.3095 
     80 H80        20.6211  -25.7093  -42.2648 H         1 UNK         0.0454 
     81 H81        20.7402  -23.2247  -42.4134 H         1 UNK         0.0851 
     82 H82        19.3578  -23.7011  -41.4405 H         1 UNK         0.0851 
     83 H83        19.1217  -23.1582  -43.1011 H         1 UNK         0.0851 
     84 H84        18.0294  -25.6194  -43.7393 H         1 UNK         0.2976 
     85 H85        22.4755  -27.5689  -44.3728 H         1 UNK         0.3116 
     86 H86        25.0101  -26.9313  -45.6866 H         1 UNK         0.0646 
     87 H87        25.9025  -29.2483  -45.2692 H         1 UNK         0.0847 
     88 H88        24.3215  -29.7703  -44.6926 H         1 UNK         0.0847 
     89 H89        24.5509  -29.3227  -46.3786 H         1 UNK         0.0847 
     90 H90        26.7848  -27.6084  -43.9580 H         1 UNK         0.3040 
     91 H91        26.0271  -26.4984  -41.3258 H         1 UNK         0.1015 
     92 H92        28.4816  -26.5133  -40.9518 H         1 UNK         0.0786 
     93 H93        28.1102  -25.7203  -42.4717 H         1 UNK         0.0786 
     94 H94        28.7409  -27.3680  -42.4660 H         1 UNK         0.0786 
     95 H95        25.7810  -29.4884  -42.6659 H         1 UNK         0.3172 
     96 H96        27.0325  -31.2146  -40.7344 H         1 UNK         0.0595 
     97 H97        25.0268  -31.7727  -42.9810 H         1 UNK         0.0839 
     98 H98        25.8949  -32.9991  -42.0702 H         1 UNK         0.0839 
     99 H99        26.7824  -31.8810  -43.0899 H         1 UNK         0.0839 
    100 H100       25.9525  -29.9310  -38.9440 H         1 UNK         0.2998 
    101 H101       24.7185  -29.9113  -37.0876 H         1 UNK         0.0822 
    102 H102       24.0391  -32.1419  -36.1597 H         1 UNK         0.0787 
    103 H103       24.3273  -32.8911  -37.7314 H         1 UNK         0.0787 
    104 H104       25.6561  -32.1771  -36.8312 H         1 UNK         0.0787 
    105 H105       22.3706  -32.2932  -37.6807 H         1 UNK         0.3055 
    106 H106       20.1697  -30.5052  -37.5089 H         1 UNK         0.1106 
    107 H107       20.0925  -32.8550  -36.6960 H         1 UNK         0.0828 
    108 H108       18.8228  -32.5829  -37.8762 H         1 UNK         0.0828 
    109 H109       20.2735  -33.4571  -38.3455 H         1 UNK         0.0828 
    110 H110       21.9691  -31.5446  -40.3164 H         1 UNK         0.2931 
    111 H111       19.8544  -30.6849  -42.2007 H         1 UNK         0.0412 
    112 H112       22.2178  -28.9952  -40.3247 H         1 UNK         0.3472 
    113 H113       22.4889  -27.7136  -41.4892 H         1 UNK         0.3472 
    114 H114       22.6531  -31.7963  -42.7211 H         1 UNK         0.0970 
    115 H115       21.5333  -31.3258  -43.9680 H         1 UNK         0.0970 
    116 H116       20.6557  -33.3220  -45.2799 H         1 UNK         0.0612 
    117 H117       19.4719  -34.3907  -44.5683 H         1 UNK         0.0612 
@<TRIPOS>BOND
     1    1    2 1    
     2    1   62 1    
     3    1   63 1    
     4    1   64 1    
     5    2    3 2    
     6    2    4 am   BACKBONE|DICT|INTERRES
     7    4    5 1    
     8    4   65 1    
     9    5    6 1    
    10    5   25 1    
    11    5   66 1    
    12    6    7 1    
    13    6   67 1    
    14    6   68 1    
    15    7    8 1    
    16    8    9 1    
    17    8   69 1    
    18    8   70 1    
    19    9   10 ar   
    20    9   14 ar   
    21   10   11 ar   
    22   10   71 1    
    23   11   12 ar   
    24   11   61 1    
    25   12   13 ar   
    26   12   72 1    
    27   13   14 ar   
    28   13   15 1    
    29   14   73 1    
    30   15   16 1    
    31   15   74 1    
    32   15   75 1    
    33   16   17 1    
    34   17   18 1    
    35   17   76 1    
    36   17   77 1    
    37   18   19 1    
    38   18   27 1    
    39   18   78 1    
    40   19   20 am   BACKBONE|DICT|INTERRES
    41   19   79 1    
    42   20   21 2    
    43   20   22 1    
    44   22   23 1    
    45   22   24 1    
    46   22   80 1    
    47   23   81 1    
    48   23   82 1    
    49   23   83 1    
    50   24   25 am   BACKBONE|DICT|INTERRES
    51   24   84 1    
    52   25   26 2    
    53   27   28 2    
    54   27   29 am   BACKBONE|DICT|INTERRES
    55   29   30 1    
    56   29   85 1    
    57   30   31 1    
    58   30   32 1    
    59   30   86 1    
    60   31   87 1    
    61   31   88 1    
    62   31   89 1    
    63   32   33 2    
    64   32   34 am   BACKBONE|DICT|INTERRES
    65   34   35 1    
    66   34   90 1    
    67   35   36 1    
    68   35   37 1    
    69   35   91 1    
    70   36   92 1    
    71   36   93 1    
    72   36   94 1    
    73   37   38 2    
    74   37   39 am   BACKBONE|DICT|INTERRES
    75   39   40 1    
    76   39   95 1    
    77   40   41 1    
    78   40   42 1    
    79   40   96 1    
    80   41   97 1    
    81   41   98 1    
    82   41   99 1    
    83   42   43 2    
    84   42   44 am   BACKBONE|DICT|INTERRES
    85   44   45 1    
    86   44  100 1    
    87   45   46 1    
    88   45   47 1    
    89   45  101 1    
    90   46  102 1    
    91   46  103 1    
    92   46  104 1    
    93   47   48 2    
    94   47   49 am   BACKBONE|DICT|INTERRES
    95   49   50 1    
    96   49  105 1    
    97   50   51 1    
    98   50   52 1    
    99   50  106 1    
   100   51  107 1    
   101   51  108 1    
   102   51  109 1    
   103   52   53 2    
   104   52   54 am   BACKBONE|DICT|INTERRES
   105   54   55 1    
   106   54  110 1    
   107   55   56 1    
   108   55   59 1    
   109   55  111 1    
   110   56   57 am   BACKBONE|DICT|INTERRES
   111   56   58 2    
   112   57  112 1    
   113   57  113 1    
   114   59   60 1    
   115   59  114 1    
   116   59  115 1    
   117   60   61 1    
   118   61  116 1    
   119   61  117 1    
@<TRIPOS>SUBSTRUCTURE
     1 UNK         1 GROUP             0       ****    0 ROOT    
