@<TRIPOS>MOLECULE
3R8
117   119    1
SMALL
USER_CHARGES


@<TRIPOS>ATOM
      1 CA         20.4041  -24.2393  -39.1493 C.3       0 UNK        -0.2013 
      2 C          19.5289  -24.3163  -40.3916 C.2       0 UNK         0.4866 
      3 O          19.0277  -23.2915  -40.8552 O.2       0 UNK        -0.5176 
      4 N          19.3434  -25.5252  -40.9325 N.am      1 UNK        -0.4884 
      5 CA         18.6407  -25.7949  -42.1879 C.3       1 UNK         0.0853 
      6 C6         18.2534  -27.2913  -42.2834 C.3       10 UNK        -0.0849 
      7 S7         16.9107  -27.6060  -43.4706 S.3       10 UNK        -0.2776 
      8 C8         16.6876  -29.4059  -43.2697 C.3       10 UNK         0.0316 
      9 C9         17.7805  -30.2370  -43.9371 C.ar      10 UNK        -0.0863 
     10 C10        18.3945  -31.2838  -43.2385 C.ar      10 UNK        -0.1009 
     11 C11        19.3261  -32.1122  -43.8739 C.ar      10 UNK        -0.0712 
     12 C12        19.6728  -31.8626  -45.2046 C.ar      10 UNK        -0.0894 
     13 C13        19.0758  -30.8167  -45.9138 C.ar      10 UNK        -0.0745 
     14 C14        18.1212  -30.0167  -45.2767 C.ar      10 UNK        -0.0972 
     15 C15        19.4249  -30.6009  -47.3833 C.3       10 UNK         0.0209 
     16 S16        19.8536  -28.8765  -47.7868 S.3       10 UNK        -0.2568 
     17 C17        21.3691  -28.6382  -46.8007 C.3       10 UNK        -0.0983 
     18 CA         21.7851  -27.1465  -46.7233 C.3       3 UNK         0.0876 
     19 N          20.7076  -26.3146  -46.1766 N.am      3 UNK        -0.4424 
     20 C          20.5584  -24.9991  -46.3683 C.2       2 UNK         0.4918 
     21 O          21.3307  -24.3231  -47.0500 O.2       2 UNK        -0.4875 
     22 CA         19.3709  -24.3022  -45.6782 C.3       2 UNK         0.0481 
     23 CB         18.2365  -24.0766  -46.6905 C.3       2 UNK        -0.1831 
     24 N          18.8206  -24.9661  -44.4888 N.am      2 UNK        -0.4498 
     25 C          19.4943  -25.3300  -43.3882 C.2       1 UNK         0.5027 
     26 O          20.7257  -25.3195  -43.2999 O.2       1 UNK        -0.4969 
     27 C          23.1112  -26.9352  -45.9519 C.2       3 UNK         0.5005 
     28 O          23.6611  -27.8881  -45.3986 O.2       3 UNK        -0.5279 
     29 N          23.5965  -25.6840  -45.9342 N.am      4 UNK        -0.4463 
     30 CA         24.8332  -25.2027  -45.3052 C.3       4 UNK         0.0283 
     31 CB         26.0717  -25.7992  -46.0085 C.3       4 UNK        -0.1875 
     32 C          24.8520  -25.4030  -43.7764 C.2       4 UNK         0.4949 
     33 O          25.8152  -25.9530  -43.2394 O.2       4 UNK        -0.5039 
     34 N          23.7830  -24.9378  -43.1111 N.am      5 UNK        -0.4663 
     35 CA         23.5305  -25.0231  -41.6645 C.3       5 UNK         0.0242 
     36 CB         24.5681  -24.2090  -40.8615 C.3       5 UNK        -0.1982 
     37 C          23.3914  -26.4807  -41.1861 C.2       5 UNK         0.5017 
     38 O          24.0117  -26.8789  -40.1978 O.2       5 UNK        -0.5012 
     39 N          22.5793  -27.2482  -41.9216 N.am      6 UNK        -0.4439 
     40 CA         22.2405  -28.6419  -41.6330 C.3       6 UNK         0.0297 
     41 CB         21.6787  -29.2887  -42.9104 C.3       6 UNK        -0.2006 
     42 C          21.2633  -28.7698  -40.4504 C.2       6 UNK         0.4892 
     43 O          20.6395  -27.7848  -40.0506 O.2       6 UNK        -0.5089 
     44 N          21.1358  -29.9873  -39.9173 N.am      7 UNK        -0.4243 
     45 CA         20.2468  -30.3257  -38.8089 C.3       7 UNK         0.0196 
     46 CB         20.8511  -29.8515  -37.4666 C.3       7 UNK        -0.2007 
     47 C          19.9604  -31.8301  -38.8874 C.2       7 UNK         0.5020 
     48 O          19.4447  -32.2887  -39.9064 O.2       7 UNK        -0.5147 
     49 N          20.3173  -32.5852  -37.8419 N.am      8 UNK        -0.4734 
     50 CA         20.2880  -34.0474  -37.8251 C.3       8 UNK         0.0238 
     51 CB         20.2314  -34.5326  -36.3646 C.3       8 UNK        -0.1912 
     52 C          21.5164  -34.5912  -38.5750 C.2       8 UNK         0.5038 
     53 O          22.5421  -34.8656  -37.9488 O.2       8 UNK        -0.5046 
     54 N          21.4048  -34.6771  -39.9066 N.am      9 UNK        -0.4200 
     55 CA         22.4803  -35.0945  -40.8229 C.3       9 UNK         0.0839 
     56 C          22.9623  -36.5667  -40.6579 C.2       9 UNK         0.5513 
     57 N          22.1994  -37.4506  -40.0258 N.am      9 UNK        -0.7519 
     58 O          24.0487  -36.9102  -41.1164 O.2       9 UNK        -0.4960 
     59 C59        22.1217  -34.8189  -42.3073 C.3       10 UNK        -0.0876 
     60 S60        21.6349  -33.0915  -42.6547 S.3       10 UNK        -0.2414 
     61 C61        19.9020  -33.3281  -43.1611 C.3       10 UNK         0.0169 
     62 H62        21.2328  -23.5516  -39.3152 H         1 UNK         0.0903 
     63 H63        20.8198  -25.2119  -38.8848 H         1 UNK         0.0903 
     64 H64        19.8229  -23.8763  -38.3022 H         1 UNK         0.0903 
     65 H65        19.8178  -26.3328  -40.5238 H         1 UNK         0.3096 
     66 H66        17.7247  -25.1994  -42.1730 H         1 UNK         0.1121 
     67 H67        17.9067  -27.6433  -41.3100 H         1 UNK         0.0849 
     68 H68        19.1113  -27.9130  -42.5313 H         1 UNK         0.0849 
     69 H69        16.6127  -29.6401  -42.2065 H         1 UNK         0.0865 
     70 H70        15.7297  -29.6862  -43.7099 H         1 UNK         0.0865 
     71 H71        18.1205  -31.4824  -42.2109 H         1 UNK         0.1346 
     72 H72        20.3900  -32.5068  -45.6950 H         1 UNK         0.1412 
     73 H73        17.6334  -29.2260  -45.8304 H         1 UNK         0.1426 
     74 H74        20.2541  -31.2430  -47.6846 H         1 UNK         0.0716 
     75 H75        18.5693  -30.8985  -47.9906 H         1 UNK         0.0716 
     76 H76        22.1629  -29.2367  -47.2514 H         1 UNK         0.0695 
     77 H77        21.2075  -29.0415  -45.8007 H         1 UNK         0.0695 
     78 H78        21.9760  -26.8167  -47.7472 H         1 UNK         0.0983 
     79 H79        20.0332  -26.7893  -45.5958 H         1 UNK         0.3095 
     80 H80        19.7300  -23.3245  -45.3514 H         1 UNK         0.0454 
     81 H81        17.4386  -23.4667  -46.2669 H         1 UNK         0.0851 
     82 H82        17.8003  -25.0197  -47.0227 H         1 UNK         0.0851 
     83 H83        18.5996  -23.5559  -47.5779 H         1 UNK         0.0851 
     84 H84        17.8158  -25.0733  -44.4758 H         1 UNK         0.2976 
     85 H85        23.0292  -24.9768  -46.3953 H         1 UNK         0.3116 
     86 H86        24.8570  -24.1241  -45.4684 H         1 UNK         0.0646 
     87 H87        26.0519  -25.6055  -47.0808 H         1 UNK         0.0847 
     88 H88        26.9908  -25.3604  -45.6181 H         1 UNK         0.0847 
     89 H89        26.1412  -26.8777  -45.8633 H         1 UNK         0.0847 
     90 H90        23.0181  -24.5581  -43.6543 H         1 UNK         0.3040 
     91 H91        22.5584  -24.5579  -41.4948 H         1 UNK         0.1015 
     92 H92        25.5674  -24.6399  -40.9295 H         1 UNK         0.0786 
     93 H93        24.3017  -24.1771  -39.8043 H         1 UNK         0.0786 
     94 H94        24.6217  -23.1786  -41.2127 H         1 UNK         0.0786 
     95 H95        22.0683  -26.7938  -42.6696 H         1 UNK         0.3172 
     96 H96        23.1547  -29.1711  -41.3563 H         1 UNK         0.0595 
     97 H97        22.4819  -29.5324  -43.6053 H         1 UNK         0.0839 
     98 H98        20.9829  -28.6371  -43.4355 H         1 UNK         0.0839 
     99 H99        21.1518  -30.2177  -42.6982 H         1 UNK         0.0839 
    100 H100       21.6210  -30.7678  -40.3404 H         1 UNK         0.2998 
    101 H101       19.2894  -29.8212  -38.9572 H         1 UNK         0.0822 
    102 H102       20.9717  -28.7680  -37.4521 H         1 UNK         0.0787 
    103 H103       20.2022  -30.1039  -36.6269 H         1 UNK         0.0787 
    104 H104       21.8325  -30.2905  -37.2824 H         1 UNK         0.0787 
    105 H105       20.7622  -32.1337  -37.0555 H         1 UNK         0.3055 
    106 H106       19.3873  -34.4026  -38.3319 H         1 UNK         0.1106 
    107 H107       19.3258  -34.1850  -35.8672 H         1 UNK         0.0828 
    108 H108       20.2282  -35.6223  -36.3168 H         1 UNK         0.0828 
    109 H109       21.0864  -34.1839  -35.7837 H         1 UNK         0.0828 
    110 H110       20.5530  -34.3481  -40.3401 H         1 UNK         0.2931 
    111 H111       23.3427  -34.4701  -40.5810 H         1 UNK         0.0412 
    112 H112       21.3059  -37.1790  -39.6483 H         1 UNK         0.3472 
    113 H113       22.5233  -38.3999  -39.9239 H         1 UNK         0.3472 
    114 H114       22.9788  -35.0421  -42.9458 H         1 UNK         0.0970 
    115 H115       21.3312  -35.4984  -42.6310 H         1 UNK         0.0970 
    116 H116       19.8346  -34.1836  -43.8349 H         1 UNK         0.0612 
    117 H117       19.3033  -33.5818  -42.2854 H         1 UNK         0.0612 
@<TRIPOS>BOND
     1    1    2 1    
     2    1   62 1    
     3    1   63 1    
     4    1   64 1    
     5    2    3 2    
     6    2    4 am   BACKBONE|DICT|INTERRES
     7    4    5 1    
     8    4   65 1    
     9    5    6 1    
    10    5   25 1    
    11    5   66 1    
    12    6    7 1    
    13    6   67 1    
    14    6   68 1    
    15    7    8 1    
    16    8    9 1    
    17    8   69 1    
    18    8   70 1    
    19    9   10 ar   
    20    9   14 ar   
    21   10   11 ar   
    22   10   71 1    
    23   11   12 ar   
    24   11   61 1    
    25   12   13 ar   
    26   12   72 1    
    27   13   14 ar   
    28   13   15 1    
    29   14   73 1    
    30   15   16 1    
    31   15   74 1    
    32   15   75 1    
    33   16   17 1    
    34   17   18 1    
    35   17   76 1    
    36   17   77 1    
    37   18   19 1    
    38   18   27 1    
    39   18   78 1    
    40   19   20 am   BACKBONE|DICT|INTERRES
    41   19   79 1    
    42   20   21 2    
    43   20   22 1    
    44   22   23 1    
    45   22   24 1    
    46   22   80 1    
    47   23   81 1    
    48   23   82 1    
    49   23   83 1    
    50   24   25 am   BACKBONE|DICT|INTERRES
    51   24   84 1    
    52   25   26 2    
    53   27   28 2    
    54   27   29 am   BACKBONE|DICT|INTERRES
    55   29   30 1    
    56   29   85 1    
    57   30   31 1    
    58   30   32 1    
    59   30   86 1    
    60   31   87 1    
    61   31   88 1    
    62   31   89 1    
    63   32   33 2    
    64   32   34 am   BACKBONE|DICT|INTERRES
    65   34   35 1    
    66   34   90 1    
    67   35   36 1    
    68   35   37 1    
    69   35   91 1    
    70   36   92 1    
    71   36   93 1    
    72   36   94 1    
    73   37   38 2    
    74   37   39 am   BACKBONE|DICT|INTERRES
    75   39   40 1    
    76   39   95 1    
    77   40   41 1    
    78   40   42 1    
    79   40   96 1    
    80   41   97 1    
    81   41   98 1    
    82   41   99 1    
    83   42   43 2    
    84   42   44 am   BACKBONE|DICT|INTERRES
    85   44   45 1    
    86   44  100 1    
    87   45   46 1    
    88   45   47 1    
    89   45  101 1    
    90   46  102 1    
    91   46  103 1    
    92   46  104 1    
    93   47   48 2    
    94   47   49 am   BACKBONE|DICT|INTERRES
    95   49   50 1    
    96   49  105 1    
    97   50   51 1    
    98   50   52 1    
    99   50  106 1    
   100   51  107 1    
   101   51  108 1    
   102   51  109 1    
   103   52   53 2    
   104   52   54 am   BACKBONE|DICT|INTERRES
   105   54   55 1    
   106   54  110 1    
   107   55   56 1    
   108   55   59 1    
   109   55  111 1    
   110   56   57 am   BACKBONE|DICT|INTERRES
   111   56   58 2    
   112   57  112 1    
   113   57  113 1    
   114   59   60 1    
   115   59  114 1    
   116   59  115 1    
   117   60   61 1    
   118   61  116 1    
   119   61  117 1    
@<TRIPOS>SUBSTRUCTURE
     1 UNK         1 GROUP             0       ****    0 ROOT    
