@<TRIPOS>MOLECULE
3R8
117   119    1
SMALL
USER_CHARGES


@<TRIPOS>ATOM
      1 CA         15.4227  -22.9163  -41.5559 C.3       0 UNK        -0.2013 
      2 C          15.7423  -23.4324  -42.9510 C.2       0 UNK         0.4866 
      3 O          15.4062  -22.7773  -43.9385 O.2       0 UNK        -0.5176 
      4 N          16.3799  -24.6059  -43.0407 N.am      1 UNK        -0.4884 
      5 CA         16.8102  -25.2330  -44.2949 C.3       1 UNK         0.0853 
      6 C6         17.2327  -26.7070  -44.0836 C.3       10 UNK        -0.0849 
      7 S7         15.8833  -27.7522  -43.4348 S.3       10 UNK        -0.2776 
      8 C8         15.9490  -29.1970  -44.5480 C.3       10 UNK         0.0316 
      9 C9         17.3192  -29.8636  -44.5404 C.ar      10 UNK        -0.0863 
     10 C10        17.7895  -30.4956  -43.3854 C.ar      10 UNK        -0.1009 
     11 C11        19.0615  -31.0743  -43.3614 C.ar      10 UNK        -0.0712 
     12 C12        19.8644  -31.0223  -44.5047 C.ar      10 UNK        -0.0894 
     13 C13        19.4023  -30.4010  -45.6693 C.ar      10 UNK        -0.0745 
     14 C14        18.1241  -29.8339  -45.6837 C.ar      10 UNK        -0.0972 
     15 C15        20.2885  -30.3381  -46.9079 C.3       10 UNK         0.0209 
     16 S16        20.6321  -28.6288  -47.4441 S.3       10 UNK        -0.2568 
     17 C17        21.4447  -27.9415  -45.9623 C.3       10 UNK        -0.0983 
     18 CA         21.7258  -26.4213  -46.0671 C.3       3 UNK         0.0876 
     19 N          20.5185  -25.6708  -46.4266 N.am      3 UNK        -0.4424 
     20 C          20.4822  -24.4042  -46.8604 C.2       2 UNK         0.4918 
     21 O          21.4852  -23.7242  -47.0763 O.2       2 UNK        -0.4875 
     22 CA         19.0862  -23.7807  -47.0614 C.3       2 UNK         0.0481 
     23 CB         18.6974  -23.8140  -48.5479 C.3       2 UNK        -0.1831 
     24 N          18.0225  -24.4139  -46.2678 N.am      2 UNK        -0.4498 
     25 C          17.9797  -24.4525  -44.9272 C.2       1 UNK         0.5027 
     26 O          18.8551  -23.9713  -44.2025 O.2       1 UNK        -0.4969 
     27 C          22.3761  -25.9207  -44.7558 C.2       3 UNK         0.5005 
     28 O          23.5384  -26.2477  -44.5097 O.2       3 UNK        -0.5279 
     29 N          21.6254  -25.1609  -43.9384 N.am      4 UNK        -0.4463 
     30 CA         21.9824  -24.6671  -42.6050 C.3       4 UNK         0.0283 
     31 CB         23.1459  -23.6516  -42.6839 C.3       4 UNK        -0.1875 
     32 C          22.2110  -25.8253  -41.6122 C.2       4 UNK         0.4949 
     33 O          21.4948  -26.8280  -41.6738 O.2       4 UNK        -0.5039 
     34 N          23.1828  -25.6765  -40.7030 N.am      5 UNK        -0.4663 
     35 CA         23.5655  -26.6716  -39.6981 C.3       5 UNK         0.0242 
     36 CB         24.3105  -25.9594  -38.5534 C.3       5 UNK        -0.1982 
     37 C          24.3914  -27.8143  -40.3201 C.2       5 UNK         0.5017 
     38 O          25.5811  -27.9520  -40.0259 O.2       5 UNK        -0.5012 
     39 N          23.7485  -28.6062  -41.1867 N.am      6 UNK        -0.4439 
     40 CA         24.3155  -29.7457  -41.9138 C.3       6 UNK         0.0297 
     41 CB         23.4186  -30.0490  -43.1269 C.3       6 UNK        -0.2006 
     42 C          24.5409  -30.9777  -41.0119 C.2       6 UNK         0.4892 
     43 O          23.9550  -32.0377  -41.2474 O.2       6 UNK        -0.5089 
     44 N          25.3918  -30.8030  -39.9910 N.am      7 UNK        -0.4243 
     45 CA         25.7912  -31.7814  -38.9754 C.3       7 UNK         0.0196 
     46 CB         26.7183  -32.8491  -39.6026 C.3       7 UNK        -0.2007 
     47 C          24.5731  -32.3563  -38.2242 C.2       7 UNK         0.5020 
     48 O          23.7192  -31.5877  -37.7790 O.2       7 UNK        -0.5147 
     49 N          24.5066  -33.6869  -38.1015 N.am      8 UNK        -0.4734 
     50 CA         23.3961  -34.4216  -37.4898 C.3       8 UNK         0.0238 
     51 CB         23.9514  -35.7143  -36.8649 C.3       8 UNK        -0.1912 
     52 C          22.2557  -34.7373  -38.4788 C.2       8 UNK         0.5038 
     53 O          21.2983  -35.4019  -38.0797 O.2       8 UNK        -0.5046 
     54 N          22.3718  -34.2908  -39.7396 N.am      9 UNK        -0.4200 
     55 CA         21.4467  -34.5909  -40.8458 C.3       9 UNK         0.0839 
     56 C          21.4914  -36.0753  -41.3298 C.2       9 UNK         0.5513 
     57 N          22.5569  -36.8206  -41.0583 N.am      9 UNK        -0.7519 
     58 O          20.5667  -36.5611  -41.9758 O.2       9 UNK        -0.4960 
     59 C59        20.0081  -34.0560  -40.5756 C.3       10 UNK        -0.0876 
     60 S60        19.1565  -33.5164  -42.0953 S.3       10 UNK        -0.2414 
     61 C61        19.5708  -31.7486  -42.0983 C.3       10 UNK         0.0169 
     62 H62        14.3471  -22.7832  -41.4422 H         1 UNK         0.0903 
     63 H63        15.7633  -23.6012  -40.7796 H         1 UNK         0.0903 
     64 H64        15.9048  -21.9528  -41.3932 H         1 UNK         0.0903 
     65 H65        16.6357  -25.1012  -42.1984 H         1 UNK         0.3096 
     66 H66        15.9653  -25.2077  -44.9872 H         1 UNK         0.1121 
     67 H67        18.0767  -26.7768  -43.3936 H         1 UNK         0.0849 
     68 H68        17.5817  -27.1289  -45.0273 H         1 UNK         0.0849 
     69 H69        15.1956  -29.9214  -44.2354 H         1 UNK         0.0865 
     70 H70        15.6718  -28.8842  -45.5560 H         1 UNK         0.0865 
     71 H71        17.1685  -30.5242  -42.5002 H         1 UNK         0.1346 
     72 H72        20.8493  -31.4684  -44.4854 H         1 UNK         0.1412 
     73 H73        17.7689  -29.3492  -46.5831 H         1 UNK         0.1426 
     74 H74        19.7971  -30.8714  -47.7226 H         1 UNK         0.0716 
     75 H75        21.2375  -30.8480  -46.7345 H         1 UNK         0.0716 
     76 H76        22.3760  -28.4899  -45.8132 H         1 UNK         0.0695 
     77 H77        20.8201  -28.1477  -45.0908 H         1 UNK         0.0695 
     78 H78        22.4586  -26.2660  -46.8621 H         1 UNK         0.0983 
     79 H79        19.6471  -26.1682  -46.3286 H         1 UNK         0.3095 
     80 H80        19.1504  -22.7362  -46.7497 H         1 UNK         0.0454 
     81 H81        19.4548  -23.3228  -49.1606 H         1 UNK         0.0851 
     82 H82        17.7558  -23.2942  -48.7253 H         1 UNK         0.0851 
     83 H83        18.5940  -24.8353  -48.9166 H         1 UNK         0.0851 
     84 H84        17.2706  -24.8402  -46.7916 H         1 UNK         0.2976 
     85 H85        20.6771  -24.9430  -44.2249 H         1 UNK         0.3116 
     86 H86        21.1036  -24.1314  -42.2429 H         1 UNK         0.0646 
     87 H87        24.0912  -24.1289  -42.9449 H         1 UNK         0.0847 
     88 H88        22.9461  -22.8870  -43.4349 H         1 UNK         0.0847 
     89 H89        23.2854  -23.1308  -41.7361 H         1 UNK         0.0847 
     90 H90        23.7447  -24.8382  -40.7389 H         1 UNK         0.3040 
     91 H91        22.6603  -27.1164  -39.2777 H         1 UNK         0.1015 
     92 H92        24.5962  -26.6675  -37.7741 H         1 UNK         0.0786 
     93 H93        23.6842  -25.2004  -38.0842 H         1 UNK         0.0786 
     94 H94        25.2225  -25.4734  -38.9026 H         1 UNK         0.0786 
     95 H95        22.7833  -28.3671  -41.3929 H         1 UNK         0.3172 
     96 H96        25.2945  -29.4517  -42.2979 H         1 UNK         0.0595 
     97 H97        22.4013  -30.2934  -42.8240 H         1 UNK         0.0839 
     98 H98        23.8034  -30.8914  -43.7033 H         1 UNK         0.0839 
     99 H99        23.3709  -29.1923  -43.7981 H         1 UNK         0.0839 
    100 H100       25.7515  -29.8604  -39.8639 H         1 UNK         0.2998 
    101 H101       26.3715  -31.2326  -38.2322 H         1 UNK         0.0822 
    102 H102       27.1321  -33.5148  -38.8441 H         1 UNK         0.0787 
    103 H103       27.5662  -32.3808  -40.1030 H         1 UNK         0.0787 
    104 H104       26.2005  -33.4603  -40.3432 H         1 UNK         0.0787 
    105 H105       25.2511  -34.2405  -38.5018 H         1 UNK         0.3055 
    106 H106       22.9620  -33.8178  -36.6894 H         1 UNK         0.1106 
    107 H107       24.7311  -35.4988  -36.1341 H         1 UNK         0.0828 
    108 H108       23.1689  -36.2668  -36.3427 H         1 UNK         0.0828 
    109 H109       24.3717  -36.3809  -37.6188 H         1 UNK         0.0828 
    110 H110       23.1715  -33.7211  -39.9877 H         1 UNK         0.2931 
    111 H111       21.8557  -34.0201  -41.6803 H         1 UNK         0.0412 
    112 H112       23.3326  -36.4377  -40.5427 H         1 UNK         0.3472 
    113 H113       22.5846  -37.7763  -41.3781 H         1 UNK         0.3472 
    114 H114       19.3995  -34.8113  -40.0751 H         1 UNK         0.0970 
    115 H115       20.0384  -33.2090  -39.8883 H         1 UNK         0.0970 
    116 H116       19.1404  -31.2716  -41.2163 H         1 UNK         0.0612 
    117 H117       20.6522  -31.6333  -42.0171 H         1 UNK         0.0612 
@<TRIPOS>BOND
     1    1    2 1    
     2    1   62 1    
     3    1   63 1    
     4    1   64 1    
     5    2    3 2    
     6    2    4 am   BACKBONE|DICT|INTERRES
     7    4    5 1    
     8    4   65 1    
     9    5    6 1    
    10    5   25 1    
    11    5   66 1    
    12    6    7 1    
    13    6   67 1    
    14    6   68 1    
    15    7    8 1    
    16    8    9 1    
    17    8   69 1    
    18    8   70 1    
    19    9   10 ar   
    20    9   14 ar   
    21   10   11 ar   
    22   10   71 1    
    23   11   12 ar   
    24   11   61 1    
    25   12   13 ar   
    26   12   72 1    
    27   13   14 ar   
    28   13   15 1    
    29   14   73 1    
    30   15   16 1    
    31   15   74 1    
    32   15   75 1    
    33   16   17 1    
    34   17   18 1    
    35   17   76 1    
    36   17   77 1    
    37   18   19 1    
    38   18   27 1    
    39   18   78 1    
    40   19   20 am   BACKBONE|DICT|INTERRES
    41   19   79 1    
    42   20   21 2    
    43   20   22 1    
    44   22   23 1    
    45   22   24 1    
    46   22   80 1    
    47   23   81 1    
    48   23   82 1    
    49   23   83 1    
    50   24   25 am   BACKBONE|DICT|INTERRES
    51   24   84 1    
    52   25   26 2    
    53   27   28 2    
    54   27   29 am   BACKBONE|DICT|INTERRES
    55   29   30 1    
    56   29   85 1    
    57   30   31 1    
    58   30   32 1    
    59   30   86 1    
    60   31   87 1    
    61   31   88 1    
    62   31   89 1    
    63   32   33 2    
    64   32   34 am   BACKBONE|DICT|INTERRES
    65   34   35 1    
    66   34   90 1    
    67   35   36 1    
    68   35   37 1    
    69   35   91 1    
    70   36   92 1    
    71   36   93 1    
    72   36   94 1    
    73   37   38 2    
    74   37   39 am   BACKBONE|DICT|INTERRES
    75   39   40 1    
    76   39   95 1    
    77   40   41 1    
    78   40   42 1    
    79   40   96 1    
    80   41   97 1    
    81   41   98 1    
    82   41   99 1    
    83   42   43 2    
    84   42   44 am   BACKBONE|DICT|INTERRES
    85   44   45 1    
    86   44  100 1    
    87   45   46 1    
    88   45   47 1    
    89   45  101 1    
    90   46  102 1    
    91   46  103 1    
    92   46  104 1    
    93   47   48 2    
    94   47   49 am   BACKBONE|DICT|INTERRES
    95   49   50 1    
    96   49  105 1    
    97   50   51 1    
    98   50   52 1    
    99   50  106 1    
   100   51  107 1    
   101   51  108 1    
   102   51  109 1    
   103   52   53 2    
   104   52   54 am   BACKBONE|DICT|INTERRES
   105   54   55 1    
   106   54  110 1    
   107   55   56 1    
   108   55   59 1    
   109   55  111 1    
   110   56   57 am   BACKBONE|DICT|INTERRES
   111   56   58 2    
   112   57  112 1    
   113   57  113 1    
   114   59   60 1    
   115   59  114 1    
   116   59  115 1    
   117   60   61 1    
   118   61  116 1    
   119   61  117 1    
@<TRIPOS>SUBSTRUCTURE
     1 UNK         1 GROUP             0       ****    0 ROOT    
