@<TRIPOS>MOLECULE
3R8
117   119    1
SMALL
USER_CHARGES


@<TRIPOS>ATOM
      1 CA         17.6534  -32.0837  -47.9988 C.3       0 UNK        -0.2013 
      2 C          17.9551  -31.0875  -46.8896 C.2       0 UNK         0.4866 
      3 O          18.9595  -31.2357  -46.1939 O.2       0 UNK        -0.5176 
      4 N          17.0890  -30.0804  -46.7167 N.am      1 UNK        -0.4884 
      5 CA         17.2336  -29.0081  -45.7271 C.3       1 UNK         0.0853 
      6 C6         15.9242  -28.1959  -45.5614 C.3       10 UNK        -0.0849 
      7 S7         14.6121  -29.2122  -44.7953 S.3       10 UNK        -0.2776 
      8 C8         14.3895  -28.4339  -43.1554 C.3       10 UNK         0.0316 
      9 C9         15.7021  -28.1838  -42.4202 C.ar      10 UNK        -0.0863 
     10 C10        16.5969  -29.2296  -42.1801 C.ar      10 UNK        -0.1009 
     11 C11        17.8320  -28.9833  -41.5740 C.ar      10 UNK        -0.0712 
     12 C12        18.1548  -27.6865  -41.1625 C.ar      10 UNK        -0.0894 
     13 C13        17.2519  -26.6375  -41.3659 C.ar      10 UNK        -0.0745 
     14 C14        16.0307  -26.8931  -41.9969 C.ar      10 UNK        -0.0972 
     15 C15        17.5801  -25.2224  -40.9141 C.3       10 UNK         0.0209 
     16 S16        18.0054  -24.1687  -42.3363 S.3       10 UNK        -0.2568 
     17 C17        19.7614  -23.7940  -42.0214 C.3       10 UNK        -0.0983 
     18 CA         20.7161  -24.9887  -42.2658 C.3       3 UNK         0.0876 
     19 N          20.4975  -25.6258  -43.5724 N.am      3 UNK        -0.4424 
     20 C          21.0721  -26.7632  -43.9808 C.2       2 UNK         0.4918 
     21 O          21.8860  -27.3994  -43.3087 O.2       2 UNK        -0.4875 
     22 CA         20.6479  -27.2737  -45.3594 C.3       2 UNK         0.0481 
     23 CB         21.7116  -28.1845  -46.0016 C.3       2 UNK        -0.1831 
     24 N          19.4045  -28.0136  -45.1953 N.am      2 UNK        -0.4498 
     25 C          18.4191  -28.0952  -46.0944 C.2       1 UNK         0.5027 
     26 O          18.4165  -27.5004  -47.1751 O.2       1 UNK        -0.4969 
     27 C          22.1779  -24.5509  -42.0317 C.2       3 UNK         0.5005 
     28 O          22.6137  -24.4918  -40.8816 O.2       3 UNK        -0.5279 
     29 N          22.9103  -24.2684  -43.1199 N.am      4 UNK        -0.4463 
     30 CA         24.3431  -23.9639  -43.1087 C.3       4 UNK         0.0283 
     31 CB         24.7510  -23.3929  -44.4764 C.3       4 UNK        -0.1875 
     32 C          25.2183  -25.1802  -42.7526 C.2       4 UNK         0.4949 
     33 O          26.3155  -24.9911  -42.2272 O.2       4 UNK        -0.5039 
     34 N          24.7279  -26.3943  -43.0409 N.am      5 UNK        -0.4663 
     35 CA         25.3642  -27.6517  -42.6543 C.3       5 UNK         0.0242 
     36 CB         25.0731  -28.7366  -43.7084 C.3       5 UNK        -0.1982 
     37 C          24.8801  -28.0759  -41.2619 C.2       5 UNK         0.5017 
     38 O          25.7044  -28.2182  -40.3573 O.2       5 UNK        -0.5012 
     39 N          23.5539  -28.2458  -41.1261 N.am      6 UNK        -0.4439 
     40 CA         22.8281  -28.7250  -39.9416 C.3       6 UNK         0.0297 
     41 CB         22.9238  -27.6900  -38.7996 C.3       6 UNK        -0.2006 
     42 C          23.2539  -30.1436  -39.4983 C.2       6 UNK         0.4892 
     43 O          23.9740  -30.8287  -40.2290 O.2       6 UNK        -0.5089 
     44 N          22.7719  -30.5761  -38.3220 N.am      7 UNK        -0.4243 
     45 CA         23.0127  -31.8816  -37.6893 C.3       7 UNK         0.0196 
     46 CB         24.4787  -31.9955  -37.2115 C.3       7 UNK        -0.2007 
     47 C          22.5612  -33.0458  -38.5917 C.2       7 UNK         0.5020 
     48 O          21.3631  -33.3216  -38.6588 O.2       7 UNK        -0.5147 
     49 N          23.5121  -33.6791  -39.2936 N.am      8 UNK        -0.4734 
     50 CA         23.2642  -34.6862  -40.3322 C.3       8 UNK         0.0238 
     51 CB         24.5949  -35.3526  -40.7174 C.3       8 UNK        -0.1912 
     52 C          22.5630  -34.1173  -41.5824 C.2       8 UNK         0.5038 
     53 O          21.9061  -34.8769  -42.2957 O.2       8 UNK        -0.5046 
     54 N          22.6846  -32.8004  -41.7993 N.am      9 UNK        -0.4200 
     55 CA         22.0162  -32.0190  -42.8454 C.3       9 UNK         0.0839 
     56 C          22.5164  -32.3484  -44.2843 C.2       9 UNK         0.5513 
     57 N          21.7508  -32.0404  -45.3229 N.am      9 UNK        -0.7519 
     58 O          23.6267  -32.8409  -44.4766 O.2       9 UNK        -0.4960 
     59 C59        20.4689  -32.0338  -42.6644 C.3       10 UNK        -0.0876 
     60 S60        19.7305  -30.3958  -42.9488 S.3       10 UNK        -0.2414 
     61 C61        18.8209  -30.1223  -41.4002 C.3       10 UNK         0.0169 
     62 H62        17.5539  -33.0864  -47.5839 H         1 UNK         0.0903 
     63 H63        16.7311  -31.8414  -48.5264 H         1 UNK         0.0903 
     64 H64        18.4670  -32.0940  -48.7235 H         1 UNK         0.0903 
     65 H65        16.2838  -30.0069  -47.3217 H         1 UNK         0.3096 
     66 H66        17.4614  -29.4831  -44.7717 H         1 UNK         0.1121 
     67 H67        16.0913  -27.3021  -44.9576 H         1 UNK         0.0849 
     68 H68        15.5692  -27.8357  -46.5287 H         1 UNK         0.0849 
     69 H69        13.8392  -27.5012  -43.2896 H         1 UNK         0.0865 
     70 H70        13.7557  -29.0757  -42.5420 H         1 UNK         0.0865 
     71 H71        16.3502  -30.2308  -42.5073 H         1 UNK         0.1346 
     72 H72        19.1082  -27.4972  -40.6897 H         1 UNK         0.1412 
     73 H73        15.3433  -26.0760  -42.1707 H         1 UNK         0.1426 
     74 H74        18.3877  -25.2269  -40.1807 H         1 UNK         0.0716 
     75 H75        16.7142  -24.7948  -40.4066 H         1 UNK         0.0716 
     76 H76        20.0314  -22.9560  -42.6672 H         1 UNK         0.0695 
     77 H77        19.8583  -23.4270  -40.9974 H         1 UNK         0.0695 
     78 H78        20.5065  -25.7473  -41.5100 H         1 UNK         0.0983 
     79 H79        19.8053  -25.1878  -44.1635 H         1 UNK         0.3095 
     80 H80        20.4908  -26.4085  -46.0068 H         1 UNK         0.0454 
     81 H81        21.8795  -29.0865  -45.4115 H         1 UNK         0.0851 
     82 H82        21.4136  -28.4957  -47.0028 H         1 UNK         0.0851 
     83 H83        22.6682  -27.6687  -46.0913 H         1 UNK         0.0851 
     84 H84        19.3323  -28.5462  -44.3356 H         1 UNK         0.2976 
     85 H85        22.4601  -24.3176  -44.0225 H         1 UNK         0.3116 
     86 H86        24.5206  -23.1970  -42.3516 H         1 UNK         0.0646 
     87 H87        25.8096  -23.1290  -44.4877 H         1 UNK         0.0847 
     88 H88        24.1920  -22.4874  -44.7129 H         1 UNK         0.0847 
     89 H89        24.5872  -24.1109  -45.2811 H         1 UNK         0.0847 
     90 H90        23.7898  -26.4632  -43.4142 H         1 UNK         0.3040 
     91 H91        26.4476  -27.5175  -42.6071 H         1 UNK         0.1015 
     92 H92        25.4737  -28.4566  -44.6827 H         1 UNK         0.0786 
     93 H93        24.0063  -28.9248  -43.8301 H         1 UNK         0.0786 
     94 H94        25.5365  -29.6834  -43.4274 H         1 UNK         0.0786 
     95 H95        22.9755  -28.0784  -41.9466 H         1 UNK         0.3172 
     96 H96        21.7832  -28.7963  -40.2466 H         1 UNK         0.0595 
     97 H97        22.6900  -26.6870  -39.1569 H         1 UNK         0.0839 
     98 H98        23.9229  -27.6608  -38.3632 H         1 UNK         0.0839 
     99 H99        22.2211  -27.9093  -37.9958 H         1 UNK         0.0839 
    100 H100       22.1530  -29.9612  -37.8127 H         1 UNK         0.2998 
    101 H101       22.3775  -31.9207  -36.8028 H         1 UNK         0.0822 
    102 H102       24.7028  -31.2340  -36.4645 H         1 UNK         0.0787 
    103 H103       24.6661  -32.9640  -36.7455 H         1 UNK         0.0787 
    104 H104       25.1960  -31.8738  -38.0237 H         1 UNK         0.0787 
    105 H105       24.4631  -33.3525  -39.1951 H         1 UNK         0.3055 
    106 H106       22.6044  -35.4484  -39.9116 H         1 UNK         0.1106 
    107 H107       24.4389  -36.1287  -41.4681 H         1 UNK         0.0828 
    108 H108       25.3005  -34.6333  -41.1353 H         1 UNK         0.0828 
    109 H109       25.0663  -35.8273  -39.8566 H         1 UNK         0.0828 
    110 H110       23.2706  -32.2560  -41.1706 H         1 UNK         0.2931 
    111 H111       22.3721  -31.0043  -42.6612 H         1 UNK         0.0412 
    112 H112       20.8280  -31.6357  -45.2093 H         1 UNK         0.3472 
    113 H113       22.0882  -32.2409  -46.2504 H         1 UNK         0.3472 
    114 H114       19.9930  -32.7679  -43.3173 H         1 UNK         0.0970 
    115 H115       20.2096  -32.3460  -41.6514 H         1 UNK         0.0970 
    116 H116       19.5249  -29.9117  -40.5939 H         1 UNK         0.0612 
    117 H117       18.2837  -31.0301  -41.1210 H         1 UNK         0.0612 
@<TRIPOS>BOND
     1    1    2 1    
     2    1   62 1    
     3    1   63 1    
     4    1   64 1    
     5    2    3 2    
     6    2    4 am   BACKBONE|DICT|INTERRES
     7    4    5 1    
     8    4   65 1    
     9    5    6 1    
    10    5   25 1    
    11    5   66 1    
    12    6    7 1    
    13    6   67 1    
    14    6   68 1    
    15    7    8 1    
    16    8    9 1    
    17    8   69 1    
    18    8   70 1    
    19    9   10 ar   
    20    9   14 ar   
    21   10   11 ar   
    22   10   71 1    
    23   11   12 ar   
    24   11   61 1    
    25   12   13 ar   
    26   12   72 1    
    27   13   14 ar   
    28   13   15 1    
    29   14   73 1    
    30   15   16 1    
    31   15   74 1    
    32   15   75 1    
    33   16   17 1    
    34   17   18 1    
    35   17   76 1    
    36   17   77 1    
    37   18   19 1    
    38   18   27 1    
    39   18   78 1    
    40   19   20 am   BACKBONE|DICT|INTERRES
    41   19   79 1    
    42   20   21 2    
    43   20   22 1    
    44   22   23 1    
    45   22   24 1    
    46   22   80 1    
    47   23   81 1    
    48   23   82 1    
    49   23   83 1    
    50   24   25 am   BACKBONE|DICT|INTERRES
    51   24   84 1    
    52   25   26 2    
    53   27   28 2    
    54   27   29 am   BACKBONE|DICT|INTERRES
    55   29   30 1    
    56   29   85 1    
    57   30   31 1    
    58   30   32 1    
    59   30   86 1    
    60   31   87 1    
    61   31   88 1    
    62   31   89 1    
    63   32   33 2    
    64   32   34 am   BACKBONE|DICT|INTERRES
    65   34   35 1    
    66   34   90 1    
    67   35   36 1    
    68   35   37 1    
    69   35   91 1    
    70   36   92 1    
    71   36   93 1    
    72   36   94 1    
    73   37   38 2    
    74   37   39 am   BACKBONE|DICT|INTERRES
    75   39   40 1    
    76   39   95 1    
    77   40   41 1    
    78   40   42 1    
    79   40   96 1    
    80   41   97 1    
    81   41   98 1    
    82   41   99 1    
    83   42   43 2    
    84   42   44 am   BACKBONE|DICT|INTERRES
    85   44   45 1    
    86   44  100 1    
    87   45   46 1    
    88   45   47 1    
    89   45  101 1    
    90   46  102 1    
    91   46  103 1    
    92   46  104 1    
    93   47   48 2    
    94   47   49 am   BACKBONE|DICT|INTERRES
    95   49   50 1    
    96   49  105 1    
    97   50   51 1    
    98   50   52 1    
    99   50  106 1    
   100   51  107 1    
   101   51  108 1    
   102   51  109 1    
   103   52   53 2    
   104   52   54 am   BACKBONE|DICT|INTERRES
   105   54   55 1    
   106   54  110 1    
   107   55   56 1    
   108   55   59 1    
   109   55  111 1    
   110   56   57 am   BACKBONE|DICT|INTERRES
   111   56   58 2    
   112   57  112 1    
   113   57  113 1    
   114   59   60 1    
   115   59  114 1    
   116   59  115 1    
   117   60   61 1    
   118   61  116 1    
   119   61  117 1    
@<TRIPOS>SUBSTRUCTURE
     1 UNK         1 GROUP             0       ****    0 ROOT    
