@<TRIPOS>MOLECULE
3R8
117   119    1
SMALL
USER_CHARGES


@<TRIPOS>ATOM
      1 CA         19.5912  -24.4497  -40.4254 C.3       0 UNK        -0.2013 
      2 C          18.3124  -24.5029  -41.2497 C.2       0 UNK         0.4866 
      3 O          17.2455  -24.1374  -40.7546 O.2       0 UNK        -0.5176 
      4 N          18.4139  -24.9561  -42.5006 N.am      1 UNK        -0.4884 
      5 CA         17.3048  -25.1239  -43.4417 C.3       1 UNK         0.0853 
      6 C6         16.5133  -26.4487  -43.2096 C.3       10 UNK        -0.0849 
      7 S7         17.5737  -27.9373  -43.1335 S.3       10 UNK        -0.2776 
      8 C8         16.7747  -29.0975  -44.2848 C.3       10 UNK         0.0316 
      9 C9         17.6448  -30.3329  -44.4677 C.ar      10 UNK        -0.0863 
     10 C10        17.2755  -31.5586  -43.9076 C.ar      10 UNK        -0.1009 
     11 C11        18.0872  -32.6856  -44.0699 C.ar      10 UNK        -0.0712 
     12 C12        19.2922  -32.5682  -44.7714 C.ar      10 UNK        -0.0894 
     13 C13        19.6869  -31.3453  -45.3268 C.ar      10 UNK        -0.0745 
     14 C14        18.8361  -30.2409  -45.1916 C.ar      10 UNK        -0.0972 
     15 C15        21.0437  -31.2755  -46.0377 C.3       10 UNK         0.0209 
     16 S16        21.5393  -29.6527  -46.7267 S.3       10 UNK        -0.2568 
     17 C17        21.8620  -28.6620  -45.2253 C.3       10 UNK        -0.0983 
     18 CA         21.6018  -27.1478  -45.4420 C.3       3 UNK         0.0876 
     19 N          20.2202  -26.8750  -45.8263 N.am      3 UNK        -0.4424 
     20 C          19.8090  -26.3134  -46.9686 C.2       2 UNK         0.4918 
     21 O          20.5506  -26.0479  -47.9150 O.2       2 UNK        -0.4875 
     22 CA         18.3067  -25.9776  -47.0707 C.3       2 UNK         0.0481 
     23 CB         17.5829  -27.0307  -47.9252 C.3       2 UNK        -0.1831 
     24 N          17.6529  -25.8869  -45.7602 N.am      2 UNK        -0.4498 
     25 C          17.8721  -24.9188  -44.8592 C.2       1 UNK         0.5027 
     26 O          18.5301  -23.9050  -45.1037 O.2       1 UNK        -0.4969 
     27 C          21.8781  -26.3531  -44.1514 C.2       3 UNK         0.5005 
     28 O          20.9365  -25.9531  -43.4568 O.2       3 UNK        -0.5279 
     29 N          23.1649  -26.1385  -43.8533 N.am      4 UNK        -0.4463 
     30 CA         23.6451  -25.4681  -42.6418 C.3       4 UNK         0.0283 
     31 CB         25.1382  -25.1437  -42.8270 C.3       4 UNK        -0.1875 
     32 C          23.4340  -26.3144  -41.3726 C.2       4 UNK         0.4949 
     33 O          23.1306  -27.5059  -41.4602 O.2       4 UNK        -0.5039 
     34 N          23.6503  -25.6946  -40.2043 N.am      5 UNK        -0.4663 
     35 CA         23.6570  -26.3638  -38.8983 C.3       5 UNK         0.0242 
     36 CB         23.9405  -25.3297  -37.7976 C.3       5 UNK        -0.1982 
     37 C          24.6877  -27.5082  -38.8486 C.2       5 UNK         0.5017 
     38 O          25.7933  -27.3511  -39.3711 O.2       5 UNK        -0.5012 
     39 N          24.2822  -28.6473  -38.2724 N.am      6 UNK        -0.4439 
     40 CA         24.9763  -29.9447  -38.2196 C.3       6 UNK         0.0297 
     41 CB         26.3702  -29.8352  -37.5696 C.3       6 UNK        -0.2006 
     42 C          25.0414  -30.6965  -39.5660 C.2       6 UNK         0.4892 
     43 O          25.0192  -31.9275  -39.5513 O.2       6 UNK        -0.5089 
     44 N          25.0870  -29.9771  -40.6970 N.am      7 UNK        -0.4243 
     45 CA         24.9836  -30.5423  -42.0470 C.3       7 UNK         0.0196 
     46 CB         25.4836  -29.5196  -43.0801 C.3       7 UNK        -0.2007 
     47 C          23.5512  -30.9968  -42.3777 C.2       7 UNK         0.5020 
     48 O          23.3782  -31.9715  -43.1099 O.2       7 UNK        -0.5147 
     49 N          22.5534  -30.3025  -41.8148 N.am      8 UNK        -0.4734 
     50 CA         21.1169  -30.5786  -41.8989 C.3       8 UNK         0.0238 
     51 CB         20.3563  -29.3373  -41.3993 C.3       8 UNK        -0.1912 
     52 C          20.6827  -31.8649  -41.1669 C.2       8 UNK         0.5038 
     53 O          19.8730  -31.7950  -40.2414 O.2       8 UNK        -0.5046 
     54 N          21.2508  -32.9992  -41.5941 N.am      9 UNK        -0.4200 
     55 CA         20.9945  -34.4057  -41.2289 C.3       9 UNK         0.0839 
     56 C          20.9591  -34.8136  -39.7227 C.2       9 UNK         0.5513 
     57 N          21.0136  -33.8986  -38.7673 N.am      9 UNK        -0.7519 
     58 O          20.9309  -36.0029  -39.4152 O.2       9 UNK        -0.4960 
     59 C59        19.8507  -35.0472  -42.0648 C.3       10 UNK        -0.0876 
     60 S60        18.1911  -34.3240  -41.8109 S.3       10 UNK        -0.2414 
     61 C61        17.6341  -34.0329  -43.5209 C.3       10 UNK         0.0169 
     62 H62        19.8128  -23.4219  -40.1397 H         1 UNK         0.0903 
     63 H63        19.4770  -25.0406  -39.5171 H         1 UNK         0.0903 
     64 H64        20.4464  -24.8418  -40.9760 H         1 UNK         0.0903 
     65 H65        19.3267  -25.2364  -42.8614 H         1 UNK         0.3096 
     66 H66        16.6076  -24.2952  -43.2979 H         1 UNK         0.1121 
     67 H67        15.9911  -26.3822  -42.2539 H         1 UNK         0.0849 
     68 H68        15.7235  -26.5738  -43.9524 H         1 UNK         0.0849 
     69 H69        15.7905  -29.3678  -43.8987 H         1 UNK         0.0865 
     70 H70        16.6099  -28.6240  -45.2526 H         1 UNK         0.0865 
     71 H71        16.3509  -31.6407  -43.3524 H         1 UNK         0.1346 
     72 H72        19.9278  -33.4346  -44.8895 H         1 UNK         0.1412 
     73 H73        19.1021  -29.2896  -45.6229 H         1 UNK         0.1426 
     74 H74        21.8222  -31.6060  -45.3489 H         1 UNK         0.0716 
     75 H75        21.0360  -31.9942  -46.8582 H         1 UNK         0.0716 
     76 H76        22.8963  -28.8393  -44.9259 H         1 UNK         0.0695 
     77 H77        21.2441  -29.0320  -44.4086 H         1 UNK         0.0695 
     78 H78        22.2828  -26.7782  -46.2118 H         1 UNK         0.0983 
     79 H79        19.5572  -26.9620  -45.0694 H         1 UNK         0.3095 
     80 H80        18.2142  -25.0097  -47.5678 H         1 UNK         0.0454 
     81 H81        16.5254  -26.7931  -48.0408 H         1 UNK         0.0851 
     82 H82        17.6606  -28.0291  -47.4934 H         1 UNK         0.0851 
     83 H83        18.0127  -27.0788  -48.9268 H         1 UNK         0.0851 
     84 H84        17.0979  -26.6794  -45.4746 H         1 UNK         0.2976 
     85 H85        23.8740  -26.5200  -44.4618 H         1 UNK         0.3116 
     86 H86        23.0911  -24.5345  -42.5238 H         1 UNK         0.0646 
     87 H87        25.3063  -24.5339  -43.7149 H         1 UNK         0.0847 
     88 H88        25.5324  -24.5838  -41.9780 H         1 UNK         0.0847 
     89 H89        25.7389  -26.0495  -42.9220 H         1 UNK         0.0847 
     90 H90        23.9269  -24.7237  -40.2138 H         1 UNK         0.3040 
     91 H91        22.6588  -26.7783  -38.7406 H         1 UNK         0.1015 
     92 H92        24.9193  -24.8649  -37.9241 H         1 UNK         0.0786 
     93 H93        23.9264  -25.7952  -36.8110 H         1 UNK         0.0786 
     94 H94        23.1901  -24.5388  -37.7916 H         1 UNK         0.0786 
     95 H95        23.3468  -28.6625  -37.8884 H         1 UNK         0.3172 
     96 H96        24.3654  -30.5632  -37.5597 H         1 UNK         0.0595 
     97 H97        27.0745  -29.2863  -38.1950 H         1 UNK         0.0839 
     98 H98        26.7967  -30.8253  -37.4031 H         1 UNK         0.0839 
     99 H99        26.3203  -29.3373  -36.6013 H         1 UNK         0.0839 
    100 H100       25.1262  -28.9677  -40.6184 H         1 UNK         0.2998 
    101 H101       25.6293  -31.4215  -42.1009 H         1 UNK         0.0822 
    102 H102       26.5147  -29.2268  -42.8816 H         1 UNK         0.0787 
    103 H103       25.4530  -29.9388  -44.0868 H         1 UNK         0.0787 
    104 H104       24.8741  -28.6166  -43.0868 H         1 UNK         0.0787 
    105 H105       22.8072  -29.4489  -41.3262 H         1 UNK         0.3055 
    106 H106       20.8596  -30.7289  -42.9460 H         1 UNK         0.1106 
    107 H107       20.5518  -28.4683  -42.0280 H         1 UNK         0.0828 
    108 H108       19.2799  -29.5092  -41.4132 H         1 UNK         0.0828 
    109 H109       20.6313  -29.0790  -40.3763 H         1 UNK         0.0828 
    110 H110       21.9786  -32.8755  -42.2935 H         1 UNK         0.2931 
    111 H111       21.9056  -34.8949  -41.5762 H         1 UNK         0.0412 
    112 H112       20.8887  -32.9269  -39.0252 H         1 UNK         0.3472 
    113 H113       21.0075  -34.1796  -37.7998 H         1 UNK         0.3472 
    114 H114       19.7848  -36.1175  -41.8608 H         1 UNK         0.0970 
    115 H115       20.1122  -34.9825  -43.1206 H         1 UNK         0.0970 
    116 H116       16.5442  -34.0805  -43.5358 H         1 UNK         0.0612 
    117 H117       17.9731  -34.8435  -44.1678 H         1 UNK         0.0612 
@<TRIPOS>BOND
     1    1    2 1    
     2    1   62 1    
     3    1   63 1    
     4    1   64 1    
     5    2    3 2    
     6    2    4 am   BACKBONE|DICT|INTERRES
     7    4    5 1    
     8    4   65 1    
     9    5    6 1    
    10    5   25 1    
    11    5   66 1    
    12    6    7 1    
    13    6   67 1    
    14    6   68 1    
    15    7    8 1    
    16    8    9 1    
    17    8   69 1    
    18    8   70 1    
    19    9   10 ar   
    20    9   14 ar   
    21   10   11 ar   
    22   10   71 1    
    23   11   12 ar   
    24   11   61 1    
    25   12   13 ar   
    26   12   72 1    
    27   13   14 ar   
    28   13   15 1    
    29   14   73 1    
    30   15   16 1    
    31   15   74 1    
    32   15   75 1    
    33   16   17 1    
    34   17   18 1    
    35   17   76 1    
    36   17   77 1    
    37   18   19 1    
    38   18   27 1    
    39   18   78 1    
    40   19   20 am   BACKBONE|DICT|INTERRES
    41   19   79 1    
    42   20   21 2    
    43   20   22 1    
    44   22   23 1    
    45   22   24 1    
    46   22   80 1    
    47   23   81 1    
    48   23   82 1    
    49   23   83 1    
    50   24   25 am   BACKBONE|DICT|INTERRES
    51   24   84 1    
    52   25   26 2    
    53   27   28 2    
    54   27   29 am   BACKBONE|DICT|INTERRES
    55   29   30 1    
    56   29   85 1    
    57   30   31 1    
    58   30   32 1    
    59   30   86 1    
    60   31   87 1    
    61   31   88 1    
    62   31   89 1    
    63   32   33 2    
    64   32   34 am   BACKBONE|DICT|INTERRES
    65   34   35 1    
    66   34   90 1    
    67   35   36 1    
    68   35   37 1    
    69   35   91 1    
    70   36   92 1    
    71   36   93 1    
    72   36   94 1    
    73   37   38 2    
    74   37   39 am   BACKBONE|DICT|INTERRES
    75   39   40 1    
    76   39   95 1    
    77   40   41 1    
    78   40   42 1    
    79   40   96 1    
    80   41   97 1    
    81   41   98 1    
    82   41   99 1    
    83   42   43 2    
    84   42   44 am   BACKBONE|DICT|INTERRES
    85   44   45 1    
    86   44  100 1    
    87   45   46 1    
    88   45   47 1    
    89   45  101 1    
    90   46  102 1    
    91   46  103 1    
    92   46  104 1    
    93   47   48 2    
    94   47   49 am   BACKBONE|DICT|INTERRES
    95   49   50 1    
    96   49  105 1    
    97   50   51 1    
    98   50   52 1    
    99   50  106 1    
   100   51  107 1    
   101   51  108 1    
   102   51  109 1    
   103   52   53 2    
   104   52   54 am   BACKBONE|DICT|INTERRES
   105   54   55 1    
   106   54  110 1    
   107   55   56 1    
   108   55   59 1    
   109   55  111 1    
   110   56   57 am   BACKBONE|DICT|INTERRES
   111   56   58 2    
   112   57  112 1    
   113   57  113 1    
   114   59   60 1    
   115   59  114 1    
   116   59  115 1    
   117   60   61 1    
   118   61  116 1    
   119   61  117 1    
@<TRIPOS>SUBSTRUCTURE
     1 UNK         1 GROUP             0       ****    0 ROOT    
