@<TRIPOS>MOLECULE
3R8
117   119    1
SMALL
USER_CHARGES


@<TRIPOS>ATOM
      1 CA         18.5005  -23.9576  -40.1399 C.3       0 UNK        -0.2013 
      2 C          17.7802  -23.9422  -41.4796 C.2       0 UNK         0.4866 
      3 O          17.2475  -22.9067  -41.8784 O.2       0 UNK        -0.5176 
      4 N          17.7660  -25.0818  -42.1832 N.am      1 UNK        -0.4884 
      5 CA         17.0765  -25.2677  -43.4695 C.3       1 UNK         0.0853 
      6 C6         16.7709  -26.7589  -43.7585 C.3       10 UNK        -0.0849 
      7 S7         16.0237  -27.6903  -42.3751 S.3       10 UNK        -0.2776 
      8 C8         15.3424  -29.1494  -43.2383 C.3       10 UNK         0.0316 
      9 C9         16.4077  -29.8924  -44.0350 C.ar      10 UNK        -0.0863 
     10 C10        17.1661  -30.9089  -43.4482 C.ar      10 UNK        -0.1009 
     11 C11        18.1654  -31.5592  -44.1806 C.ar      10 UNK        -0.0712 
     12 C12        18.4294  -31.1586  -45.4958 C.ar      10 UNK        -0.0894 
     13 C13        17.6769  -30.1418  -46.0949 C.ar      10 UNK        -0.0745 
     14 C14        16.6419  -29.5472  -45.3676 C.ar      10 UNK        -0.0972 
     15 C15        17.9672  -29.7069  -47.5300 C.3       10 UNK         0.0209 
     16 S16        17.8652  -27.8926  -47.7605 S.3       10 UNK        -0.2568 
     17 C17        19.5025  -27.4729  -48.4506 C.3       10 UNK        -0.0983 
     18 CA         20.5057  -26.8932  -47.4209 C.3       3 UNK         0.0876 
     19 N          19.9877  -25.6953  -46.7453 N.am      3 UNK        -0.4424 
     20 C          20.7525  -24.7255  -46.2268 C.2       2 UNK         0.4918 
     21 O          21.9759  -24.6849  -46.3546 O.2       2 UNK        -0.4875 
     22 CA         20.0581  -23.6360  -45.3890 C.3       2 UNK         0.0481 
     23 CB         19.4857  -22.5152  -46.2789 C.3       2 UNK        -0.1831 
     24 N          19.0685  -24.1599  -44.4346 N.am      2 UNK        -0.4498 
     25 C          17.8500  -24.6707  -44.6704 C.2       1 UNK         0.5027 
     26 O          17.3586  -24.7476  -45.7966 O.2       1 UNK        -0.4969 
     27 C          20.9986  -27.9703  -46.4277 C.2       3 UNK         0.5005 
     28 O          21.7195  -28.8810  -46.8404 O.2       3 UNK        -0.5279 
     29 N          20.6071  -27.8566  -45.1498 N.am      4 UNK        -0.4463 
     30 CA         21.0411  -28.7290  -44.0596 C.3       4 UNK         0.0283 
     31 CB         20.1559  -28.4863  -42.8258 C.3       4 UNK        -0.1875 
     32 C          22.5188  -28.5052  -43.7038 C.2       4 UNK         0.4949 
     33 O          23.0062  -27.3749  -43.7836 O.2       4 UNK        -0.5039 
     34 N          23.1928  -29.5823  -43.2858 N.am      5 UNK        -0.4663 
     35 CA         24.5733  -29.5493  -42.7990 C.3       5 UNK         0.0242 
     36 CB         25.1414  -30.9785  -42.8128 C.3       5 UNK        -0.1982 
     37 C          24.6572  -28.9550  -41.3832 C.2       5 UNK         0.5017 
     38 O          23.6849  -29.0299  -40.6278 O.2       5 UNK        -0.5012 
     39 N          25.8427  -28.4424  -41.0228 N.am      6 UNK        -0.4439 
     40 CA         26.1530  -27.8611  -39.7077 C.3       6 UNK         0.0297 
     41 CB         27.5641  -27.2522  -39.7429 C.3       6 UNK        -0.2006 
     42 C          26.0233  -28.8455  -38.5278 C.2       6 UNK         0.4892 
     43 O          25.8006  -28.4091  -37.3987 O.2       6 UNK        -0.5089 
     44 N          26.1251  -30.1501  -38.8156 N.am      7 UNK        -0.4243 
     45 CA         25.8845  -31.2558  -37.8847 C.3       7 UNK         0.0196 
     46 CB         26.6948  -32.4753  -38.3618 C.3       7 UNK        -0.2007 
     47 C          24.3889  -31.6100  -37.7273 C.2       7 UNK         0.5020 
     48 O          24.0847  -32.6725  -37.1841 O.2       7 UNK        -0.5147 
     49 N          23.4818  -30.7611  -38.2390 N.am      8 UNK        -0.4734 
     50 CA         22.0212  -30.9312  -38.2849 C.3       8 UNK         0.0238 
     51 CB         21.4146  -30.9124  -36.8654 C.3       8 UNK        -0.1912 
     52 C          21.6025  -32.1651  -39.1069 C.2       8 UNK         0.5038 
     53 O          20.6559  -32.8640  -38.7407 O.2       8 UNK        -0.5046 
     54 N          22.3514  -32.4120  -40.1902 N.am      9 UNK        -0.4200 
     55 CA         22.2551  -33.5772  -41.0856 C.3       9 UNK         0.0839 
     56 C          22.6843  -34.9295  -40.4368 C.2       9 UNK         0.5513 
     57 N          23.2940  -34.9458  -39.2562 N.am      9 UNK        -0.7519 
     58 O          22.4944  -35.9873  -41.0316 O.2       9 UNK        -0.4960 
     59 C59        20.8903  -33.6778  -41.8254 C.3       10 UNK        -0.0876 
     60 S60        20.4467  -32.1512  -42.7203 S.3       10 UNK        -0.2414 
     61 C61        18.9355  -32.7132  -43.5564 C.3       10 UNK         0.0169 
     62 H62        17.8060  -23.7059  -39.3387 H         1 UNK         0.0903 
     63 H63        18.9324  -24.9336  -39.9193 H         1 UNK         0.0903 
     64 H64        19.3046  -23.2222  -40.1370 H         1 UNK         0.0903 
     65 H65        18.1828  -25.9143  -41.7907 H         1 UNK         0.3096 
     66 H66        16.1228  -24.7369  -43.4195 H         1 UNK         0.1121 
     67 H67        17.6802  -27.2823  -44.0566 H         1 UNK         0.0849 
     68 H68        16.0909  -26.8220  -44.6098 H         1 UNK         0.0849 
     69 H69        14.8928  -29.8188  -42.5033 H         1 UNK         0.0865 
     70 H70        14.5306  -28.8335  -43.8954 H         1 UNK         0.0865 
     71 H71        16.9789  -31.1951  -42.4221 H         1 UNK         0.1346 
     72 H72        19.2164  -31.6470  -46.0542 H         1 UNK         0.1412 
     73 H73        16.0373  -28.7806  -45.8312 H         1 UNK         0.1426 
     74 H74        17.2453  -30.1846  -48.1932 H         1 UNK         0.0716 
     75 H75        18.9505  -30.0669  -47.8353 H         1 UNK         0.0716 
     76 H76        19.3370  -26.7323  -49.2344 H         1 UNK         0.0695 
     77 H77        19.9272  -28.3370  -48.9646 H         1 UNK         0.0695 
     78 H78        21.3907  -26.5945  -47.9875 H         1 UNK         0.0983 
     79 H79        18.9807  -25.6324  -46.6318 H         1 UNK         0.3095 
     80 H80        20.8332  -23.1828  -44.7689 H         1 UNK         0.0454 
     81 H81        18.7392  -22.8849  -46.9821 H         1 UNK         0.0851 
     82 H82        20.2764  -22.0498  -46.8686 H         1 UNK         0.0851 
     83 H83        19.0238  -21.7302  -45.6804 H         1 UNK         0.0851 
     84 H84        19.3709  -24.1671  -43.4702 H         1 UNK         0.2976 
     85 H85        20.0517  -27.0550  -44.8991 H         1 UNK         0.3116 
     86 H86        20.9117  -29.7620  -44.3870 H         1 UNK         0.0646 
     87 H87        19.1241  -28.7775  -43.0170 H         1 UNK         0.0847 
     88 H88        20.1681  -27.4414  -42.5150 H         1 UNK         0.0847 
     89 H89        20.4977  -29.0806  -41.9770 H         1 UNK         0.0847 
     90 H90        22.7000  -30.4606  -43.2054 H         1 UNK         0.3040 
     91 H91        25.1640  -28.9272  -43.4758 H         1 UNK         0.1015 
     92 H92        24.6160  -31.6318  -42.1170 H         1 UNK         0.0786 
     93 H93        26.1955  -30.9860  -42.5322 H         1 UNK         0.0786 
     94 H94        25.0727  -31.4229  -43.8061 H         1 UNK         0.0786 
     95 H95        26.5914  -28.4356  -41.7016 H         1 UNK         0.3172 
     96 H96        25.4386  -27.0541  -39.5318 H         1 UNK         0.0595 
     97 H97        28.3260  -28.0068  -39.9431 H         1 UNK         0.0839 
     98 H98        27.8121  -26.7859  -38.7881 H         1 UNK         0.0839 
     99 H99        27.6458  -26.4790  -40.5072 H         1 UNK         0.0839 
    100 H100       26.3181  -30.4042  -39.7731 H         1 UNK         0.2998 
    101 H101       26.2499  -30.9702  -36.8960 H         1 UNK         0.0822 
    102 H102       27.7542  -32.2359  -38.4570 H         1 UNK         0.0787 
    103 H103       26.6177  -33.3018  -37.6539 H         1 UNK         0.0787 
    104 H104       26.3438  -32.8407  -39.3279 H         1 UNK         0.0787 
    105 H105       23.8250  -29.9420  -38.7292 H         1 UNK         0.3055 
    106 H106       21.6282  -30.0669  -38.8235 H         1 UNK         0.1106 
    107 H107       21.7093  -31.7874  -36.2854 H         1 UNK         0.0828 
    108 H108       20.3248  -30.9043  -36.9072 H         1 UNK         0.0828 
    109 H109       21.7232  -30.0243  -36.3141 H         1 UNK         0.0828 
    110 H110       23.1028  -31.7687  -40.3866 H         1 UNK         0.2931 
    111 H111       23.0102  -33.4011  -41.8518 H         1 UNK         0.0412 
    112 H112       23.5735  -35.8309  -38.8637 H         1 UNK         0.3472 
    113 H113       23.4469  -34.0951  -38.7304 H         1 UNK         0.3472 
    114 H114       20.0907  -33.9194  -41.1234 H         1 UNK         0.0970 
    115 H115       20.9136  -34.4936  -42.5504 H         1 UNK         0.0970 
    116 H116       18.2986  -33.2335  -42.8392 H         1 UNK         0.0612 
    117 H117       19.1995  -33.4458  -44.3206 H         1 UNK         0.0612 
@<TRIPOS>BOND
     1    1    2 1    
     2    1   62 1    
     3    1   63 1    
     4    1   64 1    
     5    2    3 2    
     6    2    4 am   BACKBONE|DICT|INTERRES
     7    4    5 1    
     8    4   65 1    
     9    5    6 1    
    10    5   25 1    
    11    5   66 1    
    12    6    7 1    
    13    6   67 1    
    14    6   68 1    
    15    7    8 1    
    16    8    9 1    
    17    8   69 1    
    18    8   70 1    
    19    9   10 ar   
    20    9   14 ar   
    21   10   11 ar   
    22   10   71 1    
    23   11   12 ar   
    24   11   61 1    
    25   12   13 ar   
    26   12   72 1    
    27   13   14 ar   
    28   13   15 1    
    29   14   73 1    
    30   15   16 1    
    31   15   74 1    
    32   15   75 1    
    33   16   17 1    
    34   17   18 1    
    35   17   76 1    
    36   17   77 1    
    37   18   19 1    
    38   18   27 1    
    39   18   78 1    
    40   19   20 am   BACKBONE|DICT|INTERRES
    41   19   79 1    
    42   20   21 2    
    43   20   22 1    
    44   22   23 1    
    45   22   24 1    
    46   22   80 1    
    47   23   81 1    
    48   23   82 1    
    49   23   83 1    
    50   24   25 am   BACKBONE|DICT|INTERRES
    51   24   84 1    
    52   25   26 2    
    53   27   28 2    
    54   27   29 am   BACKBONE|DICT|INTERRES
    55   29   30 1    
    56   29   85 1    
    57   30   31 1    
    58   30   32 1    
    59   30   86 1    
    60   31   87 1    
    61   31   88 1    
    62   31   89 1    
    63   32   33 2    
    64   32   34 am   BACKBONE|DICT|INTERRES
    65   34   35 1    
    66   34   90 1    
    67   35   36 1    
    68   35   37 1    
    69   35   91 1    
    70   36   92 1    
    71   36   93 1    
    72   36   94 1    
    73   37   38 2    
    74   37   39 am   BACKBONE|DICT|INTERRES
    75   39   40 1    
    76   39   95 1    
    77   40   41 1    
    78   40   42 1    
    79   40   96 1    
    80   41   97 1    
    81   41   98 1    
    82   41   99 1    
    83   42   43 2    
    84   42   44 am   BACKBONE|DICT|INTERRES
    85   44   45 1    
    86   44  100 1    
    87   45   46 1    
    88   45   47 1    
    89   45  101 1    
    90   46  102 1    
    91   46  103 1    
    92   46  104 1    
    93   47   48 2    
    94   47   49 am   BACKBONE|DICT|INTERRES
    95   49   50 1    
    96   49  105 1    
    97   50   51 1    
    98   50   52 1    
    99   50  106 1    
   100   51  107 1    
   101   51  108 1    
   102   51  109 1    
   103   52   53 2    
   104   52   54 am   BACKBONE|DICT|INTERRES
   105   54   55 1    
   106   54  110 1    
   107   55   56 1    
   108   55   59 1    
   109   55  111 1    
   110   56   57 am   BACKBONE|DICT|INTERRES
   111   56   58 2    
   112   57  112 1    
   113   57  113 1    
   114   59   60 1    
   115   59  114 1    
   116   59  115 1    
   117   60   61 1    
   118   61  116 1    
   119   61  117 1    
@<TRIPOS>SUBSTRUCTURE
     1 UNK         1 GROUP             0       ****    0 ROOT    
