@<TRIPOS>MOLECULE
3R8
117   119    1
SMALL
USER_CHARGES


@<TRIPOS>ATOM
      1 CA         14.3418  -23.2614  -46.3070 C.3       0 UNK        -0.2013 
      2 C          15.1524  -24.1975  -45.4231 C.2       0 UNK         0.4866 
      3 O          16.2428  -23.8324  -44.9831 O.2       0 UNK        -0.5176 
      4 N          14.6318  -25.4039  -45.1665 N.am      1 UNK        -0.4884 
      5 CA         15.2576  -26.4208  -44.3132 C.3       1 UNK         0.0853 
      6 C6         14.5739  -27.8027  -44.4732 C.3       10 UNK        -0.0849 
      7 S7         14.6050  -28.4163  -46.1905 S.3       10 UNK        -0.2776 
      8 C8         15.7127  -29.8593  -46.0583 C.3       10 UNK         0.0316 
      9 C9         17.1600  -29.4780  -45.7694 C.ar      10 UNK        -0.0863 
     10 C10        17.8393  -30.0516  -44.6886 C.ar      10 UNK        -0.1009 
     11 C11        19.1818  -29.7409  -44.4514 C.ar      10 UNK        -0.0712 
     12 C12        19.8489  -28.8661  -45.3111 C.ar      10 UNK        -0.0894 
     13 C13        19.1733  -28.2589  -46.3733 C.ar      10 UNK        -0.0745 
     14 C14        17.8324  -28.5776  -46.6027 C.ar      10 UNK        -0.0972 
     15 C15        19.8852  -27.2607  -47.2754 C.3       10 UNK         0.0209 
     16 S16        19.8330  -25.5700  -46.5909 S.3       10 UNK        -0.2568 
     17 C17        21.1113  -25.6654  -45.2900 C.3       10 UNK        -0.0983 
     18 CA         20.5803  -25.5021  -43.8380 C.3       3 UNK         0.0876 
     19 N          19.3596  -26.2699  -43.5753 N.am      3 UNK        -0.4424 
     20 C          18.5309  -26.0314  -42.5543 C.2       2 UNK         0.4918 
     21 O          18.6288  -25.0620  -41.7980 O.2       2 UNK        -0.4875 
     22 CA         17.4320  -27.0729  -42.3039 C.3       2 UNK         0.0481 
     23 CB         17.8252  -27.9781  -41.1256 C.3       2 UNK        -0.1831 
     24 N          16.1779  -26.3937  -41.9799 N.am      2 UNK        -0.4498 
     25 C          15.2169  -25.9938  -42.8240 C.2       1 UNK         0.5027 
     26 O          14.2565  -25.3347  -42.4204 O.2       1 UNK        -0.4969 
     27 C          21.6758  -25.9392  -42.8446 C.2       3 UNK         0.5005 
     28 O          21.6767  -27.0943  -42.4067 O.2       3 UNK        -0.5279 
     29 N          22.6469  -25.0580  -42.5729 N.am      4 UNK        -0.4463 
     30 CA         23.8414  -25.3500  -41.7683 C.3       4 UNK         0.0283 
     31 CB         24.4110  -24.0286  -41.2188 C.3       4 UNK        -0.1875 
     32 C          24.8886  -26.1658  -42.5600 C.2       4 UNK         0.4949 
     33 O          26.0484  -25.7614  -42.6530 O.2       4 UNK        -0.5039 
     34 N          24.4473  -27.2833  -43.1504 N.am      5 UNK        -0.4663 
     35 CA         25.2467  -28.1662  -44.0004 C.3       5 UNK         0.0242 
     36 CB         24.3061  -29.0510  -44.8373 C.3       5 UNK        -0.1982 
     37 C          26.2319  -29.0225  -43.1913 C.2       5 UNK         0.5017 
     38 O          27.4028  -29.1152  -43.5611 O.2       5 UNK        -0.5012 
     39 N          25.7357  -29.6190  -42.1022 N.am      6 UNK        -0.4439 
     40 CA         26.4507  -30.4841  -41.1685 C.3       6 UNK         0.0297 
     41 CB         26.8746  -31.8016  -41.8517 C.3       6 UNK        -0.2006 
     42 C          25.5049  -30.7867  -40.0036 C.2       6 UNK         0.4892 
     43 O          24.2859  -30.7305  -40.1854 O.2       6 UNK        -0.5089 
     44 N          26.0700  -31.1641  -38.8490 N.am      7 UNK        -0.4243 
     45 CA         25.3170  -31.5994  -37.6644 C.3       7 UNK         0.0196 
     46 CB         26.2820  -31.7911  -36.4836 C.3       7 UNK        -0.2007 
     47 C          24.4973  -32.8808  -37.9062 C.2       7 UNK         0.5020 
     48 O          23.4125  -33.0268  -37.3433 O.2       7 UNK        -0.5147 
     49 N          25.0055  -33.7590  -38.7833 N.am      8 UNK        -0.4734 
     50 CA         24.3401  -34.9817  -39.2452 C.3       8 UNK         0.0238 
     51 CB         25.3469  -35.8246  -40.0455 C.3       8 UNK        -0.1912 
     52 C          23.0682  -34.7297  -40.0791 C.2       8 UNK         0.5038 
     53 O          22.2577  -35.6467  -40.2180 O.2       8 UNK        -0.5046 
     54 N          22.9099  -33.5089  -40.6101 N.am      9 UNK        -0.4200 
     55 CA         21.6991  -33.0464  -41.3022 C.3       9 UNK         0.0839 
     56 C          20.5018  -32.7668  -40.3431 C.2       9 UNK         0.5513 
     57 N          20.7076  -32.6442  -39.0355 N.am      9 UNK        -0.7519 
     58 O          19.3605  -32.6841  -40.7868 O.2       9 UNK        -0.4960 
     59 C59        22.0252  -31.8286  -42.2094 C.3       10 UNK        -0.0876 
     60 S60        20.9782  -31.7110  -43.6997 S.3       10 UNK        -0.2414 
     61 C61        19.9129  -30.3103  -43.2473 C.3       10 UNK         0.0169 
     62 H62        14.9163  -22.9908  -47.1925 H         1 UNK         0.0903 
     63 H63        13.4076  -23.7169  -46.6352 H         1 UNK         0.0903 
     64 H64        14.1014  -22.3478  -45.7640 H         1 UNK         0.0903 
     65 H65        13.7297  -25.6518  -45.5471 H         1 UNK         0.3096 
     66 H66        16.2925  -26.4962  -44.6496 H         1 UNK         0.1121 
     67 H67        15.0459  -28.5415  -43.8225 H         1 UNK         0.0849 
     68 H68        13.5303  -27.7516  -44.1560 H         1 UNK         0.0849 
     69 H69        15.3250  -30.5391  -45.2978 H         1 UNK         0.0865 
     70 H70        15.6819  -30.4091  -46.9999 H         1 UNK         0.0865 
     71 H71        17.3270  -30.7411  -44.0313 H         1 UNK         0.1346 
     72 H72        20.8920  -28.6477  -45.1312 H         1 UNK         0.1412 
     73 H73        17.3080  -28.1242  -47.4332 H         1 UNK         0.1426 
     74 H74        20.9192  -27.5665  -47.4424 H         1 UNK         0.0716 
     75 H75        19.4143  -27.2501  -48.2595 H         1 UNK         0.0716 
     76 H76        21.6689  -26.5946  -45.4090 H         1 UNK         0.0695 
     77 H77        21.8376  -24.8777  -45.4981 H         1 UNK         0.0695 
     78 H78        20.3584  -24.4456  -43.6706 H         1 UNK         0.0983 
     79 H79        19.2300  -27.0947  -44.1445 H         1 UNK         0.3095 
     80 H80        17.3199  -27.7115  -43.1789 H         1 UNK         0.0454 
     81 H81        17.9046  -27.4188  -40.1925 H         1 UNK         0.0851 
     82 H82        17.0975  -28.7762  -40.9783 H         1 UNK         0.0851 
     83 H83        18.7932  -28.4489  -41.2983 H         1 UNK         0.0851 
     84 H84        16.1102  -26.0740  -41.0245 H         1 UNK         0.2976 
     85 H85        22.6119  -24.1449  -43.0045 H         1 UNK         0.3116 
     86 H86        23.5458  -25.9600  -40.9118 H         1 UNK         0.0646 
     87 H87        25.2705  -24.2120  -40.5725 H         1 UNK         0.0847 
     88 H88        23.6711  -23.4940  -40.6230 H         1 UNK         0.0847 
     89 H89        24.7412  -23.3658  -42.0196 H         1 UNK         0.0847 
     90 H90        23.4716  -27.5266  -43.0019 H         1 UNK         0.3040 
     91 H91        25.8316  -27.5475  -44.6850 H         1 UNK         0.1015 
     92 H92        23.6712  -28.4488  -45.4873 H         1 UNK         0.0786 
     93 H93        23.6563  -29.6639  -44.2110 H         1 UNK         0.0786 
     94 H94        24.8740  -29.7273  -45.4779 H         1 UNK         0.0786 
     95 H95        24.7637  -29.4748  -41.8550 H         1 UNK         0.3172 
     96 H96        27.3275  -29.9535  -40.7924 H         1 UNK         0.0595 
     97 H97        26.0166  -32.3354  -42.2631 H         1 UNK         0.0839 
     98 H98        27.3688  -32.4714  -41.1472 H         1 UNK         0.0839 
     99 H99        27.5786  -31.6277  -42.6651 H         1 UNK         0.0839 
    100 H100       27.0780  -31.1844  -38.7810 H         1 UNK         0.2998 
    101 H101       24.6124  -30.8054  -37.4069 H         1 UNK         0.0822 
    102 H102       26.8084  -30.8662  -36.2467 H         1 UNK         0.0787 
    103 H103       25.7425  -32.0936  -35.5848 H         1 UNK         0.0787 
    104 H104       27.0278  -32.5599  -36.6901 H         1 UNK         0.0787 
    105 H105       25.9071  -33.5539  -39.1883 H         1 UNK         0.3055 
    106 H106       24.0354  -35.5508  -38.3639 H         1 UNK         0.1106 
    107 H107       24.8954  -36.7600  -40.3795 H         1 UNK         0.0828 
    108 H108       25.6991  -35.2984  -40.9337 H         1 UNK         0.0828 
    109 H109       26.2159  -36.0863  -39.4415 H         1 UNK         0.0828 
    110 H110       23.5990  -32.7960  -40.4080 H         1 UNK         0.2931 
    111 H111       21.3851  -33.8661  -41.9516 H         1 UNK         0.0412 
    112 H112       19.9201  -32.4748  -38.4300 H         1 UNK         0.3472 
    113 H113       21.6345  -32.7337  -38.6403 H         1 UNK         0.3472 
    114 H114       23.0497  -31.9056  -42.5779 H         1 UNK         0.0970 
    115 H115       21.9996  -30.8969  -41.6409 H         1 UNK         0.0970 
    116 H116       20.5176  -29.5223  -42.7966 H         1 UNK         0.0612 
    117 H117       19.2014  -30.6286  -42.4849 H         1 UNK         0.0612 
@<TRIPOS>BOND
     1    1    2 1    
     2    1   62 1    
     3    1   63 1    
     4    1   64 1    
     5    2    3 2    
     6    2    4 am   BACKBONE|DICT|INTERRES
     7    4    5 1    
     8    4   65 1    
     9    5    6 1    
    10    5   25 1    
    11    5   66 1    
    12    6    7 1    
    13    6   67 1    
    14    6   68 1    
    15    7    8 1    
    16    8    9 1    
    17    8   69 1    
    18    8   70 1    
    19    9   10 ar   
    20    9   14 ar   
    21   10   11 ar   
    22   10   71 1    
    23   11   12 ar   
    24   11   61 1    
    25   12   13 ar   
    26   12   72 1    
    27   13   14 ar   
    28   13   15 1    
    29   14   73 1    
    30   15   16 1    
    31   15   74 1    
    32   15   75 1    
    33   16   17 1    
    34   17   18 1    
    35   17   76 1    
    36   17   77 1    
    37   18   19 1    
    38   18   27 1    
    39   18   78 1    
    40   19   20 am   BACKBONE|DICT|INTERRES
    41   19   79 1    
    42   20   21 2    
    43   20   22 1    
    44   22   23 1    
    45   22   24 1    
    46   22   80 1    
    47   23   81 1    
    48   23   82 1    
    49   23   83 1    
    50   24   25 am   BACKBONE|DICT|INTERRES
    51   24   84 1    
    52   25   26 2    
    53   27   28 2    
    54   27   29 am   BACKBONE|DICT|INTERRES
    55   29   30 1    
    56   29   85 1    
    57   30   31 1    
    58   30   32 1    
    59   30   86 1    
    60   31   87 1    
    61   31   88 1    
    62   31   89 1    
    63   32   33 2    
    64   32   34 am   BACKBONE|DICT|INTERRES
    65   34   35 1    
    66   34   90 1    
    67   35   36 1    
    68   35   37 1    
    69   35   91 1    
    70   36   92 1    
    71   36   93 1    
    72   36   94 1    
    73   37   38 2    
    74   37   39 am   BACKBONE|DICT|INTERRES
    75   39   40 1    
    76   39   95 1    
    77   40   41 1    
    78   40   42 1    
    79   40   96 1    
    80   41   97 1    
    81   41   98 1    
    82   41   99 1    
    83   42   43 2    
    84   42   44 am   BACKBONE|DICT|INTERRES
    85   44   45 1    
    86   44  100 1    
    87   45   46 1    
    88   45   47 1    
    89   45  101 1    
    90   46  102 1    
    91   46  103 1    
    92   46  104 1    
    93   47   48 2    
    94   47   49 am   BACKBONE|DICT|INTERRES
    95   49   50 1    
    96   49  105 1    
    97   50   51 1    
    98   50   52 1    
    99   50  106 1    
   100   51  107 1    
   101   51  108 1    
   102   51  109 1    
   103   52   53 2    
   104   52   54 am   BACKBONE|DICT|INTERRES
   105   54   55 1    
   106   54  110 1    
   107   55   56 1    
   108   55   59 1    
   109   55  111 1    
   110   56   57 am   BACKBONE|DICT|INTERRES
   111   56   58 2    
   112   57  112 1    
   113   57  113 1    
   114   59   60 1    
   115   59  114 1    
   116   59  115 1    
   117   60   61 1    
   118   61  116 1    
   119   61  117 1    
@<TRIPOS>SUBSTRUCTURE
     1 UNK         1 GROUP             0       ****    0 ROOT    
