@<TRIPOS>MOLECULE
3R8
117   119    1
SMALL
USER_CHARGES


@<TRIPOS>ATOM
      1 CA         13.3100  -24.3671  -42.5018 C.3       0 UNK        -0.2013 
      2 C          14.0677  -25.0189  -43.6486 C.2       0 UNK         0.4866 
      3 O          13.7158  -24.8131  -44.8104 O.2       0 UNK        -0.5176 
      4 N          15.1060  -25.8042  -43.3324 N.am      1 UNK        -0.4884 
      5 CA         15.9355  -26.5283  -44.3069 C.3       1 UNK         0.0853 
      6 C6         16.7691  -27.6486  -43.6349 C.3       10 UNK        -0.0849 
      7 S7         15.7303  -28.9296  -42.8561 S.3       10 UNK        -0.2776 
      8 C8         16.9251  -29.7408  -41.7421 C.3       10 UNK         0.0316 
      9 C9         18.1171  -30.3143  -42.4973 C.ar      10 UNK        -0.0863 
     10 C10        17.9628  -31.4457  -43.3024 C.ar      10 UNK        -0.1009 
     11 C11        19.0489  -31.9700  -44.0094 C.ar      10 UNK        -0.0712 
     12 C12        20.3020  -31.3562  -43.9007 C.ar      10 UNK        -0.0894 
     13 C13        20.4725  -30.2281  -43.0905 C.ar      10 UNK        -0.0745 
     14 C14        19.3752  -29.7150  -42.3900 C.ar      10 UNK        -0.0972 
     15 C15        21.8469  -29.5836  -42.9441 C.3       10 UNK         0.0209 
     16 S16        22.1293  -28.2532  -44.1573 S.3       10 UNK        -0.2568 
     17 C17        20.8760  -27.0390  -43.6378 C.3       10 UNK        -0.0983 
     18 CA         21.1848  -25.5898  -44.0873 C.3       3 UNK         0.0876 
     19 N          19.9354  -24.8404  -44.1903 N.am      3 UNK        -0.4424 
     20 C          19.5832  -24.0182  -45.1832 C.2       2 UNK         0.4918 
     21 O          20.3072  -23.7439  -46.1419 O.2       2 UNK        -0.4875 
     22 CA         18.1572  -23.4333  -45.0813 C.3       2 UNK         0.0481 
     23 CB         17.6673  -22.8040  -46.4025 C.3       2 UNK        -0.1831 
     24 N          17.1852  -24.4143  -44.5699 N.am      2 UNK        -0.4498 
     25 C          16.8670  -25.6011  -45.1179 C.2       1 UNK         0.5027 
     26 O          17.2987  -25.9953  -46.2021 O.2       1 UNK        -0.4969 
     27 C          22.1212  -24.8769  -43.0931 C.2       3 UNK         0.5005 
     28 O          21.6454  -24.1561  -42.2099 O.2       3 UNK        -0.5279 
     29 N          23.4296  -25.1104  -43.2286 N.am      4 UNK        -0.4463 
     30 CA         24.4736  -24.5958  -42.3480 C.3       4 UNK         0.0283 
     31 CB         24.8154  -23.1402  -42.7187 C.3       4 UNK        -0.1875 
     32 C          25.7072  -25.4948  -42.4716 C.2       4 UNK         0.4949 
     33 O          25.8975  -26.1216  -43.5167 O.2       4 UNK        -0.5039 
     34 N          26.5239  -25.5164  -41.4082 N.am      5 UNK        -0.4663 
     35 CA         27.8031  -26.2334  -41.2825 C.3       5 UNK         0.0242 
     36 CB         28.8624  -25.6103  -42.2178 C.3       5 UNK        -0.1982 
     37 C          27.6930  -27.7647  -41.4482 C.2       5 UNK         0.5017 
     38 O          28.6440  -28.4007  -41.9073 O.2       5 UNK        -0.5012 
     39 N          26.5448  -28.3332  -41.0636 N.am      6 UNK        -0.4439 
     40 CA         26.2306  -29.7557  -41.1439 C.3       6 UNK         0.0297 
     41 CB         25.8306  -30.1243  -42.5858 C.3       6 UNK        -0.2006 
     42 C          25.0932  -30.0725  -40.1681 C.2       6 UNK         0.4892 
     43 O          24.3167  -29.1776  -39.8215 O.2       6 UNK        -0.5089 
     44 N          25.0066  -31.3466  -39.7680 N.am      7 UNK        -0.4243 
     45 CA         23.8867  -31.9083  -39.0096 C.3       7 UNK         0.0196 
     46 CB         24.3314  -33.2395  -38.3806 C.3       7 UNK        -0.2007 
     47 C          22.6661  -32.1242  -39.9196 C.2       7 UNK         0.5020 
     48 O          22.8156  -32.1828  -41.1422 O.2       7 UNK        -0.5147 
     49 N          21.4825  -32.2833  -39.3135 N.am      8 UNK        -0.4734 
     50 CA         20.1848  -32.4295  -39.9895 C.3       8 UNK         0.0238 
     51 CB         19.0599  -32.0714  -38.9999 C.3       8 UNK        -0.1912 
     52 C          19.9622  -33.7927  -40.6832 C.2       8 UNK         0.5038 
     53 O          18.9154  -34.4100  -40.4841 O.2       8 UNK        -0.5046 
     54 N          20.9609  -34.2232  -41.4637 N.am      9 UNK        -0.4200 
     55 CA         21.0799  -35.3950  -42.3525 C.3       9 UNK         0.0839 
     56 C          20.6476  -36.8054  -41.8425 C.2       9 UNK         0.5513 
     57 N          20.0590  -36.9536  -40.6660 N.am      9 UNK        -0.7519 
     58 O          20.9026  -37.8008  -42.5163 O.2       9 UNK        -0.4960 
     59 C59        20.6136  -35.0938  -43.8041 C.3       10 UNK        -0.0876 
     60 S60        18.8302  -34.7466  -43.9914 S.3       10 UNK        -0.2414 
     61 C61        18.8464  -33.1764  -44.9157 C.3       10 UNK         0.0169 
     62 H62        13.3462  -23.2821  -42.5967 H         1 UNK         0.0903 
     63 H63        12.2651  -24.6759  -42.5196 H         1 UNK         0.0903 
     64 H64        13.7263  -24.6369  -41.5314 H         1 UNK         0.0903 
     65 H65        15.3304  -25.9661  -42.3604 H         1 UNK         0.3096 
     66 H66        15.2650  -26.9973  -45.0311 H         1 UNK         0.1121 
     67 H67        17.4416  -27.2284  -42.8846 H         1 UNK         0.0849 
     68 H68        17.4044  -28.1494  -44.3693 H         1 UNK         0.0849 
     69 H69        17.2511  -29.0276  -40.9834 H         1 UNK         0.0865 
     70 H70        16.4196  -30.5446  -41.2047 H         1 UNK         0.0865 
     71 H71        16.9909  -31.9124  -43.3889 H         1 UNK         0.1346 
     72 H72        21.1464  -31.7546  -44.4457 H         1 UNK         0.1412 
     73 H73        19.5016  -28.8516  -41.7526 H         1 UNK         0.1426 
     74 H74        22.6220  -30.3394  -43.0764 H         1 UNK         0.0716 
     75 H75        21.9789  -29.1944  -41.9331 H         1 UNK         0.0716 
     76 H76        20.7329  -27.0885  -42.5569 H         1 UNK         0.0695 
     77 H77        19.9364  -27.3745  -44.0810 H         1 UNK         0.0695 
     78 H78        21.6691  -25.6121  -45.0665 H         1 UNK         0.0983 
     79 H79        19.3095  -24.9311  -43.4044 H         1 UNK         0.3095 
     80 H80        18.2078  -22.6366  -44.3378 H         1 UNK         0.0454 
     81 H81        18.3189  -21.9852  -46.7098 H         1 UNK         0.0851 
     82 H82        16.6623  -22.3954  -46.2986 H         1 UNK         0.0851 
     83 H83        17.6523  -23.5282  -47.2174 H         1 UNK         0.0851 
     84 H84        16.7561  -24.1887  -43.6830 H         1 UNK         0.2976 
     85 H85        23.7632  -25.7622  -43.9304 H         1 UNK         0.3116 
     86 H86        24.1199  -24.6367  -41.3153 H         1 UNK         0.0646 
     87 H87        25.6084  -22.7478  -42.0810 H         1 UNK         0.0847 
     88 H88        23.9531  -22.4842  -42.5991 H         1 UNK         0.0847 
     89 H89        25.1570  -23.0589  -43.7514 H         1 UNK         0.0847 
     90 H90        26.2586  -24.9681  -40.6004 H         1 UNK         0.3040 
     91 H91        28.1417  -26.0750  -40.2572 H         1 UNK         0.1015 
     92 H92        29.8502  -26.0339  -42.0315 H         1 UNK         0.0786 
     93 H93        28.9417  -24.5337  -42.0667 H         1 UNK         0.0786 
     94 H94        28.6268  -25.7853  -43.2681 H         1 UNK         0.0786 
     95 H95        25.8120  -27.7642  -40.6574 H         1 UNK         0.3172 
     96 H96        27.1083  -30.3340  -40.8470 H         1 UNK         0.0595 
     97 H97        25.0008  -29.5105  -42.9385 H         1 UNK         0.0839 
     98 H98        25.5189  -31.1673  -42.6577 H         1 UNK         0.0839 
     99 H99        26.6618  -29.9868  -43.2774 H         1 UNK         0.0839 
    100 H100       25.6683  -32.0120  -40.1407 H         1 UNK         0.2998 
    101 H101       23.6120  -31.2107  -38.2152 H         1 UNK         0.0822 
    102 H102       25.1962  -33.1017  -37.7310 H         1 UNK         0.0787 
    103 H103       24.5964  -33.9768  -39.1400 H         1 UNK         0.0787 
    104 H104       23.5377  -33.6726  -37.7704 H         1 UNK         0.0787 
    105 H105       21.4567  -32.2752  -38.3035 H         1 UNK         0.3055 
    106 H106       20.1540  -31.6922  -40.7886 H         1 UNK         0.1106 
    107 H107       19.0191  -32.7717  -38.1649 H         1 UNK         0.0828 
    108 H108       19.1912  -31.0680  -38.5946 H         1 UNK         0.0828 
    109 H109       18.0861  -32.0904  -39.4915 H         1 UNK         0.0828 
    110 H110       21.7630  -33.5973  -41.4970 H         1 UNK         0.2931 
    111 H111       22.1628  -35.5047  -42.4250 H         1 UNK         0.0412 
    112 H112       19.7213  -36.1246  -40.1902 H         1 UNK         0.3472 
    113 H113       19.8021  -37.8728  -40.3431 H         1 UNK         0.3472 
    114 H114       21.1849  -34.2475  -44.1864 H         1 UNK         0.0970 
    115 H115       20.8666  -35.9244  -44.4655 H         1 UNK         0.0970 
    116 H116       17.8931  -33.0746  -45.4365 H         1 UNK         0.0612 
    117 H117       19.6096  -33.2112  -45.6946 H         1 UNK         0.0612 
@<TRIPOS>BOND
     1    1    2 1    
     2    1   62 1    
     3    1   63 1    
     4    1   64 1    
     5    2    3 2    
     6    2    4 am   BACKBONE|DICT|INTERRES
     7    4    5 1    
     8    4   65 1    
     9    5    6 1    
    10    5   25 1    
    11    5   66 1    
    12    6    7 1    
    13    6   67 1    
    14    6   68 1    
    15    7    8 1    
    16    8    9 1    
    17    8   69 1    
    18    8   70 1    
    19    9   10 ar   
    20    9   14 ar   
    21   10   11 ar   
    22   10   71 1    
    23   11   12 ar   
    24   11   61 1    
    25   12   13 ar   
    26   12   72 1    
    27   13   14 ar   
    28   13   15 1    
    29   14   73 1    
    30   15   16 1    
    31   15   74 1    
    32   15   75 1    
    33   16   17 1    
    34   17   18 1    
    35   17   76 1    
    36   17   77 1    
    37   18   19 1    
    38   18   27 1    
    39   18   78 1    
    40   19   20 am   BACKBONE|DICT|INTERRES
    41   19   79 1    
    42   20   21 2    
    43   20   22 1    
    44   22   23 1    
    45   22   24 1    
    46   22   80 1    
    47   23   81 1    
    48   23   82 1    
    49   23   83 1    
    50   24   25 am   BACKBONE|DICT|INTERRES
    51   24   84 1    
    52   25   26 2    
    53   27   28 2    
    54   27   29 am   BACKBONE|DICT|INTERRES
    55   29   30 1    
    56   29   85 1    
    57   30   31 1    
    58   30   32 1    
    59   30   86 1    
    60   31   87 1    
    61   31   88 1    
    62   31   89 1    
    63   32   33 2    
    64   32   34 am   BACKBONE|DICT|INTERRES
    65   34   35 1    
    66   34   90 1    
    67   35   36 1    
    68   35   37 1    
    69   35   91 1    
    70   36   92 1    
    71   36   93 1    
    72   36   94 1    
    73   37   38 2    
    74   37   39 am   BACKBONE|DICT|INTERRES
    75   39   40 1    
    76   39   95 1    
    77   40   41 1    
    78   40   42 1    
    79   40   96 1    
    80   41   97 1    
    81   41   98 1    
    82   41   99 1    
    83   42   43 2    
    84   42   44 am   BACKBONE|DICT|INTERRES
    85   44   45 1    
    86   44  100 1    
    87   45   46 1    
    88   45   47 1    
    89   45  101 1    
    90   46  102 1    
    91   46  103 1    
    92   46  104 1    
    93   47   48 2    
    94   47   49 am   BACKBONE|DICT|INTERRES
    95   49   50 1    
    96   49  105 1    
    97   50   51 1    
    98   50   52 1    
    99   50  106 1    
   100   51  107 1    
   101   51  108 1    
   102   51  109 1    
   103   52   53 2    
   104   52   54 am   BACKBONE|DICT|INTERRES
   105   54   55 1    
   106   54  110 1    
   107   55   56 1    
   108   55   59 1    
   109   55  111 1    
   110   56   57 am   BACKBONE|DICT|INTERRES
   111   56   58 2    
   112   57  112 1    
   113   57  113 1    
   114   59   60 1    
   115   59  114 1    
   116   59  115 1    
   117   60   61 1    
   118   61  116 1    
   119   61  117 1    
@<TRIPOS>SUBSTRUCTURE
     1 UNK         1 GROUP             0       ****    0 ROOT    
