@<TRIPOS>MOLECULE
3R8
117   119    1
SMALL
USER_CHARGES


@<TRIPOS>ATOM
      1 CA         12.5677  -24.4894  -42.8626 C.3       0 UNK        -0.2013 
      2 C          13.8774  -24.7855  -43.5780 C.2       0 UNK         0.4866 
      3 O          14.8642  -24.0804  -43.3651 O.2       0 UNK        -0.5176 
      4 N          13.8934  -25.8176  -44.4308 N.am      1 UNK        -0.4884 
      5 CA         15.0815  -26.2878  -45.1478 C.3       1 UNK         0.0853 
      6 C6         14.6872  -27.1938  -46.3386 C.3       10 UNK        -0.0849 
      7 S7         16.0333  -27.3912  -47.5558 S.3       10 UNK        -0.2776 
      8 C8         16.3957  -29.1781  -47.4698 C.3       10 UNK         0.0316 
      9 C9         17.6905  -29.4785  -46.7251 C.ar      10 UNK        -0.0863 
     10 C10        17.6794  -30.1678  -45.5072 C.ar      10 UNK        -0.1009 
     11 C11        18.8795  -30.5154  -44.8727 C.ar      10 UNK        -0.0712 
     12 C12        20.0944  -30.1733  -45.4755 C.ar      10 UNK        -0.0894 
     13 C13        20.1175  -29.4441  -46.6677 C.ar      10 UNK        -0.0745 
     14 C14        18.9134  -29.1091  -47.2911 C.ar      10 UNK        -0.0972 
     15 C15        21.4369  -29.0173  -47.2922 C.3       10 UNK         0.0209 
     16 S16        21.9800  -27.3933  -46.6668 S.3       10 UNK        -0.2568 
     17 C17        22.7744  -27.8527  -45.0909 C.3       10 UNK        -0.0983 
     18 CA         22.1385  -27.2018  -43.8314 C.3       3 UNK         0.0876 
     19 N          20.7175  -27.5178  -43.6632 N.am      3 UNK        -0.4424 
     20 C          19.7010  -26.6628  -43.7977 C.2       2 UNK         0.4918 
     21 O          19.8063  -25.5059  -44.2107 O.2       2 UNK        -0.4875 
     22 CA         18.3427  -27.1717  -43.3069 C.3       2 UNK         0.0481 
     23 CB         18.1531  -26.8554  -41.8104 C.3       2 UNK        -0.1831 
     24 N          17.2840  -26.5660  -44.1036 N.am      2 UNK        -0.4498 
     25 C          16.0269  -27.0158  -44.1740 C.2       1 UNK         0.5027 
     26 O          15.5961  -27.9701  -43.5206 O.2       1 UNK        -0.4969 
     27 C          22.8619  -27.6440  -42.5423 C.2       3 UNK         0.5005 
     28 O          23.9453  -28.2290  -42.6098 O.2       3 UNK        -0.5279 
     29 N          22.2279  -27.4090  -41.3817 N.am      4 UNK        -0.4463 
     30 CA         22.5735  -27.9816  -40.0739 C.3       4 UNK         0.0283 
     31 CB         21.5373  -27.5338  -39.0318 C.3       4 UNK        -0.1875 
     32 C          24.0023  -27.7048  -39.5723 C.2       4 UNK         0.4949 
     33 O          24.5038  -28.4669  -38.7476 O.2       4 UNK        -0.5039 
     34 N          24.6482  -26.6569  -40.0985 N.am      5 UNK        -0.4663 
     35 CA         26.0567  -26.3389  -39.8533 C.3       5 UNK         0.0242 
     36 CB         26.3525  -24.9328  -40.4006 C.3       5 UNK        -0.1982 
     37 C          27.0433  -27.3647  -40.4484 C.2       5 UNK         0.5017 
     38 O          28.1806  -27.4245  -39.9791 O.2       5 UNK        -0.5012 
     39 N          26.6118  -28.1327  -41.4605 N.am      6 UNK        -0.4439 
     40 CA         27.4277  -29.1310  -42.1569 C.3       6 UNK         0.0297 
     41 CB         27.7368  -28.6326  -43.5789 C.3       6 UNK        -0.2006 
     42 C          26.7501  -30.5082  -42.2062 C.2       6 UNK         0.4892 
     43 O          27.4212  -31.5145  -41.9757 O.2       6 UNK        -0.5089 
     44 N          25.4481  -30.5405  -42.5184 N.am      7 UNK        -0.4243 
     45 CA         24.6721  -31.7667  -42.7239 C.3       7 UNK         0.0196 
     46 CB         23.5716  -31.4816  -43.7594 C.3       7 UNK        -0.2007 
     47 C          24.0386  -32.3168  -41.4370 C.2       7 UNK         0.5020 
     48 O          23.5157  -33.4313  -41.4666 O.2       7 UNK        -0.5147 
     49 N          24.0368  -31.5244  -40.3545 N.am      8 UNK        -0.4734 
     50 CA         23.3919  -31.7489  -39.0487 C.3       8 UNK         0.0238 
     51 CB         23.9264  -33.0171  -38.3542 C.3       8 UNK        -0.1912 
     52 C          21.8510  -31.7419  -39.0894 C.2       8 UNK         0.5038 
     53 O          21.2369  -31.1161  -38.2254 O.2       8 UNK        -0.5046 
     54 N          21.2629  -32.4157  -40.0859 N.am      9 UNK        -0.4200 
     55 CA         19.8179  -32.5445  -40.3428 C.3       9 UNK         0.0839 
     56 C          19.0285  -33.3148  -39.2391 C.2       9 UNK         0.5513 
     57 N          19.6777  -34.1134  -38.4001 N.am      9 UNK        -0.7519 
     58 O          17.8063  -33.2189  -39.1589 O.2       9 UNK        -0.4960 
     59 C59        19.1476  -31.1970  -40.7409 C.3       10 UNK        -0.0876 
     60 S60        19.8596  -30.4569  -42.2510 S.3       10 UNK        -0.2414 
     61 C61        18.8566  -31.2687  -43.5456 C.3       10 UNK         0.0169 
     62 H62        12.7043  -24.5651  -41.7842 H         1 UNK         0.0903 
     63 H63        12.2341  -23.4781  -43.0937 H         1 UNK         0.0903 
     64 H64        11.7776  -25.1815  -43.1535 H         1 UNK         0.0903 
     65 H65        13.0627  -26.3824  -44.5400 H         1 UNK         0.3096 
     66 H66        15.5924  -25.4072  -45.5452 H         1 UNK         0.1121 
     67 H67        13.8520  -26.7435  -46.8777 H         1 UNK         0.0849 
     68 H68        14.3207  -28.1622  -45.9932 H         1 UNK         0.0849 
     69 H69        15.5594  -29.7259  -47.0342 H         1 UNK         0.0865 
     70 H70        16.4898  -29.5551  -48.4893 H         1 UNK         0.0865 
     71 H71        16.7348  -30.4434  -45.0580 H         1 UNK         0.1346 
     72 H72        21.0225  -30.4537  -44.9995 H         1 UNK         0.1412 
     73 H73        18.9261  -28.5626  -48.2246 H         1 UNK         0.1426 
     74 H74        22.2082  -29.7687  -47.1160 H         1 UNK         0.0716 
     75 H75        21.3267  -28.9515  -48.3757 H         1 UNK         0.0716 
     76 H76        22.7828  -28.9373  -44.9949 H         1 UNK         0.0695 
     77 H77        23.8226  -27.5583  -45.1712 H         1 UNK         0.0695 
     78 H78        22.2736  -26.1205  -43.9035 H         1 UNK         0.0983 
     79 H79        20.5186  -28.4481  -43.3156 H         1 UNK         0.3095 
     80 H80        18.3000  -28.2504  -43.4487 H         1 UNK         0.0454 
     81 H81        18.1727  -25.7815  -41.6209 H         1 UNK         0.0851 
     82 H82        17.2068  -27.2434  -41.4341 H         1 UNK         0.0851 
     83 H83        18.9410  -27.3115  -41.2109 H         1 UNK         0.0851 
     84 H84        17.5815  -25.7833  -44.6728 H         1 UNK         0.2976 
     85 H85        21.3655  -26.8863  -41.4205 H         1 UNK         0.3116 
     86 H86        22.4866  -29.0631  -40.1827 H         1 UNK         0.0646 
     87 H87        21.5204  -26.4494  -38.9168 H         1 UNK         0.0847 
     88 H88        20.5341  -27.8640  -39.3013 H         1 UNK         0.0847 
     89 H89        21.7579  -27.9631  -38.0531 H         1 UNK         0.0847 
     90 H90        24.1587  -26.0845  -40.7708 H         1 UNK         0.3040 
     91 H91        26.2168  -26.3282  -38.7727 H         1 UNK         0.1015 
     92 H92        26.1972  -24.8783  -41.4789 H         1 UNK         0.0786 
     93 H93        27.3875  -24.6477  -40.2060 H         1 UNK         0.0786 
     94 H94        25.7184  -24.1813  -39.9298 H         1 UNK         0.0786 
     95 H95        25.6519  -28.0230  -41.7777 H         1 UNK         0.3172 
     96 H96        28.3788  -29.2702  -41.6386 H         1 UNK         0.0595 
     97 H97        28.3047  -27.7025  -43.5558 H         1 UNK         0.0839 
     98 H98        26.8261  -28.4538  -44.1524 H         1 UNK         0.0839 
     99 H99        28.3327  -29.3622  -44.1291 H         1 UNK         0.0839 
    100 H100       24.9483  -29.6655  -42.6720 H         1 UNK         0.2998 
    101 H101       25.3250  -32.5444  -43.1264 H         1 UNK         0.0822 
    102 H102       23.9904  -31.1044  -44.6924 H         1 UNK         0.0787 
    103 H103       23.0126  -32.3873  -43.9987 H         1 UNK         0.0787 
    104 H104       22.8555  -30.7491  -43.3859 H         1 UNK         0.0787 
    105 H105       24.4920  -30.6275  -40.4532 H         1 UNK         0.3055 
    106 H106       23.6817  -30.9024  -38.4252 H         1 UNK         0.1106 
    107 H107       25.0124  -32.9909  -38.2657 H         1 UNK         0.0828 
    108 H108       23.5221  -33.1048  -37.3449 H         1 UNK         0.0828 
    109 H109       23.6559  -33.9276  -38.8890 H         1 UNK         0.0828 
    110 H110       21.8767  -32.9121  -40.7262 H         1 UNK         0.2931 
    111 H111       19.7491  -33.1968  -41.2140 H         1 UNK         0.0412 
    112 H112       20.6777  -34.2159  -38.4631 H         1 UNK         0.3472 
    113 H113       19.1602  -34.6171  -37.6967 H         1 UNK         0.3472 
    114 H114       18.0749  -31.3230  -40.8953 H         1 UNK         0.0970 
    115 H115       19.2399  -30.4742  -39.9290 H         1 UNK         0.0970 
    116 H116       17.8285  -31.3646  -43.1939 H         1 UNK         0.0612 
    117 H117       19.2288  -32.2820  -43.7010 H         1 UNK         0.0612 
@<TRIPOS>BOND
     1    1    2 1    
     2    1   62 1    
     3    1   63 1    
     4    1   64 1    
     5    2    3 2    
     6    2    4 am   BACKBONE|DICT|INTERRES
     7    4    5 1    
     8    4   65 1    
     9    5    6 1    
    10    5   25 1    
    11    5   66 1    
    12    6    7 1    
    13    6   67 1    
    14    6   68 1    
    15    7    8 1    
    16    8    9 1    
    17    8   69 1    
    18    8   70 1    
    19    9   10 ar   
    20    9   14 ar   
    21   10   11 ar   
    22   10   71 1    
    23   11   12 ar   
    24   11   61 1    
    25   12   13 ar   
    26   12   72 1    
    27   13   14 ar   
    28   13   15 1    
    29   14   73 1    
    30   15   16 1    
    31   15   74 1    
    32   15   75 1    
    33   16   17 1    
    34   17   18 1    
    35   17   76 1    
    36   17   77 1    
    37   18   19 1    
    38   18   27 1    
    39   18   78 1    
    40   19   20 am   BACKBONE|DICT|INTERRES
    41   19   79 1    
    42   20   21 2    
    43   20   22 1    
    44   22   23 1    
    45   22   24 1    
    46   22   80 1    
    47   23   81 1    
    48   23   82 1    
    49   23   83 1    
    50   24   25 am   BACKBONE|DICT|INTERRES
    51   24   84 1    
    52   25   26 2    
    53   27   28 2    
    54   27   29 am   BACKBONE|DICT|INTERRES
    55   29   30 1    
    56   29   85 1    
    57   30   31 1    
    58   30   32 1    
    59   30   86 1    
    60   31   87 1    
    61   31   88 1    
    62   31   89 1    
    63   32   33 2    
    64   32   34 am   BACKBONE|DICT|INTERRES
    65   34   35 1    
    66   34   90 1    
    67   35   36 1    
    68   35   37 1    
    69   35   91 1    
    70   36   92 1    
    71   36   93 1    
    72   36   94 1    
    73   37   38 2    
    74   37   39 am   BACKBONE|DICT|INTERRES
    75   39   40 1    
    76   39   95 1    
    77   40   41 1    
    78   40   42 1    
    79   40   96 1    
    80   41   97 1    
    81   41   98 1    
    82   41   99 1    
    83   42   43 2    
    84   42   44 am   BACKBONE|DICT|INTERRES
    85   44   45 1    
    86   44  100 1    
    87   45   46 1    
    88   45   47 1    
    89   45  101 1    
    90   46  102 1    
    91   46  103 1    
    92   46  104 1    
    93   47   48 2    
    94   47   49 am   BACKBONE|DICT|INTERRES
    95   49   50 1    
    96   49  105 1    
    97   50   51 1    
    98   50   52 1    
    99   50  106 1    
   100   51  107 1    
   101   51  108 1    
   102   51  109 1    
   103   52   53 2    
   104   52   54 am   BACKBONE|DICT|INTERRES
   105   54   55 1    
   106   54  110 1    
   107   55   56 1    
   108   55   59 1    
   109   55  111 1    
   110   56   57 am   BACKBONE|DICT|INTERRES
   111   56   58 2    
   112   57  112 1    
   113   57  113 1    
   114   59   60 1    
   115   59  114 1    
   116   59  115 1    
   117   60   61 1    
   118   61  116 1    
   119   61  117 1    
@<TRIPOS>SUBSTRUCTURE
     1 UNK         1 GROUP             0       ****    0 ROOT    
