@<TRIPOS>MOLECULE
3R8
117   119    1
SMALL
USER_CHARGES


@<TRIPOS>ATOM
      1 CA         16.4968  -22.2052  -43.5990 C.3       0 UNK        -0.2013 
      2 C          17.1704  -23.5235  -43.9472 C.2       0 UNK         0.4866 
      3 O          17.2142  -23.9009  -45.1187 O.2       0 UNK        -0.5176 
      4 N          17.7136  -24.2245  -42.9441 N.am      1 UNK        -0.4884 
      5 CA         18.3735  -25.5340  -43.0612 C.3       1 UNK         0.0853 
      6 C6         18.3172  -26.3168  -41.7236 C.3       10 UNK        -0.0849 
      7 S7         16.5932  -26.6934  -41.2538 S.3       10 UNK        -0.2776 
      8 C8         16.6377  -28.4958  -40.9611 C.3       10 UNK         0.0316 
      9 C9         17.1511  -29.3282  -42.1361 C.ar      10 UNK        -0.0863 
     10 C10        17.9735  -30.4296  -41.8767 C.ar      10 UNK        -0.1009 
     11 C11        18.4460  -31.2296  -42.9194 C.ar      10 UNK        -0.0712 
     12 C12        18.0877  -30.9266  -44.2340 C.ar      10 UNK        -0.0894 
     13 C13        17.2772  -29.8237  -44.5145 C.ar      10 UNK        -0.0745 
     14 C14        16.7997  -29.0355  -43.4613 C.ar      10 UNK        -0.0972 
     15 C15        16.9157  -29.4986  -45.9578 C.3       10 UNK         0.0209 
     16 S16        17.9945  -28.2157  -46.6741 S.3       10 UNK        -0.2568 
     17 C17        19.6310  -29.0350  -46.6761 C.3       10 UNK        -0.0983 
     18 CA         20.7932  -28.0889  -47.0770 C.3       3 UNK         0.0876 
     19 N          20.7227  -26.8300  -46.3281 N.am      3 UNK        -0.4424 
     20 C          21.5201  -25.7588  -46.4320 C.2       2 UNK         0.4918 
     21 O          22.4746  -25.6890  -47.2066 O.2       2 UNK        -0.4875 
     22 CA         21.1799  -24.5496  -45.5347 C.3       2 UNK         0.0481 
     23 CB         21.0581  -23.2616  -46.3670 C.3       2 UNK        -0.1831 
     24 N          19.9406  -24.7292  -44.7695 N.am      2 UNK        -0.4498 
     25 C          19.8090  -25.4083  -43.6226 C.2       1 UNK         0.5027 
     26 O          20.7561  -25.9333  -43.0383 O.2       1 UNK        -0.4969 
     27 C          22.1476  -28.8133  -46.9074 C.2       3 UNK         0.5005 
     28 O          22.6324  -29.4392  -47.8515 O.2       3 UNK        -0.5279 
     29 N          22.7271  -28.6929  -45.7086 N.am      4 UNK        -0.4463 
     30 CA         24.0485  -29.1551  -45.2997 C.3       4 UNK         0.0283 
     31 CB         24.0815  -30.6927  -45.1493 C.3       4 UNK        -0.1875 
     32 C          24.3786  -28.3840  -44.0116 C.2       4 UNK         0.4949 
     33 O          24.0892  -27.1871  -43.9441 O.2       4 UNK        -0.5039 
     34 N          24.9296  -29.0612  -42.9966 N.am      5 UNK        -0.4663 
     35 CA         25.0129  -28.5372  -41.6325 C.3       5 UNK         0.0242 
     36 CB         26.0353  -29.3558  -40.8298 C.3       5 UNK        -0.1982 
     37 C          23.6177  -28.5960  -40.9879 C.2       5 UNK         0.5017 
     38 O          23.0040  -29.6659  -40.9904 O.2       5 UNK        -0.5012 
     39 N          23.1376  -27.4520  -40.4817 N.am      6 UNK        -0.4439 
     40 CA         21.7836  -27.2549  -39.9556 C.3       6 UNK         0.0297 
     41 CB         21.6129  -25.7916  -39.5135 C.3       6 UNK        -0.2006 
     42 C          21.4370  -28.2263  -38.8155 C.2       6 UNK         0.4892 
     43 O          21.9842  -28.0956  -37.7190 O.2       6 UNK        -0.5089 
     44 N          20.5559  -29.1896  -39.1249 N.am      7 UNK        -0.4243 
     45 CA         20.1082  -30.2959  -38.2683 C.3       7 UNK         0.0196 
     46 CB         19.3110  -29.7678  -37.0564 C.3       7 UNK        -0.2007 
     47 C          21.2368  -31.2701  -37.8677 C.2       7 UNK         0.5020 
     48 O          21.1215  -31.9465  -36.8445 O.2       7 UNK        -0.5147 
     49 N          22.2951  -31.3482  -38.6841 N.am      8 UNK        -0.4734 
     50 CA         23.4595  -32.2105  -38.4786 C.3       8 UNK         0.0238 
     51 CB         24.5636  -31.4165  -37.7541 C.3       8 UNK        -0.1912 
     52 C          23.9207  -32.8091  -39.8174 C.2       8 UNK         0.5038 
     53 O          25.1232  -32.9350  -40.0545 O.2       8 UNK        -0.5046 
     54 N          22.9510  -33.1547  -40.6748 N.am      9 UNK        -0.4200 
     55 CA         23.1611  -33.6872  -42.0311 C.3       9 UNK         0.0839 
     56 C          23.8156  -35.0987  -42.0975 C.2       9 UNK         0.5513 
     57 N          23.8490  -35.8705  -41.0177 N.am      9 UNK        -0.7519 
     58 O          24.3000  -35.4994  -43.1527 O.2       9 UNK        -0.4960 
     59 C59        21.8546  -33.6631  -42.8672 C.3       10 UNK        -0.0876 
     60 S60        21.0828  -32.0115  -42.9581 S.3       10 UNK        -0.2414 
     61 C61        19.3428  -32.4230  -42.6365 C.3       10 UNK         0.0169 
     62 H62        16.5335  -21.9980  -42.5297 H         1 UNK         0.0903 
     63 H63        16.9870  -21.3841  -44.1213 H         1 UNK         0.0903 
     64 H64        15.4509  -22.2274  -43.9042 H         1 UNK         0.0903 
     65 H65        17.6581  -23.8568  -42.0047 H         1 UNK         0.3096 
     66 H66        17.8243  -26.1233  -43.7999 H         1 UNK         0.1121 
     67 H67        18.7874  -25.7476  -40.9201 H         1 UNK         0.0849 
     68 H68        18.8755  -27.2509  -41.8012 H         1 UNK         0.0849 
     69 H69        17.2453  -28.6760  -40.0726 H         1 UNK         0.0865 
     70 H70        15.6301  -28.8325  -40.7141 H         1 UNK         0.0865 
     71 H71        18.2403  -30.6739  -40.8591 H         1 UNK         0.1346 
     72 H72        18.4576  -31.5428  -45.0423 H         1 UNK         0.1412 
     73 H73        16.1590  -28.1912  -43.6763 H         1 UNK         0.1426 
     74 H74        15.8816  -29.1541  -46.0054 H         1 UNK         0.0716 
     75 H75        16.9648  -30.3956  -46.5773 H         1 UNK         0.0716 
     76 H76        19.5883  -29.8948  -47.3473 H         1 UNK         0.0695 
     77 H77        19.8134  -29.4309  -45.6762 H         1 UNK         0.0695 
     78 H78        20.6881  -27.8381  -48.1345 H         1 UNK         0.0983 
     79 H79        19.9419  -26.7617  -45.6939 H         1 UNK         0.3095 
     80 H80        22.0090  -24.4251  -44.8352 H         1 UNK         0.0454 
     81 H81        20.2563  -23.3319  -47.1031 H         1 UNK         0.0851 
     82 H82        21.9816  -23.0536  -46.9090 H         1 UNK         0.0851 
     83 H83        20.8573  -22.3975  -45.7336 H         1 UNK         0.0851 
     84 H84        19.0908  -24.3387  -45.1703 H         1 UNK         0.2976 
     85 H85        22.2782  -28.0940  -45.0261 H         1 UNK         0.3116 
     86 H86        24.7727  -28.8533  -46.0587 H         1 UNK         0.0646 
     87 H87        23.4208  -31.0337  -44.3532 H         1 UNK         0.0847 
     88 H88        25.0877  -31.0476  -44.9242 H         1 UNK         0.0847 
     89 H89        23.7732  -31.1917  -46.0678 H         1 UNK         0.0847 
     90 H90        25.0923  -30.0512  -43.1079 H         1 UNK         0.3040 
     91 H91        25.3564  -27.5007  -41.6691 H         1 UNK         0.1015 
     92 H92        25.7519  -30.4065  -40.7668 H         1 UNK         0.0786 
     93 H93        26.1234  -28.9771  -39.8108 H         1 UNK         0.0786 
     94 H94        27.0263  -29.3039  -41.2809 H         1 UNK         0.0786 
     95 H95        23.7209  -26.6289  -40.5190 H         1 UNK         0.3172 
     96 H96        21.0934  -27.4329  -40.7819 H         1 UNK         0.0595 
     97 H97        20.6173  -25.6222  -39.1013 H         1 UNK         0.0839 
     98 H98        21.7340  -25.1075  -40.3538 H         1 UNK         0.0839 
     99 H99        22.3343  -25.5143  -38.7438 H         1 UNK         0.0839 
    100 H100       20.2260  -29.2224  -40.0794 H         1 UNK         0.2998 
    101 H101       19.4206  -30.8878  -38.8723 H         1 UNK         0.0822 
    102 H102       18.8466  -30.5865  -36.5053 H         1 UNK         0.0787 
    103 H103       19.9489  -29.2276  -36.3562 H         1 UNK         0.0787 
    104 H104       18.5114  -29.0963  -37.3693 H         1 UNK         0.0787 
    105 H105       22.3340  -30.7532  -39.5104 H         1 UNK         0.3055 
    106 H106       23.1848  -33.0615  -37.8514 H         1 UNK         0.1106 
    107 H107       25.4438  -32.0347  -37.5736 H         1 UNK         0.0828 
    108 H108       24.8803  -30.5516  -38.3364 H         1 UNK         0.0828 
    109 H109       24.2186  -31.0561  -36.7849 H         1 UNK         0.0828 
    110 H110       21.9922  -33.0005  -40.4029 H         1 UNK         0.2931 
    111 H111       23.8663  -33.0103  -42.5178 H         1 UNK         0.0412 
    112 H112       23.4556  -35.5506  -40.1474 H         1 UNK         0.3472 
    113 H113       24.2776  -36.7812  -41.0739 H         1 UNK         0.3472 
    114 H114       22.0526  -33.9850  -43.8916 H         1 UNK         0.0970 
    115 H115       21.1388  -34.3799  -42.4602 H         1 UNK         0.0970 
    116 H116       19.0427  -33.2605  -43.2683 H         1 UNK         0.0612 
    117 H117       19.2334  -32.7546  -41.6028 H         1 UNK         0.0612 
@<TRIPOS>BOND
     1    1    2 1    
     2    1   62 1    
     3    1   63 1    
     4    1   64 1    
     5    2    3 2    
     6    2    4 am   BACKBONE|DICT|INTERRES
     7    4    5 1    
     8    4   65 1    
     9    5    6 1    
    10    5   25 1    
    11    5   66 1    
    12    6    7 1    
    13    6   67 1    
    14    6   68 1    
    15    7    8 1    
    16    8    9 1    
    17    8   69 1    
    18    8   70 1    
    19    9   10 ar   
    20    9   14 ar   
    21   10   11 ar   
    22   10   71 1    
    23   11   12 ar   
    24   11   61 1    
    25   12   13 ar   
    26   12   72 1    
    27   13   14 ar   
    28   13   15 1    
    29   14   73 1    
    30   15   16 1    
    31   15   74 1    
    32   15   75 1    
    33   16   17 1    
    34   17   18 1    
    35   17   76 1    
    36   17   77 1    
    37   18   19 1    
    38   18   27 1    
    39   18   78 1    
    40   19   20 am   BACKBONE|DICT|INTERRES
    41   19   79 1    
    42   20   21 2    
    43   20   22 1    
    44   22   23 1    
    45   22   24 1    
    46   22   80 1    
    47   23   81 1    
    48   23   82 1    
    49   23   83 1    
    50   24   25 am   BACKBONE|DICT|INTERRES
    51   24   84 1    
    52   25   26 2    
    53   27   28 2    
    54   27   29 am   BACKBONE|DICT|INTERRES
    55   29   30 1    
    56   29   85 1    
    57   30   31 1    
    58   30   32 1    
    59   30   86 1    
    60   31   87 1    
    61   31   88 1    
    62   31   89 1    
    63   32   33 2    
    64   32   34 am   BACKBONE|DICT|INTERRES
    65   34   35 1    
    66   34   90 1    
    67   35   36 1    
    68   35   37 1    
    69   35   91 1    
    70   36   92 1    
    71   36   93 1    
    72   36   94 1    
    73   37   38 2    
    74   37   39 am   BACKBONE|DICT|INTERRES
    75   39   40 1    
    76   39   95 1    
    77   40   41 1    
    78   40   42 1    
    79   40   96 1    
    80   41   97 1    
    81   41   98 1    
    82   41   99 1    
    83   42   43 2    
    84   42   44 am   BACKBONE|DICT|INTERRES
    85   44   45 1    
    86   44  100 1    
    87   45   46 1    
    88   45   47 1    
    89   45  101 1    
    90   46  102 1    
    91   46  103 1    
    92   46  104 1    
    93   47   48 2    
    94   47   49 am   BACKBONE|DICT|INTERRES
    95   49   50 1    
    96   49  105 1    
    97   50   51 1    
    98   50   52 1    
    99   50  106 1    
   100   51  107 1    
   101   51  108 1    
   102   51  109 1    
   103   52   53 2    
   104   52   54 am   BACKBONE|DICT|INTERRES
   105   54   55 1    
   106   54  110 1    
   107   55   56 1    
   108   55   59 1    
   109   55  111 1    
   110   56   57 am   BACKBONE|DICT|INTERRES
   111   56   58 2    
   112   57  112 1    
   113   57  113 1    
   114   59   60 1    
   115   59  114 1    
   116   59  115 1    
   117   60   61 1    
   118   61  116 1    
   119   61  117 1    
@<TRIPOS>SUBSTRUCTURE
     1 UNK         1 GROUP             0       ****    0 ROOT    
