@<TRIPOS>MOLECULE
3R8
117   119    1
SMALL
USER_CHARGES


@<TRIPOS>ATOM
      1 CA         18.6240  -29.4299  -40.7812 C.3       0 UNK        -0.2013 
      2 C          18.8330  -27.9827  -41.1924 C.2       0 UNK         0.4866 
      3 O          19.3617  -27.1976  -40.4055 O.2       0 UNK        -0.5176 
      4 N          18.4025  -27.6265  -42.4089 N.am      1 UNK        -0.4884 
      5 CA         18.4810  -26.2659  -42.9552 C.3       1 UNK         0.0853 
      6 C6         17.1551  -25.7957  -43.6280 C.3       10 UNK        -0.0849 
      7 S7         15.6458  -26.3249  -42.7365 S.3       10 UNK        -0.2776 
      8 C8         14.8099  -27.4034  -43.9522 C.3       10 UNK         0.0316 
      9 C9         15.7034  -28.5147  -44.4954 C.ar      10 UNK        -0.0863 
     10 C10        15.9117  -29.6895  -43.7664 C.ar      10 UNK        -0.1009 
     11 C11        16.7026  -30.7168  -44.2933 C.ar      10 UNK        -0.0712 
     12 C12        17.2835  -30.5614  -45.5558 C.ar      10 UNK        -0.0894 
     13 C13        17.1341  -29.3670  -46.2718 C.ar      10 UNK        -0.0745 
     14 C14        16.3115  -28.3688  -45.7457 C.ar      10 UNK        -0.0972 
     15 C15        17.8273  -29.0889  -47.6086 C.3       10 UNK         0.0209 
     16 S16        19.2207  -30.1783  -48.0752 S.3       10 UNK        -0.2568 
     17 C17        20.3683  -30.1096  -46.6572 C.3       10 UNK        -0.0983 
     18 CA         21.4152  -28.9715  -46.7252 C.3       3 UNK         0.0876 
     19 N          20.8073  -27.6667  -46.4446 N.am      3 UNK        -0.4424 
     20 C          21.4362  -26.4865  -46.5260 C.2       2 UNK         0.4918 
     21 O          22.5741  -26.3492  -46.9750 O.2       2 UNK        -0.4875 
     22 CA         20.6873  -25.2443  -45.9977 C.3       2 UNK         0.0481 
     23 CB         20.1146  -24.4356  -47.1727 C.3       2 UNK        -0.1831 
     24 N          19.6115  -25.5015  -45.0267 N.am      2 UNK        -0.4498 
     25 C          19.7274  -26.1655  -43.8650 C.2       1 UNK         0.5027 
     26 O          20.7757  -26.7127  -43.5150 O.2       1 UNK        -0.4969 
     27 C          22.5602  -29.3055  -45.7436 C.2       3 UNK         0.5005 
     28 O          23.5497  -29.9117  -46.1584 O.2       3 UNK        -0.5279 
     29 N          22.3802  -28.9524  -44.4632 N.am      4 UNK        -0.4463 
     30 CA         23.2511  -29.3543  -43.3581 C.3       4 UNK         0.0283 
     31 CB         22.3823  -30.0005  -42.2697 C.3       4 UNK        -0.1875 
     32 C          24.0532  -28.1758  -42.7851 C.2       4 UNK         0.4949 
     33 O          25.1496  -28.3995  -42.2708 O.2       4 UNK        -0.5039 
     34 N          23.5126  -26.9522  -42.8904 N.am      5 UNK        -0.4663 
     35 CA         24.0857  -25.6782  -42.4459 C.3       5 UNK         0.0242 
     36 CB         25.3015  -25.2926  -43.3186 C.3       5 UNK        -0.1982 
     37 C          24.3746  -25.6696  -40.9330 C.2       5 UNK         0.5017 
     38 O          23.4564  -25.4308  -40.1488 O.2       5 UNK        -0.5012 
     39 N          25.6342  -25.9226  -40.5534 N.am      6 UNK        -0.4439 
     40 CA         26.0850  -26.0286  -39.1638 C.3       6 UNK         0.0297 
     41 CB         27.6061  -25.8098  -39.1134 C.3       6 UNK        -0.2006 
     42 C          25.7138  -27.3694  -38.5009 C.2       6 UNK         0.4892 
     43 O          25.6793  -27.4330  -37.2708 O.2       6 UNK        -0.5089 
     44 N          25.4663  -28.4107  -39.3073 N.am      7 UNK        -0.4243 
     45 CA         25.0507  -29.7409  -38.8589 C.3       7 UNK         0.0196 
     46 CB         25.6983  -30.7899  -39.7856 C.3       7 UNK        -0.2007 
     47 C          23.5138  -29.8565  -38.8250 C.2       7 UNK         0.5020 
     48 O          22.8090  -28.8510  -38.9243 O.2       7 UNK        -0.5147 
     49 N          23.0159  -31.0913  -38.7047 N.am      8 UNK        -0.4734 
     50 CA         21.6017  -31.4507  -38.8090 C.3       8 UNK         0.0238 
     51 CB         21.0667  -31.8072  -37.4114 C.3       8 UNK        -0.1912 
     52 C          21.4621  -32.6397  -39.7708 C.2       8 UNK         0.5038 
     53 O          22.4478  -33.3404  -40.0173 O.2       8 UNK        -0.5046 
     54 N          20.2437  -32.8530  -40.2842 N.am      9 UNK        -0.4200 
     55 CA         19.9094  -33.9518  -41.2097 C.3       9 UNK         0.0839 
     56 C          19.8624  -35.3641  -40.5538 C.2       9 UNK         0.5513 
     57 N          19.8716  -35.4892  -39.2319 N.am      9 UNK        -0.7519 
     58 O          19.8196  -36.3667  -41.2621 O.2       9 UNK        -0.4960 
     59 C59        18.5999  -33.6724  -41.9957 C.3       10 UNK        -0.0876 
     60 S60        18.6803  -32.1491  -42.9933 S.3       10 UNK        -0.2414 
     61 C61        16.9391  -31.9973  -43.5054 C.3       10 UNK         0.0169 
     62 H62        17.7419  -29.8537  -41.2601 H         1 UNK         0.0903 
     63 H63        19.4926  -30.0223  -41.0621 H         1 UNK         0.0903 
     64 H64        18.4880  -29.5050  -39.7026 H         1 UNK         0.0903 
     65 H65        17.9685  -28.3136  -43.0102 H         1 UNK         0.3096 
     66 H66        18.6694  -25.5679  -42.1365 H         1 UNK         0.1121 
     67 H67        17.0874  -26.1258  -44.6611 H         1 UNK         0.0849 
     68 H68        17.1377  -24.7052  -43.6753 H         1 UNK         0.0849 
     69 H69        13.9293  -27.8440  -43.4823 H         1 UNK         0.0865 
     70 H70        14.4329  -26.7867  -44.7697 H         1 UNK         0.0865 
     71 H71        15.4509  -29.8043  -42.7945 H         1 UNK         0.1346 
     72 H72        17.8841  -31.3667  -45.9543 H         1 UNK         0.1412 
     73 H73        16.1542  -27.4608  -46.3125 H         1 UNK         0.1426 
     74 H74        17.0771  -29.1507  -48.3980 H         1 UNK         0.0716 
     75 H75        18.1909  -28.0606  -47.6194 H         1 UNK         0.0716 
     76 H76        20.8640  -31.0832  -46.6488 H         1 UNK         0.0695 
     77 H77        19.8268  -30.0579  -45.7135 H         1 UNK         0.0695 
     78 H78        21.8442  -28.9391  -47.7292 H         1 UNK         0.0983 
     79 H79        19.8682  -27.6810  -46.0789 H         1 UNK         0.3095 
     80 H80        21.4287  -24.6239  -45.4902 H         1 UNK         0.0454 
     81 H81        19.3349  -24.9866  -47.7002 H         1 UNK         0.0851 
     82 H82        20.8920  -24.1967  -47.9000 H         1 UNK         0.0851 
     83 H83        19.6908  -23.4891  -46.8370 H         1 UNK         0.0851 
     84 H84        18.7198  -25.0819  -45.2454 H         1 UNK         0.2976 
     85 H85        21.5788  -28.3791  -44.2201 H         1 UNK         0.3116 
     86 H86        23.9689  -30.1039  -43.6978 H         1 UNK         0.0646 
     87 H87        21.7130  -30.7557  -42.6828 H         1 UNK         0.0847 
     88 H88        21.7764  -29.2627  -41.7417 H         1 UNK         0.0847 
     89 H89        23.0093  -30.5024  -41.5361 H         1 UNK         0.0847 
     90 H90        22.5582  -26.8870  -43.2384 H         1 UNK         0.3040 
     91 H91        23.3147  -24.9233  -42.6104 H         1 UNK         0.1015 
     92 H92        26.0916  -26.0435  -43.2951 H         1 UNK         0.0786 
     93 H93        25.7341  -24.3454  -42.9930 H         1 UNK         0.0786 
     94 H94        25.0046  -25.1667  -44.3600 H         1 UNK         0.0786 
     95 H95        26.3083  -26.1425  -41.2730 H         1 UNK         0.3172 
     96 H96        25.6098  -25.2340  -38.5845 H         1 UNK         0.0595 
     97 H97        28.1438  -26.5720  -39.6788 H         1 UNK         0.0839 
     98 H98        27.9716  -25.8490  -38.0862 H         1 UNK         0.0839 
     99 H99        27.8814  -24.8346  -39.5155 H         1 UNK         0.0839 
    100 H100       25.4550  -28.2577  -40.3115 H         1 UNK         0.2998 
    101 H101       25.4130  -29.9151  -37.8435 H         1 UNK         0.0822 
    102 H102       26.7781  -30.6502  -39.8415 H         1 UNK         0.0787 
    103 H103       25.5321  -31.8058  -39.4261 H         1 UNK         0.0787 
    104 H104       25.3067  -30.7318  -40.8015 H         1 UNK         0.0787 
    105 H105       23.6494  -31.8805  -38.7123 H         1 UNK         0.3055 
    106 H106       21.0280  -30.6147  -39.2145 H         1 UNK         0.1106 
    107 H107       21.5938  -32.6604  -36.9823 H         1 UNK         0.0828 
    108 H108       20.0062  -32.0594  -37.4454 H         1 UNK         0.0828 
    109 H109       21.1751  -30.9685  -36.7233 H         1 UNK         0.0828 
    110 H110       19.4771  -32.2541  -40.0184 H         1 UNK         0.2931 
    111 H111       20.7153  -34.0008  -41.9450 H         1 UNK         0.0412 
    112 H112       19.8441  -36.4106  -38.8236 H         1 UNK         0.3472 
    113 H113       19.9087  -34.6761  -38.6393 H         1 UNK         0.3472 
    114 H114       17.7539  -33.6062  -41.3090 H         1 UNK         0.0970 
    115 H115       18.3771  -34.4967  -42.6764 H         1 UNK         0.0970 
    116 H116       16.3003  -32.0267  -42.6214 H         1 UNK         0.0612 
    117 H117       16.6660  -32.8572  -44.1188 H         1 UNK         0.0612 
@<TRIPOS>BOND
     1    1    2 1    
     2    1   62 1    
     3    1   63 1    
     4    1   64 1    
     5    2    3 2    
     6    2    4 am   BACKBONE|DICT|INTERRES
     7    4    5 1    
     8    4   65 1    
     9    5    6 1    
    10    5   25 1    
    11    5   66 1    
    12    6    7 1    
    13    6   67 1    
    14    6   68 1    
    15    7    8 1    
    16    8    9 1    
    17    8   69 1    
    18    8   70 1    
    19    9   10 ar   
    20    9   14 ar   
    21   10   11 ar   
    22   10   71 1    
    23   11   12 ar   
    24   11   61 1    
    25   12   13 ar   
    26   12   72 1    
    27   13   14 ar   
    28   13   15 1    
    29   14   73 1    
    30   15   16 1    
    31   15   74 1    
    32   15   75 1    
    33   16   17 1    
    34   17   18 1    
    35   17   76 1    
    36   17   77 1    
    37   18   19 1    
    38   18   27 1    
    39   18   78 1    
    40   19   20 am   BACKBONE|DICT|INTERRES
    41   19   79 1    
    42   20   21 2    
    43   20   22 1    
    44   22   23 1    
    45   22   24 1    
    46   22   80 1    
    47   23   81 1    
    48   23   82 1    
    49   23   83 1    
    50   24   25 am   BACKBONE|DICT|INTERRES
    51   24   84 1    
    52   25   26 2    
    53   27   28 2    
    54   27   29 am   BACKBONE|DICT|INTERRES
    55   29   30 1    
    56   29   85 1    
    57   30   31 1    
    58   30   32 1    
    59   30   86 1    
    60   31   87 1    
    61   31   88 1    
    62   31   89 1    
    63   32   33 2    
    64   32   34 am   BACKBONE|DICT|INTERRES
    65   34   35 1    
    66   34   90 1    
    67   35   36 1    
    68   35   37 1    
    69   35   91 1    
    70   36   92 1    
    71   36   93 1    
    72   36   94 1    
    73   37   38 2    
    74   37   39 am   BACKBONE|DICT|INTERRES
    75   39   40 1    
    76   39   95 1    
    77   40   41 1    
    78   40   42 1    
    79   40   96 1    
    80   41   97 1    
    81   41   98 1    
    82   41   99 1    
    83   42   43 2    
    84   42   44 am   BACKBONE|DICT|INTERRES
    85   44   45 1    
    86   44  100 1    
    87   45   46 1    
    88   45   47 1    
    89   45  101 1    
    90   46  102 1    
    91   46  103 1    
    92   46  104 1    
    93   47   48 2    
    94   47   49 am   BACKBONE|DICT|INTERRES
    95   49   50 1    
    96   49  105 1    
    97   50   51 1    
    98   50   52 1    
    99   50  106 1    
   100   51  107 1    
   101   51  108 1    
   102   51  109 1    
   103   52   53 2    
   104   52   54 am   BACKBONE|DICT|INTERRES
   105   54   55 1    
   106   54  110 1    
   107   55   56 1    
   108   55   59 1    
   109   55  111 1    
   110   56   57 am   BACKBONE|DICT|INTERRES
   111   56   58 2    
   112   57  112 1    
   113   57  113 1    
   114   59   60 1    
   115   59  114 1    
   116   59  115 1    
   117   60   61 1    
   118   61  116 1    
   119   61  117 1    
@<TRIPOS>SUBSTRUCTURE
     1 UNK         1 GROUP             0       ****    0 ROOT    
