@<TRIPOS>MOLECULE
3R8
117   119    1
SMALL
USER_CHARGES


@<TRIPOS>ATOM
      1 CA         15.0170  -23.4411  -42.7666 C.3       0 UNK        -0.2013 
      2 C          16.1645  -24.4076  -42.5141 C.2       0 UNK         0.4866 
      3 O          16.8312  -24.3038  -41.4845 O.2       0 UNK        -0.5176 
      4 N          16.3974  -25.3383  -43.4510 N.am      1 UNK        -0.4884 
      5 CA         17.4335  -26.3828  -43.4097 C.3       1 UNK         0.0853 
      6 C6         17.2075  -27.4464  -42.2960 C.3       10 UNK        -0.0849 
      7 S7         15.6965  -28.4283  -42.5878 S.3       10 UNK        -0.2776 
      8 C8         16.3547  -30.1364  -42.6771 C.3       10 UNK         0.0316 
      9 C9         17.3030  -30.4202  -43.8451 C.ar      10 UNK        -0.0863 
     10 C10        18.2730  -31.4197  -43.7057 C.ar      10 UNK        -0.1009 
     11 C11        19.1612  -31.7158  -44.7468 C.ar      10 UNK        -0.0712 
     12 C12        19.0687  -30.9975  -45.9438 C.ar      10 UNK        -0.0894 
     13 C13        18.0851  -30.0199  -46.1135 C.ar      10 UNK        -0.0745 
     14 C14        17.2025  -29.7430  -45.0658 C.ar      10 UNK        -0.0972 
     15 C15        17.9287  -29.2996  -47.4443 C.3       10 UNK         0.0209 
     16 S16        18.3882  -27.5428  -47.3297 S.3       10 UNK        -0.2568 
     17 C17        20.1287  -27.5226  -47.9026 C.3       10 UNK        -0.0983 
     18 CA         21.1569  -27.0413  -46.8416 C.3       3 UNK         0.0876 
     19 N          20.6383  -25.9031  -46.0814 N.am      3 UNK        -0.4424 
     20 C          21.3003  -25.1098  -45.2315 C.2       2 UNK         0.4918 
     21 O          22.5125  -25.1758  -45.0274 O.2       2 UNK        -0.4875 
     22 CA         20.4230  -24.1397  -44.4128 C.3       2 UNK         0.0481 
     23 CB         20.2849  -22.7923  -45.1373 C.3       2 UNK        -0.1831 
     24 N          19.0860  -24.6905  -44.1321 N.am      2 UNK        -0.4498 
     25 C          18.8689  -25.8095  -43.4207 C.2       1 UNK         0.5027 
     26 O          19.7762  -26.4146  -42.8518 O.2       1 UNK        -0.4969 
     27 C          21.6838  -28.2076  -45.9731 C.2       3 UNK         0.5005 
     28 O          22.3940  -29.0609  -46.5077 O.2       3 UNK        -0.5279 
     29 N          21.3788  -28.2251  -44.6651 N.am      4 UNK        -0.4463 
     30 CA         21.9245  -29.1922  -43.7092 C.3       4 UNK         0.0283 
     31 CB         21.0109  -29.2716  -42.4781 C.3       4 UNK        -0.1875 
     32 C          23.3715  -28.8809  -43.2840 C.2       4 UNK         0.4949 
     33 O          23.9886  -29.7315  -42.6416 O.2       4 UNK        -0.5039 
     34 N          23.8837  -27.6863  -43.6292 N.am      5 UNK        -0.4663 
     35 CA         25.2497  -27.1901  -43.4162 C.3       5 UNK         0.0242 
     36 CB         26.2428  -27.9377  -44.3334 C.3       5 UNK        -0.1982 
     37 C          25.6641  -27.2001  -41.9334 C.2       5 UNK         0.5017 
     38 O          25.3911  -26.2319  -41.2237 O.2       5 UNK        -0.5012 
     39 N          26.2892  -28.3004  -41.4915 N.am      6 UNK        -0.4439 
     40 CA         26.6566  -28.5761  -40.0993 C.3       6 UNK         0.0297 
     41 CB         27.6272  -29.7687  -40.0686 C.3       6 UNK        -0.2006 
     42 C          25.4495  -28.8427  -39.1765 C.2       6 UNK         0.4892 
     43 O          25.6221  -28.8198  -37.9575 O.2       6 UNK        -0.5089 
     44 N          24.2684  -29.0908  -39.7650 N.am      7 UNK        -0.4243 
     45 CA         22.9800  -29.3433  -39.1095 C.3       7 UNK         0.0196 
     46 CB         22.5357  -28.1455  -38.2425 C.3       7 UNK        -0.2007 
     47 C          22.9330  -30.6913  -38.3693 C.2       7 UNK         0.5020 
     48 O          22.2893  -30.8013  -37.3245 O.2       7 UNK        -0.5147 
     49 N          23.6020  -31.7052  -38.9377 N.am      8 UNK        -0.4734 
     50 CA         23.5207  -33.0971  -38.4848 C.3       8 UNK         0.0238 
     51 CB         24.6768  -33.9080  -39.0932 C.3       8 UNK        -0.1912 
     52 C          22.1606  -33.7255  -38.8354 C.2       8 UNK         0.5038 
     53 O          21.5758  -34.4173  -38.0009 O.2       8 UNK        -0.5046 
     54 N          21.6829  -33.4478  -40.0541 N.am      9 UNK        -0.4200 
     55 CA         20.3273  -33.7474  -40.5280 C.3       9 UNK         0.0839 
     56 C          19.3199  -32.6349  -40.1287 C.2       9 UNK         0.5513 
     57 N          18.0363  -32.9622  -40.0649 N.am      9 UNK        -0.7519 
     58 O          19.6789  -31.4812  -39.9033 O.2       9 UNK        -0.4960 
     59 C59        20.3079  -34.0496  -42.0521 C.3       10 UNK        -0.0876 
     60 S60        21.1620  -32.8057  -43.0866 S.3       10 UNK        -0.2414 
     61 C61        20.1851  -32.8435  -44.6261 C.3       10 UNK         0.0169 
     62 H62        14.2788  -23.5201  -41.9688 H         1 UNK         0.0903 
     63 H63        15.3870  -22.4164  -42.7880 H         1 UNK         0.0903 
     64 H64        14.5146  -23.6401  -43.7131 H         1 UNK         0.0903 
     65 H65        15.7994  -25.3650  -44.2660 H         1 UNK         0.3096 
     66 H66        17.3592  -26.9048  -44.3643 H         1 UNK         0.1121 
     67 H67        17.1422  -26.9757  -41.3143 H         1 UNK         0.0849 
     68 H68        18.0487  -28.1375  -42.2354 H         1 UNK         0.0849 
     69 H69        16.8541  -30.3581  -41.7322 H         1 UNK         0.0865 
     70 H70        15.5129  -30.8264  -42.7466 H         1 UNK         0.0865 
     71 H71        18.3345  -31.9728  -42.7807 H         1 UNK         0.1346 
     72 H72        19.7439  -31.2212  -46.7585 H         1 UNK         0.1412 
     73 H73        16.4312  -29.0001  -45.2125 H         1 UNK         0.1426 
     74 H74        16.8837  -29.3606  -47.7516 H         1 UNK         0.0716 
     75 H75        18.4987  -29.7928  -48.2327 H         1 UNK         0.0716 
     76 H76        20.1621  -26.8373  -48.7509 H         1 UNK         0.0695 
     77 H77        20.4066  -28.4933  -48.3175 H         1 UNK         0.0695 
     78 H78        22.0331  -26.6755  -47.3816 H         1 UNK         0.0983 
     79 H79        19.6416  -25.7680  -46.1716 H         1 UNK         0.3095 
     80 H80        20.9222  -23.9659  -43.4573 H         1 UNK         0.0454 
     81 H81        19.7287  -22.0733  -44.5357 H         1 UNK         0.0851 
     82 H82        19.7742  -22.8960  -46.0955 H         1 UNK         0.0851 
     83 H83        21.2646  -22.3555  -45.3363 H         1 UNK         0.0851 
     84 H84        18.2945  -24.2273  -44.5559 H         1 UNK         0.2976 
     85 H85        20.7959  -27.4936  -44.2737 H         1 UNK         0.3116 
     86 H86        21.9289  -30.1731  -44.1876 H         1 UNK         0.0646 
     87 H87        19.9684  -29.3956  -42.7643 H         1 UNK         0.0847 
     88 H88        21.0885  -28.3831  -41.8515 H         1 UNK         0.0847 
     89 H89        21.2722  -30.1295  -41.8598 H         1 UNK         0.0847 
     90 H90        23.2694  -27.0376  -44.1078 H         1 UNK         0.3040 
     91 H91        25.2472  -26.1427  -43.7238 H         1 UNK         0.1015 
     92 H92        27.2648  -27.5919  -44.1715 H         1 UNK         0.0786 
     93 H93        26.0084  -27.7605  -45.3833 H         1 UNK         0.0786 
     94 H94        26.2292  -29.0166  -44.1758 H         1 UNK         0.0786 
     95 H95        26.4147  -29.0563  -42.1504 H         1 UNK         0.3172 
     96 H96        27.1772  -27.6996  -39.7081 H         1 UNK         0.0595 
     97 H97        27.1647  -30.6771  -40.4568 H         1 UNK         0.0839 
     98 H98        27.9538  -29.9806  -39.0494 H         1 UNK         0.0839 
     99 H99        28.5229  -29.5682  -40.6570 H         1 UNK         0.0839 
    100 H100       24.2582  -29.1460  -40.7799 H         1 UNK         0.2998 
    101 H101       22.2510  -29.4343  -39.9124 H         1 UNK         0.0822 
    102 H102       22.5722  -27.2133  -38.8064 H         1 UNK         0.0787 
    103 H103       21.5089  -28.2749  -37.8983 H         1 UNK         0.0787 
    104 H104       23.1606  -28.0287  -37.3568 H         1 UNK         0.0787 
    105 H105       24.1264  -31.5214  -39.7811 H         1 UNK         0.3055 
    106 H106       23.6248  -33.1151  -37.3972 H         1 UNK         0.1106 
    107 H107       24.6393  -33.9185  -40.1832 H         1 UNK         0.0828 
    108 H108       24.6430  -34.9451  -38.7564 H         1 UNK         0.0828 
    109 H109       25.6441  -33.5036  -38.7945 H         1 UNK         0.0828 
    110 H110       22.2198  -32.8434  -40.6577 H         1 UNK         0.2931 
    111 H111       19.9953  -34.6583  -40.0254 H         1 UNK         0.0412 
    112 H112       17.3663  -32.2572  -39.8013 H         1 UNK         0.3472 
    113 H113       17.7266  -33.9057  -40.2392 H         1 UNK         0.3472 
    114 H114       20.8001  -35.0069  -42.2294 H         1 UNK         0.0970 
    115 H115       19.2829  -34.1861  -42.4011 H         1 UNK         0.0970 
    116 H116       20.8926  -32.7916  -45.4551 H         1 UNK         0.0612 
    117 H117       19.6768  -33.8031  -44.7258 H         1 UNK         0.0612 
@<TRIPOS>BOND
     1    1    2 1    
     2    1   62 1    
     3    1   63 1    
     4    1   64 1    
     5    2    3 2    
     6    2    4 am   BACKBONE|DICT|INTERRES
     7    4    5 1    
     8    4   65 1    
     9    5    6 1    
    10    5   25 1    
    11    5   66 1    
    12    6    7 1    
    13    6   67 1    
    14    6   68 1    
    15    7    8 1    
    16    8    9 1    
    17    8   69 1    
    18    8   70 1    
    19    9   10 ar   
    20    9   14 ar   
    21   10   11 ar   
    22   10   71 1    
    23   11   12 ar   
    24   11   61 1    
    25   12   13 ar   
    26   12   72 1    
    27   13   14 ar   
    28   13   15 1    
    29   14   73 1    
    30   15   16 1    
    31   15   74 1    
    32   15   75 1    
    33   16   17 1    
    34   17   18 1    
    35   17   76 1    
    36   17   77 1    
    37   18   19 1    
    38   18   27 1    
    39   18   78 1    
    40   19   20 am   BACKBONE|DICT|INTERRES
    41   19   79 1    
    42   20   21 2    
    43   20   22 1    
    44   22   23 1    
    45   22   24 1    
    46   22   80 1    
    47   23   81 1    
    48   23   82 1    
    49   23   83 1    
    50   24   25 am   BACKBONE|DICT|INTERRES
    51   24   84 1    
    52   25   26 2    
    53   27   28 2    
    54   27   29 am   BACKBONE|DICT|INTERRES
    55   29   30 1    
    56   29   85 1    
    57   30   31 1    
    58   30   32 1    
    59   30   86 1    
    60   31   87 1    
    61   31   88 1    
    62   31   89 1    
    63   32   33 2    
    64   32   34 am   BACKBONE|DICT|INTERRES
    65   34   35 1    
    66   34   90 1    
    67   35   36 1    
    68   35   37 1    
    69   35   91 1    
    70   36   92 1    
    71   36   93 1    
    72   36   94 1    
    73   37   38 2    
    74   37   39 am   BACKBONE|DICT|INTERRES
    75   39   40 1    
    76   39   95 1    
    77   40   41 1    
    78   40   42 1    
    79   40   96 1    
    80   41   97 1    
    81   41   98 1    
    82   41   99 1    
    83   42   43 2    
    84   42   44 am   BACKBONE|DICT|INTERRES
    85   44   45 1    
    86   44  100 1    
    87   45   46 1    
    88   45   47 1    
    89   45  101 1    
    90   46  102 1    
    91   46  103 1    
    92   46  104 1    
    93   47   48 2    
    94   47   49 am   BACKBONE|DICT|INTERRES
    95   49   50 1    
    96   49  105 1    
    97   50   51 1    
    98   50   52 1    
    99   50  106 1    
   100   51  107 1    
   101   51  108 1    
   102   51  109 1    
   103   52   53 2    
   104   52   54 am   BACKBONE|DICT|INTERRES
   105   54   55 1    
   106   54  110 1    
   107   55   56 1    
   108   55   59 1    
   109   55  111 1    
   110   56   57 am   BACKBONE|DICT|INTERRES
   111   56   58 2    
   112   57  112 1    
   113   57  113 1    
   114   59   60 1    
   115   59  114 1    
   116   59  115 1    
   117   60   61 1    
   118   61  116 1    
   119   61  117 1    
@<TRIPOS>SUBSTRUCTURE
     1 UNK         1 GROUP             0       ****    0 ROOT    
