@<TRIPOS>MOLECULE
3R8
117   119    1
SMALL
USER_CHARGES


@<TRIPOS>ATOM
      1 CA         11.6394  -28.1357  -41.9617 C.3       0 UNK        -0.2013 
      2 C          12.9241  -28.0893  -42.7759 C.2       0 UNK         0.4866 
      3 O          13.2527  -29.0715  -43.4412 O.2       0 UNK        -0.5176 
      4 N          13.6320  -26.9507  -42.7298 N.am      1 UNK        -0.4884 
      5 CA         14.9319  -26.6725  -43.3608 C.3       1 UNK         0.0853 
      6 C6         14.9612  -27.0062  -44.8772 C.3       10 UNK        -0.0849 
      7 S7         16.1610  -25.9991  -45.8131 S.3       10 UNK        -0.2776 
      8 C8         16.8219  -27.2257  -46.9847 C.3       10 UNK         0.0316 
      9 C9         18.0191  -27.9833  -46.4252 C.ar      10 UNK        -0.0863 
     10 C10        17.8440  -29.1800  -45.7201 C.ar      10 UNK        -0.1009 
     11 C11        18.9517  -29.9081  -45.2738 C.ar      10 UNK        -0.0712 
     12 C12        20.2371  -29.4353  -45.5476 C.ar      10 UNK        -0.0894 
     13 C13        20.4292  -28.2383  -46.2428 C.ar      10 UNK        -0.0745 
     14 C14        19.3137  -27.5117  -46.6695 C.ar      10 UNK        -0.0972 
     15 C15        21.8356  -27.7742  -46.6058 C.3       10 UNK         0.0209 
     16 S16        22.9535  -27.6505  -45.1723 S.3       10 UNK        -0.2568 
     17 C17        22.4824  -26.0444  -44.4409 C.3       10 UNK        -0.0983 
     18 CA         22.1405  -26.0820  -42.9264 C.3       3 UNK         0.0876 
     19 N          20.9082  -26.7988  -42.6271 N.am      3 UNK        -0.4424 
     20 C          19.6834  -26.2778  -42.7259 C.2       2 UNK         0.4918 
     21 O          19.4371  -25.1727  -43.2167 O.2       2 UNK        -0.4875 
     22 CA         18.5507  -27.0985  -42.1048 C.3       2 UNK         0.0481 
     23 CB         18.5010  -26.8730  -40.5791 C.3       2 UNK        -0.1831 
     24 N          17.2913  -26.7075  -42.7288 N.am      2 UNK        -0.4498 
     25 C          16.1070  -27.3110  -42.5846 C.2       1 UNK         0.5027 
     26 O          15.9274  -28.2979  -41.8670 O.2       1 UNK        -0.4969 
     27 C          23.2587  -26.6803  -42.0555 C.2       3 UNK         0.5005 
     28 O          23.1770  -27.8512  -41.6633 O.2       3 UNK        -0.5279 
     29 N          24.2927  -25.8743  -41.7800 N.am      4 UNK        -0.4463 
     30 CA         25.4687  -26.2773  -41.0030 C.3       4 UNK         0.0283 
     31 CB         26.2869  -25.0334  -40.6228 C.3       4 UNK        -0.1875 
     32 C          26.3534  -27.2979  -41.7374 C.2       4 UNK         0.4949 
     33 O          26.9660  -28.1406  -41.0837 O.2       4 UNK        -0.5039 
     34 N          26.3760  -27.2341  -43.0773 N.am      5 UNK        -0.4663 
     35 CA         27.1263  -28.1452  -43.9495 C.3       5 UNK         0.0242 
     36 CB         27.0606  -27.6308  -45.3965 C.3       5 UNK        -0.1982 
     37 C          26.6432  -29.6046  -43.8736 C.2       5 UNK         0.5017 
     38 O          27.4540  -30.5173  -44.0296 O.2       5 UNK        -0.5012 
     39 N          25.3440  -29.7914  -43.6083 N.am      6 UNK        -0.4439 
     40 CA         24.7079  -31.0903  -43.3850 C.3       6 UNK         0.0297 
     41 CB         23.3128  -31.0695  -44.0286 C.3       6 UNK        -0.2006 
     42 C          24.6018  -31.4455  -41.8911 C.2       6 UNK         0.4892 
     43 O          23.9944  -32.4682  -41.5756 O.2       6 UNK        -0.5089 
     44 N          25.1452  -30.5961  -41.0027 N.am      7 UNK        -0.4243 
     45 CA         25.0802  -30.6802  -39.5385 C.3       7 UNK         0.0196 
     46 CB         25.9345  -31.8582  -39.0243 C.3       7 UNK        -0.2007 
     47 C          23.6297  -30.7126  -39.0195 C.2       7 UNK         0.5020 
     48 O          23.2771  -31.5845  -38.2233 O.2       7 UNK        -0.5147 
     49 N          22.8043  -29.7814  -39.5239 N.am      8 UNK        -0.4734 
     50 CA         21.3625  -29.6537  -39.2681 C.3       8 UNK         0.0238 
     51 CB         21.0880  -29.2617  -37.8006 C.3       8 UNK        -0.1912 
     52 C          20.5565  -30.8849  -39.7310 C.2       8 UNK         0.5038 
     53 O          19.5811  -31.2661  -39.0818 O.2       8 UNK        -0.5046 
     54 N          20.9910  -31.4700  -40.8549 N.am      9 UNK        -0.4200 
     55 CA         20.4158  -32.6506  -41.5221 C.3       9 UNK         0.0839 
     56 C          20.6624  -33.9948  -40.7723 C.2       9 UNK         0.5513 
     57 N          21.5352  -34.0512  -39.7731 N.am      9 UNK        -0.7519 
     58 O          20.0700  -35.0143  -41.1174 O.2       9 UNK        -0.4960 
     59 C59        18.9274  -32.4784  -41.9577 C.3       10 UNK        -0.0876 
     60 S60        18.5654  -30.8680  -42.7359 S.3       10 UNK        -0.2414 
     61 C61        18.7717  -31.2095  -44.5047 C.3       10 UNK         0.0169 
     62 H62        11.6919  -28.9377  -41.2262 H         1 UNK         0.0903 
     63 H63        11.4558  -27.2018  -41.4314 H         1 UNK         0.0903 
     64 H64        10.7880  -28.3273  -42.6142 H         1 UNK         0.0903 
     65 H65        13.2899  -26.2034  -42.1410 H         1 UNK         0.3096 
     66 H66        15.0471  -25.5919  -43.2565 H         1 UNK         0.1121 
     67 H67        13.9832  -26.8099  -45.3190 H         1 UNK         0.0849 
     68 H68        15.1449  -28.0693  -45.0348 H         1 UNK         0.0849 
     69 H69        16.0364  -27.9210  -47.2848 H         1 UNK         0.0865 
     70 H70        17.1145  -26.7044  -47.8976 H         1 UNK         0.0865 
     71 H71        16.8492  -29.5556  -45.5264 H         1 UNK         0.1346 
     72 H72        21.0936  -30.0072  -45.2279 H         1 UNK         0.1412 
     73 H73        19.4518  -26.5936  -47.2244 H         1 UNK         0.1426 
     74 H74        21.8140  -26.8169  -47.1287 H         1 UNK         0.0716 
     75 H75        22.2598  -28.4928  -47.3081 H         1 UNK         0.0716 
     76 H76        21.6374  -25.6305  -44.9929 H         1 UNK         0.0695 
     77 H77        23.3068  -25.3514  -44.6155 H         1 UNK         0.0695 
     78 H78        22.0057  -25.0514  -42.5890 H         1 UNK         0.0983 
     79 H79        21.0570  -27.7076  -42.2099 H         1 UNK         0.3095 
     80 H80        18.7384  -28.1481  -42.3178 H         1 UNK         0.0454 
     81 H81        17.8025  -27.5551  -40.0950 H         1 UNK         0.0851 
     82 H82        18.1977  -25.8542  -40.3357 H         1 UNK         0.0851 
     83 H83        19.4746  -27.0371  -40.1179 H         1 UNK         0.0851 
     84 H84        17.3792  -25.9238  -43.3661 H         1 UNK         0.2976 
     85 H85        24.2849  -24.9267  -42.1311 H         1 UNK         0.3116 
     86 H86        25.1193  -26.7488  -40.0815 H         1 UNK         0.0646 
     87 H87        25.6959  -24.3336  -40.0318 H         1 UNK         0.0847 
     88 H88        26.6553  -24.5044  -41.5028 H         1 UNK         0.0847 
     89 H89        27.1552  -25.3075  -40.0218 H         1 UNK         0.0847 
     90 H90        25.8355  -26.5121  -43.5311 H         1 UNK         0.3040 
     91 H91        28.1697  -28.1321  -43.6263 H         1 UNK         0.1015 
     92 H92        26.0361  -27.6000  -45.7696 H         1 UNK         0.0786 
     93 H93        27.6311  -28.2762  -46.0660 H         1 UNK         0.0786 
     94 H94        27.4800  -26.6281  -45.4816 H         1 UNK         0.0786 
     95 H95        24.7552  -28.9763  -43.4975 H         1 UNK         0.3172 
     96 H96        25.2908  -31.8780  -43.8665 H         1 UNK         0.0595 
     97 H97        22.6599  -30.3457  -43.5390 H         1 UNK         0.0839 
     98 H98        22.8319  -32.0460  -43.9620 H         1 UNK         0.0839 
     99 H99        23.3718  -30.8137  -45.0866 H         1 UNK         0.0839 
    100 H100       25.6409  -29.7885  -41.3612 H         1 UNK         0.2998 
    101 H101       25.5224  -29.7591  -39.1555 H         1 UNK         0.0822 
    102 H102       26.9612  -31.7880  -39.3832 H         1 UNK         0.0787 
    103 H103       25.9718  -31.8667  -37.9343 H         1 UNK         0.0787 
    104 H104       25.5326  -32.8206  -39.3430 H         1 UNK         0.0787 
    105 H105       23.1743  -29.1282  -40.2124 H         1 UNK         0.3055 
    106 H106       21.0215  -28.8291  -39.8940 H         1 UNK         0.1106 
    107 H107       20.0324  -29.0336  -37.6486 H         1 UNK         0.0828 
    108 H108       21.3482  -30.0646  -37.1104 H         1 UNK         0.0828 
    109 H109       21.6537  -28.3751  -37.5143 H         1 UNK         0.0828 
    110 H110       21.8446  -31.1222  -41.2649 H         1 UNK         0.2931 
    111 H111       20.9954  -32.7459  -42.4404 H         1 UNK         0.0412 
    112 H112       21.6950  -34.9286  -39.3042 H         1 UNK         0.3472 
    113 H113       22.0508  -33.2275  -39.4955 H         1 UNK         0.3472 
    114 H114       18.2720  -32.5751  -41.0906 H         1 UNK         0.0970 
    115 H115       18.6340  -33.2765  -42.6418 H         1 UNK         0.0970 
    116 H116       17.9025  -31.7547  -44.8740 H         1 UNK         0.0612 
    117 H117       19.6363  -31.8575  -44.6536 H         1 UNK         0.0612 
@<TRIPOS>BOND
     1    1    2 1    
     2    1   62 1    
     3    1   63 1    
     4    1   64 1    
     5    2    3 2    
     6    2    4 am   BACKBONE|DICT|INTERRES
     7    4    5 1    
     8    4   65 1    
     9    5    6 1    
    10    5   25 1    
    11    5   66 1    
    12    6    7 1    
    13    6   67 1    
    14    6   68 1    
    15    7    8 1    
    16    8    9 1    
    17    8   69 1    
    18    8   70 1    
    19    9   10 ar   
    20    9   14 ar   
    21   10   11 ar   
    22   10   71 1    
    23   11   12 ar   
    24   11   61 1    
    25   12   13 ar   
    26   12   72 1    
    27   13   14 ar   
    28   13   15 1    
    29   14   73 1    
    30   15   16 1    
    31   15   74 1    
    32   15   75 1    
    33   16   17 1    
    34   17   18 1    
    35   17   76 1    
    36   17   77 1    
    37   18   19 1    
    38   18   27 1    
    39   18   78 1    
    40   19   20 am   BACKBONE|DICT|INTERRES
    41   19   79 1    
    42   20   21 2    
    43   20   22 1    
    44   22   23 1    
    45   22   24 1    
    46   22   80 1    
    47   23   81 1    
    48   23   82 1    
    49   23   83 1    
    50   24   25 am   BACKBONE|DICT|INTERRES
    51   24   84 1    
    52   25   26 2    
    53   27   28 2    
    54   27   29 am   BACKBONE|DICT|INTERRES
    55   29   30 1    
    56   29   85 1    
    57   30   31 1    
    58   30   32 1    
    59   30   86 1    
    60   31   87 1    
    61   31   88 1    
    62   31   89 1    
    63   32   33 2    
    64   32   34 am   BACKBONE|DICT|INTERRES
    65   34   35 1    
    66   34   90 1    
    67   35   36 1    
    68   35   37 1    
    69   35   91 1    
    70   36   92 1    
    71   36   93 1    
    72   36   94 1    
    73   37   38 2    
    74   37   39 am   BACKBONE|DICT|INTERRES
    75   39   40 1    
    76   39   95 1    
    77   40   41 1    
    78   40   42 1    
    79   40   96 1    
    80   41   97 1    
    81   41   98 1    
    82   41   99 1    
    83   42   43 2    
    84   42   44 am   BACKBONE|DICT|INTERRES
    85   44   45 1    
    86   44  100 1    
    87   45   46 1    
    88   45   47 1    
    89   45  101 1    
    90   46  102 1    
    91   46  103 1    
    92   46  104 1    
    93   47   48 2    
    94   47   49 am   BACKBONE|DICT|INTERRES
    95   49   50 1    
    96   49  105 1    
    97   50   51 1    
    98   50   52 1    
    99   50  106 1    
   100   51  107 1    
   101   51  108 1    
   102   51  109 1    
   103   52   53 2    
   104   52   54 am   BACKBONE|DICT|INTERRES
   105   54   55 1    
   106   54  110 1    
   107   55   56 1    
   108   55   59 1    
   109   55  111 1    
   110   56   57 am   BACKBONE|DICT|INTERRES
   111   56   58 2    
   112   57  112 1    
   113   57  113 1    
   114   59   60 1    
   115   59  114 1    
   116   59  115 1    
   117   60   61 1    
   118   61  116 1    
   119   61  117 1    
@<TRIPOS>SUBSTRUCTURE
     1 UNK         1 GROUP             0       ****    0 ROOT    
