@<TRIPOS>MOLECULE
3R8
117   119    1
SMALL
USER_CHARGES


@<TRIPOS>ATOM
      1 CA         17.6091  -26.9656  -40.8391 C.3       0 UNK        -0.2013 
      2 C          17.1272  -25.9403  -41.8534 C.2       0 UNK         0.4866 
      3 O          16.3265  -25.0709  -41.5078 O.2       0 UNK        -0.5176 
      4 N          17.6119  -26.0291  -43.0962 N.am      1 UNK        -0.4884 
      5 CA         17.3271  -25.0792  -44.1708 C.3       1 UNK         0.0853 
      6 C6         16.0029  -25.3845  -44.9301 C.3       10 UNK        -0.0849 
      7 S7         15.9835  -26.8602  -46.0102 S.3       10 UNK        -0.2776 
      8 C8         15.4582  -28.2013  -44.8884 C.3       10 UNK         0.0316 
      9 C9         16.6191  -29.0822  -44.4362 C.ar      10 UNK        -0.0863 
     10 C10        16.7436  -29.4523  -43.0933 C.ar      10 UNK        -0.1009 
     11 C11        17.7826  -30.2925  -42.6784 C.ar      10 UNK        -0.0712 
     12 C12        18.7069  -30.7595  -43.6191 C.ar      10 UNK        -0.0894 
     13 C13        18.5931  -30.4010  -44.9651 C.ar      10 UNK        -0.0745 
     14 C14        17.5399  -29.5755  -45.3666 C.ar      10 UNK        -0.0972 
     15 C15        19.5900  -30.9261  -45.9906 C.3       10 UNK         0.0209 
     16 S16        20.4111  -29.5884  -46.9170 S.3       10 UNK        -0.2568 
     17 C17        21.3909  -28.8063  -45.5983 C.3       10 UNK        -0.0983 
     18 CA         22.0507  -27.4712  -46.0356 C.3       3 UNK         0.0876 
     19 N          21.0687  -26.4064  -46.2333 N.am      3 UNK        -0.4424 
     20 C          20.5596  -25.9791  -47.3904 C.2       2 UNK         0.4918 
     21 O          20.8274  -26.4842  -48.4820 O.2       2 UNK        -0.4875 
     22 CA         19.5985  -24.7703  -47.3101 C.3       2 UNK         0.0481 
     23 CB         18.9890  -24.4100  -48.6779 C.3       2 UNK        -0.1831 
     24 N          18.5073  -24.9549  -46.3455 N.am      2 UNK        -0.4498 
     25 C          18.6047  -24.8842  -45.0116 C.2       1 UNK         0.5027 
     26 O          19.6686  -24.6635  -44.4288 O.2       1 UNK        -0.4969 
     27 C          23.0369  -26.9889  -44.9567 C.2       3 UNK         0.5005 
     28 O          22.7821  -25.9799  -44.2903 O.2       3 UNK        -0.5279 
     29 N          24.1245  -27.7447  -44.7499 N.am      4 UNK        -0.4463 
     30 CA         25.0902  -27.5532  -43.6607 C.3       4 UNK         0.0283 
     31 CB         26.4085  -28.2620  -44.0237 C.3       4 UNK        -0.1875 
     32 C          24.5230  -28.0232  -42.3041 C.2       4 UNK         0.4949 
     33 O          25.0754  -28.9256  -41.6743 O.2       4 UNK        -0.5039 
     34 N          23.3951  -27.4353  -41.8943 N.am      5 UNK        -0.4663 
     35 CA         22.7143  -27.7088  -40.6307 C.3       5 UNK         0.0242 
     36 CB         21.3221  -27.0590  -40.6765 C.3       5 UNK        -0.1982 
     37 C          23.5311  -27.1769  -39.4324 C.2       5 UNK         0.5017 
     38 O          24.1974  -26.1510  -39.5750 O.2       5 UNK        -0.5012 
     39 N          23.4853  -27.8126  -38.2533 N.am      6 UNK        -0.4439 
     40 CA         22.7388  -29.0280  -37.9115 C.3       6 UNK         0.0297 
     41 CB         22.4215  -28.9985  -36.4070 C.3       6 UNK        -0.2006 
     42 C          23.4736  -30.3332  -38.2742 C.2       6 UNK         0.4892 
     43 O          22.8804  -31.3984  -38.1194 O.2       6 UNK        -0.5089 
     44 N          24.7284  -30.2526  -38.7429 N.am      7 UNK        -0.4243 
     45 CA         25.5719  -31.4078  -39.0801 C.3       7 UNK         0.0196 
     46 CB         26.9874  -30.9266  -39.4379 C.3       7 UNK        -0.2007 
     47 C          24.9979  -32.2947  -40.2004 C.2       7 UNK         0.5020 
     48 O          25.1102  -33.5180  -40.1229 O.2       7 UNK        -0.5147 
     49 N          24.3749  -31.6668  -41.2054 N.am      8 UNK        -0.4734 
     50 CA         23.6720  -32.3396  -42.3023 C.3       8 UNK         0.0238 
     51 CB         23.4816  -31.3422  -43.4564 C.3       8 UNK        -0.1912 
     52 C          22.3106  -32.9386  -41.9005 C.2       8 UNK         0.5038 
     53 O          21.7795  -33.7561  -42.6538 O.2       8 UNK        -0.5046 
     54 N          21.7530  -32.5064  -40.7634 N.am      9 UNK        -0.4200 
     55 CA         20.4464  -32.9415  -40.2536 C.3       9 UNK         0.0839 
     56 C          20.5412  -34.2593  -39.4391 C.2       9 UNK         0.5513 
     57 N          19.4261  -34.9576  -39.2704 N.am      9 UNK        -0.7519 
     58 O          21.5955  -34.6497  -38.9423 O.2       9 UNK        -0.4960 
     59 C59        19.7452  -31.8163  -39.4462 C.3       10 UNK        -0.0876 
     60 S60        19.4681  -30.3235  -40.4594 S.3       10 UNK        -0.2414 
     61 C61        17.8713  -30.7485  -41.2283 C.3       10 UNK         0.0169 
     62 H62        16.7665  -27.5305  -40.4420 H         1 UNK         0.0903 
     63 H63        18.3119  -27.6696  -41.2813 H         1 UNK         0.0903 
     64 H64        18.1079  -26.4676  -40.0083 H         1 UNK         0.0903 
     65 H65        18.2783  -26.7522  -43.3310 H         1 UNK         0.3096 
     66 H66        17.1879  -24.0993  -43.7075 H         1 UNK         0.1121 
     67 H67        15.1815  -25.4587  -44.2160 H         1 UNK         0.0849 
     68 H68        15.7454  -24.5271  -45.5545 H         1 UNK         0.0849 
     69 H69        14.9269  -27.7840  -44.0319 H         1 UNK         0.0865 
     70 H70        14.7391  -28.8299  -45.4150 H         1 UNK         0.0865 
     71 H71        16.0178  -29.1018  -42.3724 H         1 UNK         0.1346 
     72 H72        19.5072  -31.4139  -43.3000 H         1 UNK         0.1412 
     73 H73        17.4427  -29.3116  -46.4110 H         1 UNK         0.1426 
     74 H74        19.0623  -31.5693  -46.6959 H         1 UNK         0.0716 
     75 H75        20.3510  -31.5475  -45.5154 H         1 UNK         0.0716 
     76 H76        22.1433  -29.5371  -45.3014 H         1 UNK         0.0695 
     77 H77        20.7562  -28.6462  -44.7244 H         1 UNK         0.0695 
     78 H78        22.6201  -27.6228  -46.9554 H         1 UNK         0.0983 
     79 H79        20.8565  -25.8704  -45.3946 H         1 UNK         0.3095 
     80 H80        20.1966  -23.9165  -46.9851 H         1 UNK         0.0454 
     81 H81        19.7680  -24.2001  -49.4120 H         1 UNK         0.0851 
     82 H82        18.3631  -23.5200  -48.6127 H         1 UNK         0.0851 
     83 H83        18.3782  -25.2227  -49.0731 H         1 UNK         0.0851 
     84 H84        17.6118  -25.2284  -46.7292 H         1 UNK         0.2976 
     85 H85        24.2612  -28.5635  -45.3253 H         1 UNK         0.3116 
     86 H86        25.3047  -26.4865  -43.5661 H         1 UNK         0.0646 
     87 H87        26.2753  -29.3382  -44.1369 H         1 UNK         0.0847 
     88 H88        27.1589  -28.1090  -43.2468 H         1 UNK         0.0847 
     89 H89        26.8254  -27.8748  -44.9534 H         1 UNK         0.0847 
     90 H90        23.0108  -26.7023  -42.4836 H         1 UNK         0.3040 
     91 H91        22.5954  -28.7905  -40.5633 H         1 UNK         0.1015 
     92 H92        20.7542  -27.2769  -39.7714 H         1 UNK         0.0786 
     93 H93        20.7425  -27.4338  -41.5203 H         1 UNK         0.0786 
     94 H94        21.3854  -25.9740  -40.7700 H         1 UNK         0.0786 
     95 H95        24.0299  -27.4190  -37.4990 H         1 UNK         0.3172 
     96 H96        21.7839  -29.0328  -38.4391 H         1 UNK         0.0595 
     97 H97        23.3280  -29.0132  -35.8005 H         1 UNK         0.0839 
     98 H98        21.8221  -29.8624  -36.1154 H         1 UNK         0.0839 
     99 H99        21.8509  -28.1093  -36.1382 H         1 UNK         0.0839 
    100 H100       25.1382  -29.3388  -38.8741 H         1 UNK         0.2998 
    101 H101       25.6428  -32.0283  -38.1841 H         1 UNK         0.0822 
    102 H102       27.4427  -30.3812  -38.6112 H         1 UNK         0.0787 
    103 H103       27.6397  -31.7707  -39.6659 H         1 UNK         0.0787 
    104 H104       26.9846  -30.2730  -40.3110 H         1 UNK         0.0787 
    105 H105       24.4325  -30.6515  -41.2426 H         1 UNK         0.3055 
    106 H106       24.2951  -33.1634  -42.6578 H         1 UNK         0.1106 
    107 H107       24.4378  -30.9570  -43.8086 H         1 UNK         0.0828 
    108 H108       22.9911  -31.8161  -44.3079 H         1 UNK         0.0828 
    109 H109       22.8645  -30.4953  -43.1534 H         1 UNK         0.0828 
    110 H110       22.2932  -31.9189  -40.1426 H         1 UNK         0.2931 
    111 H111       19.8124  -33.1598  -41.1155 H         1 UNK         0.0412 
    112 H112       18.5526  -34.6564  -39.6739 H         1 UNK         0.3472 
    113 H113       19.4613  -35.8134  -38.7382 H         1 UNK         0.3472 
    114 H114       18.7858  -32.1555  -39.0513 H         1 UNK         0.0970 
    115 H115       20.3383  -31.5386  -38.5745 H         1 UNK         0.0970 
    116 H116       17.0705  -30.3136  -40.6286 H         1 UNK         0.0612 
    117 H117       17.7186  -31.8281  -41.2080 H         1 UNK         0.0612 
@<TRIPOS>BOND
     1    1    2 1    
     2    1   62 1    
     3    1   63 1    
     4    1   64 1    
     5    2    3 2    
     6    2    4 am   BACKBONE|DICT|INTERRES
     7    4    5 1    
     8    4   65 1    
     9    5    6 1    
    10    5   25 1    
    11    5   66 1    
    12    6    7 1    
    13    6   67 1    
    14    6   68 1    
    15    7    8 1    
    16    8    9 1    
    17    8   69 1    
    18    8   70 1    
    19    9   10 ar   
    20    9   14 ar   
    21   10   11 ar   
    22   10   71 1    
    23   11   12 ar   
    24   11   61 1    
    25   12   13 ar   
    26   12   72 1    
    27   13   14 ar   
    28   13   15 1    
    29   14   73 1    
    30   15   16 1    
    31   15   74 1    
    32   15   75 1    
    33   16   17 1    
    34   17   18 1    
    35   17   76 1    
    36   17   77 1    
    37   18   19 1    
    38   18   27 1    
    39   18   78 1    
    40   19   20 am   BACKBONE|DICT|INTERRES
    41   19   79 1    
    42   20   21 2    
    43   20   22 1    
    44   22   23 1    
    45   22   24 1    
    46   22   80 1    
    47   23   81 1    
    48   23   82 1    
    49   23   83 1    
    50   24   25 am   BACKBONE|DICT|INTERRES
    51   24   84 1    
    52   25   26 2    
    53   27   28 2    
    54   27   29 am   BACKBONE|DICT|INTERRES
    55   29   30 1    
    56   29   85 1    
    57   30   31 1    
    58   30   32 1    
    59   30   86 1    
    60   31   87 1    
    61   31   88 1    
    62   31   89 1    
    63   32   33 2    
    64   32   34 am   BACKBONE|DICT|INTERRES
    65   34   35 1    
    66   34   90 1    
    67   35   36 1    
    68   35   37 1    
    69   35   91 1    
    70   36   92 1    
    71   36   93 1    
    72   36   94 1    
    73   37   38 2    
    74   37   39 am   BACKBONE|DICT|INTERRES
    75   39   40 1    
    76   39   95 1    
    77   40   41 1    
    78   40   42 1    
    79   40   96 1    
    80   41   97 1    
    81   41   98 1    
    82   41   99 1    
    83   42   43 2    
    84   42   44 am   BACKBONE|DICT|INTERRES
    85   44   45 1    
    86   44  100 1    
    87   45   46 1    
    88   45   47 1    
    89   45  101 1    
    90   46  102 1    
    91   46  103 1    
    92   46  104 1    
    93   47   48 2    
    94   47   49 am   BACKBONE|DICT|INTERRES
    95   49   50 1    
    96   49  105 1    
    97   50   51 1    
    98   50   52 1    
    99   50  106 1    
   100   51  107 1    
   101   51  108 1    
   102   51  109 1    
   103   52   53 2    
   104   52   54 am   BACKBONE|DICT|INTERRES
   105   54   55 1    
   106   54  110 1    
   107   55   56 1    
   108   55   59 1    
   109   55  111 1    
   110   56   57 am   BACKBONE|DICT|INTERRES
   111   56   58 2    
   112   57  112 1    
   113   57  113 1    
   114   59   60 1    
   115   59  114 1    
   116   59  115 1    
   117   60   61 1    
   118   61  116 1    
   119   61  117 1    
@<TRIPOS>SUBSTRUCTURE
     1 UNK         1 GROUP             0       ****    0 ROOT    
