@<TRIPOS>MOLECULE
3R8
117   119    1
SMALL
USER_CHARGES


@<TRIPOS>ATOM
      1 CA         21.3360  -29.6890  -43.5644 C.3       0 UNK        -0.2013 
      2 C          20.6589  -28.8877  -42.4689 C.2       0 UNK         0.4866 
      3 O          21.3230  -28.4524  -41.5320 O.2       0 UNK        -0.5176 
      4 N          19.3431  -28.6654  -42.5773 N.am      1 UNK        -0.4884 
      5 CA         18.5776  -27.7704  -41.6894 C.3       1 UNK         0.0853 
      6 C6         17.0525  -27.9818  -41.8380 C.3       10 UNK        -0.0849 
      7 S7         16.5354  -29.6848  -41.4412 S.3       10 UNK        -0.2776 
      8 C8         15.8613  -30.2484  -43.0397 C.3       10 UNK         0.0316 
      9 C9         16.9542  -30.6708  -44.0125 C.ar      10 UNK        -0.0863 
     10 C10        17.7197  -31.8030  -43.7329 C.ar      10 UNK        -0.1009 
     11 C11        18.7001  -32.2459  -44.6206 C.ar      10 UNK        -0.0712 
     12 C12        18.9095  -31.5454  -45.8144 C.ar      10 UNK        -0.0894 
     13 C13        18.1458  -30.4099  -46.1158 C.ar      10 UNK        -0.0745 
     14 C14        17.1713  -29.9763  -45.2068 C.ar      10 UNK        -0.0972 
     15 C15        18.3114  -29.7063  -47.4602 C.3       10 UNK         0.0209 
     16 S16        18.6318  -27.9175  -47.3107 S.3       10 UNK        -0.2568 
     17 C17        20.4550  -27.8573  -47.2763 C.3       10 UNK        -0.0983 
     18 CA         20.9852  -26.4480  -46.9008 C.3       3 UNK         0.0876 
     19 N          20.4233  -26.0062  -45.6199 N.am      3 UNK        -0.4424 
     20 C          20.6983  -24.8900  -44.9240 C.2       2 UNK         0.4918 
     21 O          21.5203  -24.0412  -45.2667 O.2       2 UNK        -0.4875 
     22 CA         19.9220  -24.6958  -43.6099 C.3       2 UNK         0.0481 
     23 CB         18.7331  -23.7394  -43.8241 C.3       2 UNK        -0.1831 
     24 N          19.4719  -25.9916  -43.1017 N.am      2 UNK        -0.4498 
     25 C          18.9240  -26.2805  -41.9178 C.2       1 UNK         0.5027 
     26 O          18.6861  -25.4498  -41.0407 O.2       1 UNK        -0.4969 
     27 C          22.5271  -26.4177  -46.9626 C.2       3 UNK         0.5005 
     28 O          23.0824  -25.9842  -47.9738 O.2       3 UNK        -0.5279 
     29 N          23.1836  -26.8581  -45.8827 N.am      4 UNK        -0.4463 
     30 CA         24.6307  -26.8631  -45.6922 C.3       4 UNK         0.0283 
     31 CB         25.3000  -27.9139  -46.6005 C.3       4 UNK        -0.1875 
     32 C          24.9165  -27.1828  -44.2225 C.2       4 UNK         0.4949 
     33 O          24.1082  -27.8600  -43.5843 O.2       4 UNK        -0.5039 
     34 N          26.0649  -26.7099  -43.7211 N.am      5 UNK        -0.4663 
     35 CA         26.7093  -27.0140  -42.4294 C.3       5 UNK         0.0242 
     36 CB         27.1219  -28.4996  -42.3861 C.3       5 UNK        -0.1982 
     37 C          25.9453  -26.6456  -41.1392 C.2       5 UNK         0.5017 
     38 O          26.5941  -26.4934  -40.1036 O.2       5 UNK        -0.5012 
     39 N          24.6109  -26.5401  -41.2038 N.am      6 UNK        -0.4439 
     40 CA         23.6647  -26.4540  -40.0829 C.3       6 UNK         0.0297 
     41 CB         23.8612  -25.1606  -39.2636 C.3       6 UNK        -0.2006 
     42 C          23.6945  -27.7378  -39.2264 C.2       6 UNK         0.4892 
     43 O          23.6777  -27.6698  -37.9960 O.2       6 UNK        -0.5089 
     44 N          23.7653  -28.8883  -39.9113 N.am      7 UNK        -0.4243 
     45 CA         23.8293  -30.2277  -39.3266 C.3       7 UNK         0.0196 
     46 CB         24.2993  -31.2183  -40.4049 C.3       7 UNK        -0.2007 
     47 C          22.4984  -30.6995  -38.7168 C.2       7 UNK         0.5020 
     48 O          22.5275  -31.5271  -37.8058 O.2       7 UNK        -0.5147 
     49 N          21.3705  -30.1827  -39.2309 N.am      8 UNK        -0.4734 
     50 CA         19.9899  -30.5052  -38.8417 C.3       8 UNK         0.0238 
     51 CB         19.6817  -29.9617  -37.4308 C.3       8 UNK        -0.1912 
     52 C          19.6542  -32.0017  -39.0029 C.2       8 UNK         0.5038 
     53 O          19.1215  -32.6240  -38.0823 O.2       8 UNK        -0.5046 
     54 N          19.9806  -32.5457  -40.1816 N.am      9 UNK        -0.4200 
     55 CA         19.7490  -33.9396  -40.5995 C.3       9 UNK         0.0839 
     56 C          18.2610  -34.3631  -40.8005 C.2       9 UNK         0.5513 
     57 N          17.2738  -33.5124  -40.5500 N.am      9 UNK        -0.7519 
     58 O          17.9935  -35.5015  -41.1761 O.2       9 UNK        -0.4960 
     59 C59        20.6631  -34.3438  -41.7965 C.3       10 UNK        -0.0876 
     60 S60        20.8426  -33.0766  -43.1027 S.3       10 UNK        -0.2414 
     61 C61        19.5143  -33.4857  -44.2767 C.3       10 UNK         0.0169 
     62 H62        21.8472  -29.0244  -44.2569 H         1 UNK         0.0903 
     63 H63        22.0775  -30.3634  -43.1383 H         1 UNK         0.0903 
     64 H64        20.6205  -30.2775  -44.1311 H         1 UNK         0.0903 
     65 H65        18.8115  -29.1217  -43.3080 H         1 UNK         0.3096 
     66 H66        18.8542  -27.9915  -40.6571 H         1 UNK         0.1121 
     67 H67        16.5090  -27.3157  -41.1646 H         1 UNK         0.0849 
     68 H68        16.7261  -27.7195  -42.8462 H         1 UNK         0.0849 
     69 H69        15.2094  -31.1040  -42.8567 H         1 UNK         0.0865 
     70 H70        15.2240  -29.4743  -43.4699 H         1 UNK         0.0865 
     71 H71        17.5467  -32.3454  -42.8175 H         1 UNK         0.1346 
     72 H72        19.6577  -31.8940  -46.5132 H         1 UNK         0.1412 
     73 H73        16.5643  -29.1136  -45.4468 H         1 UNK         0.1426 
     74 H74        19.1026  -30.1680  -48.0531 H         1 UNK         0.0716 
     75 H75        17.3906  -29.8418  -48.0290 H         1 UNK         0.0716 
     76 H76        20.8214  -28.1547  -48.2610 H         1 UNK         0.0695 
     77 H77        20.8144  -28.6094  -46.5712 H         1 UNK         0.0695 
     78 H78        20.6298  -25.7401  -47.6527 H         1 UNK         0.0983 
     79 H79        19.6295  -26.5549  -45.3300 H         1 UNK         0.3095 
     80 H80        20.6066  -24.2608  -42.8792 H         1 UNK         0.0454 
     81 H81        18.2297  -23.5058  -42.8863 H         1 UNK         0.0851 
     82 H82        17.9936  -24.1620  -44.5051 H         1 UNK         0.0851 
     83 H83        19.0664  -22.7922  -44.2505 H         1 UNK         0.0851 
     84 H84        19.6957  -26.7890  -43.6756 H         1 UNK         0.2976 
     85 H85        22.6665  -27.1808  -45.0753 H         1 UNK         0.3116 
     86 H86        25.0194  -25.8691  -45.9230 H         1 UNK         0.0646 
     87 H87        25.1605  -27.6842  -47.6565 H         1 UNK         0.0847 
     88 H88        26.3755  -27.9576  -46.4241 H         1 UNK         0.0847 
     89 H89        24.8998  -28.9124  -46.4197 H         1 UNK         0.0847 
     90 H90        26.6180  -26.1201  -44.3289 H         1 UNK         0.3040 
     91 H91        27.6242  -26.4189  -42.4100 H         1 UNK         0.1015 
     92 H92        26.2557  -29.1618  -42.4100 H         1 UNK         0.0786 
     93 H93        27.6776  -28.7274  -41.4753 H         1 UNK         0.0786 
     94 H94        27.7641  -28.7579  -43.2281 H         1 UNK         0.0786 
     95 H95        24.2022  -26.7859  -42.1029 H         1 UNK         0.3172 
     96 H96        22.6705  -26.4044  -40.5286 H         1 UNK         0.0595 
     97 H97        24.8035  -25.1618  -38.7152 H         1 UNK         0.0839 
     98 H98        23.0628  -25.0431  -38.5300 H         1 UNK         0.0839 
     99 H99        23.8452  -24.2788  -39.9038 H         1 UNK         0.0839 
    100 H100       23.7132  -28.8347  -40.9198 H         1 UNK         0.2998 
    101 H101       24.5715  -30.2122  -38.5254 H         1 UNK         0.0822 
    102 H102       24.3803  -32.2278  -39.9991 H         1 UNK         0.0787 
    103 H103       23.6053  -31.2604  -41.2455 H         1 UNK         0.0787 
    104 H104       25.2814  -30.9469  -40.7924 H         1 UNK         0.0787 
    105 H105       21.4675  -29.5091  -39.9894 H         1 UNK         0.3055 
    106 H106       19.3383  -29.9819  -39.5416 H         1 UNK         0.1106 
    107 H107       19.8910  -28.8941  -37.3634 H         1 UNK         0.0828 
    108 H108       18.6296  -30.1017  -37.1794 H         1 UNK         0.0828 
    109 H109       20.2691  -30.4674  -36.6638 H         1 UNK         0.0828 
    110 H110       20.4118  -31.9606  -40.8818 H         1 UNK         0.2931 
    111 H111       20.0738  -34.5533  -39.7570 H         1 UNK         0.0412 
    112 H112       16.3208  -33.8162  -40.6714 H         1 UNK         0.3472 
    113 H113       17.4683  -32.5874  -40.2031 H         1 UNK         0.3472 
    114 H114       21.6678  -34.5239  -41.4113 H         1 UNK         0.0970 
    115 H115       20.3652  -35.2952  -42.2411 H         1 UNK         0.0970 
    116 H116       18.8564  -34.2477  -43.8567 H         1 UNK         0.0612 
    117 H117       19.9542  -33.9199  -45.1756 H         1 UNK         0.0612 
@<TRIPOS>BOND
     1    1    2 1    
     2    1   62 1    
     3    1   63 1    
     4    1   64 1    
     5    2    3 2    
     6    2    4 am   BACKBONE|DICT|INTERRES
     7    4    5 1    
     8    4   65 1    
     9    5    6 1    
    10    5   25 1    
    11    5   66 1    
    12    6    7 1    
    13    6   67 1    
    14    6   68 1    
    15    7    8 1    
    16    8    9 1    
    17    8   69 1    
    18    8   70 1    
    19    9   10 ar   
    20    9   14 ar   
    21   10   11 ar   
    22   10   71 1    
    23   11   12 ar   
    24   11   61 1    
    25   12   13 ar   
    26   12   72 1    
    27   13   14 ar   
    28   13   15 1    
    29   14   73 1    
    30   15   16 1    
    31   15   74 1    
    32   15   75 1    
    33   16   17 1    
    34   17   18 1    
    35   17   76 1    
    36   17   77 1    
    37   18   19 1    
    38   18   27 1    
    39   18   78 1    
    40   19   20 am   BACKBONE|DICT|INTERRES
    41   19   79 1    
    42   20   21 2    
    43   20   22 1    
    44   22   23 1    
    45   22   24 1    
    46   22   80 1    
    47   23   81 1    
    48   23   82 1    
    49   23   83 1    
    50   24   25 am   BACKBONE|DICT|INTERRES
    51   24   84 1    
    52   25   26 2    
    53   27   28 2    
    54   27   29 am   BACKBONE|DICT|INTERRES
    55   29   30 1    
    56   29   85 1    
    57   30   31 1    
    58   30   32 1    
    59   30   86 1    
    60   31   87 1    
    61   31   88 1    
    62   31   89 1    
    63   32   33 2    
    64   32   34 am   BACKBONE|DICT|INTERRES
    65   34   35 1    
    66   34   90 1    
    67   35   36 1    
    68   35   37 1    
    69   35   91 1    
    70   36   92 1    
    71   36   93 1    
    72   36   94 1    
    73   37   38 2    
    74   37   39 am   BACKBONE|DICT|INTERRES
    75   39   40 1    
    76   39   95 1    
    77   40   41 1    
    78   40   42 1    
    79   40   96 1    
    80   41   97 1    
    81   41   98 1    
    82   41   99 1    
    83   42   43 2    
    84   42   44 am   BACKBONE|DICT|INTERRES
    85   44   45 1    
    86   44  100 1    
    87   45   46 1    
    88   45   47 1    
    89   45  101 1    
    90   46  102 1    
    91   46  103 1    
    92   46  104 1    
    93   47   48 2    
    94   47   49 am   BACKBONE|DICT|INTERRES
    95   49   50 1    
    96   49  105 1    
    97   50   51 1    
    98   50   52 1    
    99   50  106 1    
   100   51  107 1    
   101   51  108 1    
   102   51  109 1    
   103   52   53 2    
   104   52   54 am   BACKBONE|DICT|INTERRES
   105   54   55 1    
   106   54  110 1    
   107   55   56 1    
   108   55   59 1    
   109   55  111 1    
   110   56   57 am   BACKBONE|DICT|INTERRES
   111   56   58 2    
   112   57  112 1    
   113   57  113 1    
   114   59   60 1    
   115   59  114 1    
   116   59  115 1    
   117   60   61 1    
   118   61  116 1    
   119   61  117 1    
@<TRIPOS>SUBSTRUCTURE
     1 UNK         1 GROUP             0       ****    0 ROOT    
