@<TRIPOS>MOLECULE
3R8
117   119    1
SMALL
USER_CHARGES


@<TRIPOS>ATOM
      1 CA         14.3033  -24.2220  -41.6176 C.3       0 UNK        -0.2013 
      2 C          15.5082  -24.8959  -42.2571 C.2       0 UNK         0.4866 
      3 O          16.0085  -24.4170  -43.2754 O.2       0 UNK        -0.5176 
      4 N          15.9715  -26.0081  -41.6736 N.am      1 UNK        -0.4884 
      5 CA         17.1480  -26.7611  -42.1210 C.3       1 UNK         0.0853 
      6 C6         17.2255  -28.1534  -41.4500 C.3       10 UNK        -0.0849 
      7 S7         15.8773  -29.2362  -42.0283 S.3       10 UNK        -0.2776 
      8 C8         16.7594  -30.8038  -42.3450 C.3       10 UNK         0.0316 
      9 C9         17.8607  -30.7246  -43.4026 C.ar      10 UNK        -0.0863 
     10 C10        19.0206  -31.4850  -43.2310 C.ar      10 UNK        -0.1009 
     11 C11        20.0336  -31.4836  -44.1941 C.ar      10 UNK        -0.0712 
     12 C12        19.8870  -30.6952  -45.3392 C.ar      10 UNK        -0.0894 
     13 C13        18.7309  -29.9303  -45.5298 C.ar      10 UNK        -0.0745 
     14 C14        17.7208  -29.9529  -44.5621 C.ar      10 UNK        -0.0972 
     15 C15        18.5454  -29.1138  -46.8007 C.3       10 UNK         0.0209 
     16 S16        19.0218  -27.3741  -46.5695 S.3       10 UNK        -0.2568 
     17 C17        20.8374  -27.4863  -46.7193 C.3       10 UNK        -0.0983 
     18 CA         21.5409  -26.1192  -46.4859 C.3       3 UNK         0.0876 
     19 N          21.1653  -25.5168  -45.1955 N.am      3 UNK        -0.4424 
     20 C          21.4446  -26.0010  -43.9761 C.2       2 UNK         0.4918 
     21 O          22.2155  -26.9332  -43.7573 O.2       2 UNK        -0.4875 
     22 CA         20.6697  -25.3821  -42.8140 C.3       2 UNK         0.0481 
     23 CB         20.5971  -23.8415  -42.8775 C.3       2 UNK        -0.1831 
     24 N          19.3433  -25.9858  -42.8462 N.am      2 UNK        -0.4498 
     25 C          18.4406  -25.9642  -41.8622 C.2       1 UNK         0.5027 
     26 O          18.6002  -25.3843  -40.7853 O.2       1 UNK        -0.4969 
     27 C          23.0700  -26.2086  -46.7140 C.2       3 UNK         0.5005 
     28 O          23.5208  -27.0449  -47.4993 O.2       3 UNK        -0.5279 
     29 N          23.8406  -25.3636  -46.0075 N.am      4 UNK        -0.4463 
     30 CA         25.3066  -25.3867  -45.8862 C.3       4 UNK         0.0283 
     31 CB         25.9823  -25.0300  -47.2276 C.3       4 UNK        -0.1875 
     32 C          25.8462  -26.7005  -45.2747 C.2       4 UNK         0.4949 
     33 O          26.9861  -27.0810  -45.5468 O.2       4 UNK        -0.5039 
     34 N          25.0181  -27.3651  -44.4605 N.am      5 UNK        -0.4663 
     35 CA         25.2914  -28.6276  -43.7830 C.3       5 UNK         0.0242 
     36 CB         24.3799  -29.7081  -44.3982 C.3       5 UNK        -0.1982 
     37 C          25.0689  -28.4565  -42.2696 C.2       5 UNK         0.5017 
     38 O          24.9795  -27.3289  -41.7770 O.2       5 UNK        -0.5012 
     39 N          25.0119  -29.5821  -41.5469 N.am      6 UNK        -0.4439 
     40 CA         24.8910  -29.6344  -40.0866 C.3       6 UNK         0.0297 
     41 CB         25.3090  -31.0355  -39.6074 C.3       6 UNK        -0.2006 
     42 C          23.4923  -29.2911  -39.5401 C.2       6 UNK         0.4892 
     43 O          23.3647  -29.1211  -38.3271 O.2       6 UNK        -0.5089 
     44 N          22.4653  -29.2684  -40.4052 N.am      7 UNK        -0.4243 
     45 CA         21.0230  -29.1250  -40.1297 C.3       7 UNK         0.0196 
     46 CB         20.7021  -27.8095  -39.3958 C.3       7 UNK        -0.2007 
     47 C          20.4073  -30.3319  -39.3949 C.2       7 UNK         0.5020 
     48 O          19.3327  -30.7920  -39.7758 O.2       7 UNK        -0.5147 
     49 N          21.1244  -30.8689  -38.4000 N.am      8 UNK        -0.4734 
     50 CA         20.8378  -32.1271  -37.6998 C.3       8 UNK         0.0238 
     51 CB         21.6651  -32.1657  -36.4039 C.3       8 UNK        -0.1912 
     52 C          21.1048  -33.3845  -38.5553 C.2       8 UNK         0.5038 
     53 O          20.8178  -34.4939  -38.1049 O.2       8 UNK        -0.5046 
     54 N          21.6432  -33.1879  -39.7647 N.am      9 UNK        -0.4200 
     55 CA         21.8729  -34.1847  -40.8194 C.3       9 UNK         0.0839 
     56 C          20.5969  -34.8773  -41.3873 C.2       9 UNK         0.5513 
     57 N          19.3884  -34.4317  -41.0658 N.am      9 UNK        -0.7519 
     58 O          20.7112  -35.8481  -42.1308 O.2       9 UNK        -0.4960 
     59 C59        22.7643  -33.5949  -41.9512 C.3       10 UNK        -0.0876 
     60 S60        22.2173  -31.9495  -42.5422 S.3       10 UNK        -0.2414 
     61 C61        21.2486  -32.3858  -44.0197 C.3       10 UNK         0.0169 
     62 H62        13.4793  -24.1729  -42.3291 H         1 UNK         0.0903 
     63 H63        13.9567  -24.7580  -40.7343 H         1 UNK         0.0903 
     64 H64        14.5572  -23.2052  -41.3192 H         1 UNK         0.0903 
     65 H65        15.5267  -26.3538  -40.8353 H         1 UNK         0.3096 
     66 H66        17.0532  -26.9062  -43.2003 H         1 UNK         0.1121 
     67 H67        17.1741  -28.0702  -40.3628 H         1 UNK         0.0849 
     68 H68        18.1816  -28.6326  -41.6681 H         1 UNK         0.0849 
     69 H69        17.1686  -31.1584  -41.3975 H         1 UNK         0.0865 
     70 H70        16.0327  -31.5527  -42.6621 H         1 UNK         0.0865 
     71 H71        19.1339  -32.0956  -42.3471 H         1 UNK         0.1346 
     72 H72        20.6610  -30.6947  -46.0944 H         1 UNK         0.1412 
     73 H73        16.8202  -29.3757  -44.7202 H         1 UNK         0.1426 
     74 H74        19.1146  -29.5464  -47.6251 H         1 UNK         0.0716 
     75 H75        17.4987  -29.1504  -47.1064 H         1 UNK         0.0716 
     76 H76        21.2072  -28.2282  -46.0098 H         1 UNK         0.0695 
     77 H77        21.0619  -27.8717  -47.7156 H         1 UNK         0.0695 
     78 H78        21.1808  -25.4325  -47.2538 H         1 UNK         0.0983 
     79 H79        20.5196  -24.7427  -45.2595 H         1 UNK         0.3095 
     80 H80        21.1729  -25.6711  -41.8900 H         1 UNK         0.0454 
     81 H81        21.5896  -23.4064  -43.0013 H         1 UNK         0.0851 
     82 H82        19.9731  -23.4880  -43.6986 H         1 UNK         0.0851 
     83 H83        20.1840  -23.4310  -41.9561 H         1 UNK         0.0851 
     84 H84        19.1401  -26.5145  -43.6854 H         1 UNK         0.2976 
     85 H85        23.3652  -24.7089  -45.4020 H         1 UNK         0.3116 
     86 H86        25.5617  -24.6013  -45.1733 H         1 UNK         0.0646 
     87 H87        27.0571  -24.8957  -47.1004 H         1 UNK         0.0847 
     88 H88        25.5881  -24.0999  -47.6367 H         1 UNK         0.0847 
     89 H89        25.8413  -25.8121  -47.9740 H         1 UNK         0.0847 
     90 H90        24.1051  -26.9703  -44.2522 H         1 UNK         0.3040 
     91 H91        26.3346  -28.9174  -43.9257 H         1 UNK         0.1015 
     92 H92        24.4860  -29.7397  -45.4830 H         1 UNK         0.0786 
     93 H93        23.3275  -29.5209  -44.1784 H         1 UNK         0.0786 
     94 H94        24.6267  -30.7038  -44.0296 H         1 UNK         0.0786 
     95 H95        25.0867  -30.4678  -42.0267 H         1 UNK         0.3172 
     96 H96        25.5886  -28.9095  -39.6615 H         1 UNK         0.0595 
     97 H97        25.2934  -31.0980  -38.5182 H         1 UNK         0.0839 
     98 H98        26.3223  -31.2807  -39.9261 H         1 UNK         0.0839 
     99 H99        24.6397  -31.8091  -39.9845 H         1 UNK         0.0839 
    100 H100       22.6916  -29.4494  -41.3738 H         1 UNK         0.2998 
    101 H101       20.5464  -29.0800  -41.1106 H         1 UNK         0.0822 
    102 H102       21.1166  -26.9499  -39.9206 H         1 UNK         0.0787 
    103 H103       19.6243  -27.6586  -39.3253 H         1 UNK         0.0787 
    104 H104       21.0935  -27.7991  -38.3784 H         1 UNK         0.0787 
    105 H105       21.9850  -30.3871  -38.1490 H         1 UNK         0.3055 
    106 H106       19.7777  -32.1389  -37.4368 H         1 UNK         0.1106 
    107 H107       21.4529  -33.0678  -35.8283 H         1 UNK         0.0828 
    108 H108       22.7363  -32.1538  -36.6094 H         1 UNK         0.0828 
    109 H109       21.4371  -31.3145  -35.7621 H         1 UNK         0.0828 
    110 H110       21.8134  -32.2337  -40.0434 H         1 UNK         0.2931 
    111 H111       22.4434  -34.9891  -40.3518 H         1 UNK         0.0412 
    112 H112       18.5761  -34.9002  -41.4347 H         1 UNK         0.3472 
    113 H113       19.2825  -33.6425  -40.4484 H         1 UNK         0.3472 
    114 H114       22.8569  -34.2853  -42.7919 H         1 UNK         0.0970 
    115 H115       23.7807  -33.4784  -41.5739 H         1 UNK         0.0970 
    116 H116       20.8999  -33.4166  -43.9509 H         1 UNK         0.0612 
    117 H117       21.9021  -32.3390  -44.8920 H         1 UNK         0.0612 
@<TRIPOS>BOND
     1    1    2 1    
     2    1   62 1    
     3    1   63 1    
     4    1   64 1    
     5    2    3 2    
     6    2    4 am   BACKBONE|DICT|INTERRES
     7    4    5 1    
     8    4   65 1    
     9    5    6 1    
    10    5   25 1    
    11    5   66 1    
    12    6    7 1    
    13    6   67 1    
    14    6   68 1    
    15    7    8 1    
    16    8    9 1    
    17    8   69 1    
    18    8   70 1    
    19    9   10 ar   
    20    9   14 ar   
    21   10   11 ar   
    22   10   71 1    
    23   11   12 ar   
    24   11   61 1    
    25   12   13 ar   
    26   12   72 1    
    27   13   14 ar   
    28   13   15 1    
    29   14   73 1    
    30   15   16 1    
    31   15   74 1    
    32   15   75 1    
    33   16   17 1    
    34   17   18 1    
    35   17   76 1    
    36   17   77 1    
    37   18   19 1    
    38   18   27 1    
    39   18   78 1    
    40   19   20 am   BACKBONE|DICT|INTERRES
    41   19   79 1    
    42   20   21 2    
    43   20   22 1    
    44   22   23 1    
    45   22   24 1    
    46   22   80 1    
    47   23   81 1    
    48   23   82 1    
    49   23   83 1    
    50   24   25 am   BACKBONE|DICT|INTERRES
    51   24   84 1    
    52   25   26 2    
    53   27   28 2    
    54   27   29 am   BACKBONE|DICT|INTERRES
    55   29   30 1    
    56   29   85 1    
    57   30   31 1    
    58   30   32 1    
    59   30   86 1    
    60   31   87 1    
    61   31   88 1    
    62   31   89 1    
    63   32   33 2    
    64   32   34 am   BACKBONE|DICT|INTERRES
    65   34   35 1    
    66   34   90 1    
    67   35   36 1    
    68   35   37 1    
    69   35   91 1    
    70   36   92 1    
    71   36   93 1    
    72   36   94 1    
    73   37   38 2    
    74   37   39 am   BACKBONE|DICT|INTERRES
    75   39   40 1    
    76   39   95 1    
    77   40   41 1    
    78   40   42 1    
    79   40   96 1    
    80   41   97 1    
    81   41   98 1    
    82   41   99 1    
    83   42   43 2    
    84   42   44 am   BACKBONE|DICT|INTERRES
    85   44   45 1    
    86   44  100 1    
    87   45   46 1    
    88   45   47 1    
    89   45  101 1    
    90   46  102 1    
    91   46  103 1    
    92   46  104 1    
    93   47   48 2    
    94   47   49 am   BACKBONE|DICT|INTERRES
    95   49   50 1    
    96   49  105 1    
    97   50   51 1    
    98   50   52 1    
    99   50  106 1    
   100   51  107 1    
   101   51  108 1    
   102   51  109 1    
   103   52   53 2    
   104   52   54 am   BACKBONE|DICT|INTERRES
   105   54   55 1    
   106   54  110 1    
   107   55   56 1    
   108   55   59 1    
   109   55  111 1    
   110   56   57 am   BACKBONE|DICT|INTERRES
   111   56   58 2    
   112   57  112 1    
   113   57  113 1    
   114   59   60 1    
   115   59  114 1    
   116   59  115 1    
   117   60   61 1    
   118   61  116 1    
   119   61  117 1    
@<TRIPOS>SUBSTRUCTURE
     1 UNK         1 GROUP             0       ****    0 ROOT    
