@<TRIPOS>MOLECULE
3R8
117   119    1
SMALL
USER_CHARGES


@<TRIPOS>ATOM
      1 CA         18.7183  -30.0641  -46.9674 C.3       0 UNK        -0.2013 
      2 C          18.4383  -28.9996  -45.9188 C.2       0 UNK         0.4866 
      3 O          19.2736  -28.7684  -45.0406 O.2       0 UNK        -0.5176 
      4 N          17.2893  -28.3166  -46.0259 N.am      1 UNK        -0.4884 
      5 CA         16.8039  -27.3125  -45.0648 C.3       1 UNK         0.0853 
      6 C6         15.2713  -27.0806  -45.1436 C.3       10 UNK        -0.0849 
      7 S7         14.2788  -28.6109  -45.0341 S.3       10 UNK        -0.2776 
      8 C8         14.0861  -28.8296  -43.2310 C.3       10 UNK         0.0316 
      9 C9         15.3590  -29.3763  -42.6007 C.ar      10 UNK        -0.0863 
     10 C10        15.7477  -30.6936  -42.8529 C.ar      10 UNK        -0.1009 
     11 C11        16.9487  -31.1911  -42.3429 C.ar      10 UNK        -0.0712 
     12 C12        17.7721  -30.3559  -41.5798 C.ar      10 UNK        -0.0894 
     13 C13        17.3974  -29.0323  -41.3201 C.ar      10 UNK        -0.0745 
     14 C14        16.1683  -28.5632  -41.8018 C.ar      10 UNK        -0.0972 
     15 C15        18.3273  -28.1097  -40.5358 C.3       10 UNK         0.0209 
     16 S16        18.5789  -26.5151  -41.3904 S.3       10 UNK        -0.2568 
     17 C17        20.3863  -26.2723  -41.3258 C.3       10 UNK        -0.0983 
     18 CA         21.1290  -26.8707  -42.5571 C.3       3 UNK         0.0876 
     19 N          20.5747  -26.4157  -43.8437 N.am      3 UNK        -0.4424 
     20 C          20.5309  -25.1549  -44.3125 C.2       2 UNK         0.4918 
     21 O          21.0643  -24.1935  -43.7596 O.2       2 UNK        -0.4875 
     22 CA         19.7593  -24.9244  -45.6285 C.3       2 UNK         0.0481 
     23 CB         20.7190  -24.9739  -46.8278 C.3       2 UNK        -0.1831 
     24 N          18.6946  -25.9108  -45.8174 N.am      2 UNK        -0.4498 
     25 C          17.5855  -25.9782  -45.0673 C.2       1 UNK         0.5027 
     26 O          17.1985  -25.0494  -44.3566 O.2       1 UNK        -0.4969 
     27 C          22.6653  -26.6993  -42.4496 C.2       3 UNK         0.5005 
     28 O          23.2126  -26.7885  -41.3483 O.2       3 UNK        -0.5279 
     29 N          23.3393  -26.4674  -43.5873 N.am      4 UNK        -0.4463 
     30 CA         24.7545  -26.0962  -43.6886 C.3       4 UNK         0.0283 
     31 CB         25.0803  -25.7370  -45.1471 C.3       4 UNK        -0.1875 
     32 C          25.7348  -27.1579  -43.1666 C.2       4 UNK         0.4949 
     33 O          26.7936  -26.7997  -42.6501 O.2       4 UNK        -0.5039 
     34 N          25.3623  -28.4397  -43.2705 N.am      5 UNK        -0.4663 
     35 CA         26.1325  -29.5864  -42.7805 C.3       5 UNK         0.0242 
     36 CB         25.7114  -30.8382  -43.5724 C.3       5 UNK        -0.1982 
     37 C          25.9804  -29.7770  -41.2576 C.2       5 UNK         0.5017 
     38 O          25.6240  -30.8673  -40.8126 O.2       5 UNK        -0.5012 
     39 N          26.2136  -28.7051  -40.4853 N.am      6 UNK        -0.4439 
     40 CA         26.1102  -28.6205  -39.0204 C.3       6 UNK         0.0297 
     41 CB         27.2939  -29.3603  -38.3623 C.3       6 UNK        -0.2006 
     42 C          24.7418  -29.0875  -38.4774 C.2       6 UNK         0.4892 
     43 O          24.6865  -29.7997  -37.4736 O.2       6 UNK        -0.5089 
     44 N          23.6691  -28.7051  -39.1862 N.am      7 UNK        -0.4243 
     45 CA         22.2671  -29.0824  -38.9756 C.3       7 UNK         0.0196 
     46 CB         21.7483  -28.6016  -37.6047 C.3       7 UNK        -0.2007 
     47 C          21.9285  -30.5614  -39.2453 C.2       7 UNK         0.5020 
     48 O          20.7726  -30.9417  -39.0604 O.2       7 UNK        -0.5147 
     49 N          22.8789  -31.3642  -39.7459 N.am      8 UNK        -0.4734 
     50 CA         22.6810  -32.7759  -40.0997 C.3       8 UNK         0.0238 
     51 CB         23.9815  -33.5568  -39.8322 C.3       8 UNK        -0.1912 
     52 C          22.1726  -32.9597  -41.5452 C.2       8 UNK         0.5038 
     53 O          22.4994  -33.9651  -42.1774 O.2       8 UNK        -0.5046 
     54 N          21.3622  -32.0035  -42.0214 N.am      9 UNK        -0.4200 
     55 CA         20.7412  -31.9180  -43.3509 C.3       9 UNK         0.0839 
     56 C          21.7701  -31.5520  -44.4549 C.2       9 UNK         0.5513 
     57 N          21.6465  -30.3794  -45.0608 N.am      9 UNK        -0.7519 
     58 O          22.6610  -32.3279  -44.7891 O.2       9 UNK        -0.4960 
     59 C59        19.8936  -33.1798  -43.7006 C.3       10 UNK        -0.0876 
     60 S60        18.2022  -32.7681  -44.2350 S.3       10 UNK        -0.2414 
     61 C61        17.3458  -32.6297  -42.6327 C.3       10 UNK         0.0169 
     62 H62        17.8462  -30.2620  -47.5900 H         1 UNK         0.0903 
     63 H63        19.5370  -29.7479  -47.6129 H         1 UNK         0.0903 
     64 H64        19.0087  -30.9975  -46.4876 H         1 UNK         0.0903 
     65 H65        16.6451  -28.5434  -46.7707 H         1 UNK         0.3096 
     66 H66        17.0193  -27.7247  -44.0816 H         1 UNK         0.1121 
     67 H67        14.9408  -26.4039  -44.3531 H         1 UNK         0.0849 
     68 H68        15.0183  -26.5867  -46.0834 H         1 UNK         0.0849 
     69 H69        13.7890  -27.8863  -42.7702 H         1 UNK         0.0865 
     70 H70        13.2690  -29.5285  -43.0461 H         1 UNK         0.0865 
     71 H71        15.1239  -31.3266  -43.4696 H         1 UNK         0.1346 
     72 H72        18.7076  -30.7366  -41.1942 H         1 UNK         0.1412 
     73 H73        15.8722  -27.5417  -41.6051 H         1 UNK         0.1426 
     74 H74        19.2901  -28.5949  -40.3718 H         1 UNK         0.0716 
     75 H75        17.9016  -27.9233  -39.5492 H         1 UNK         0.0716 
     76 H76        20.7579  -26.6781  -40.3863 H         1 UNK         0.0695 
     77 H77        20.5695  -25.1983  -41.2662 H         1 UNK         0.0695 
     78 H78        20.9638  -27.9491  -42.5388 H         1 UNK         0.0983 
     79 H79        20.0932  -27.1402  -44.3701 H         1 UNK         0.3095 
     80 H80        19.3098  -23.9301  -45.5874 H         1 UNK         0.0454 
     81 H81        21.5153  -24.2359  -46.7202 H         1 UNK         0.0851 
     82 H82        20.1994  -24.7524  -47.7601 H         1 UNK         0.0851 
     83 H83        21.1920  -25.9512  -46.9312 H         1 UNK         0.0851 
     84 H84        18.9161  -26.7197  -46.3802 H         1 UNK         0.2976 
     85 H85        22.8025  -26.4297  -44.4411 H         1 UNK         0.3116 
     86 H86        24.8970  -25.2010  -43.0795 H         1 UNK         0.0646 
     87 H87        24.4650  -24.9091  -45.5002 H         1 UNK         0.0847 
     88 H88        24.9242  -26.5833  -45.8172 H         1 UNK         0.0847 
     89 H89        26.1219  -25.4289  -45.2498 H         1 UNK         0.0847 
     90 H90        24.4603  -28.6394  -43.6779 H         1 UNK         0.3040 
     91 H91        27.1928  -29.4102  -42.9756 H         1 UNK         0.1015 
     92 H92        26.3153  -31.7017  -43.2905 H         1 UNK         0.0786 
     93 H93        25.8365  -30.6942  -44.6457 H         1 UNK         0.0786 
     94 H94        24.6687  -31.0981  -43.3872 H         1 UNK         0.0786 
     95 H95        26.4771  -27.8503  -40.9675 H         1 UNK         0.3172 
     96 H96        26.1948  -27.5632  -38.7656 H         1 UNK         0.0595 
     97 H97        27.2945  -29.2165  -37.2811 H         1 UNK         0.0839 
     98 H98        28.2495  -28.9933  -38.7364 H         1 UNK         0.0839 
     99 H99        27.2509  -30.4343  -38.5479 H         1 UNK         0.0839 
    100 H100       23.8209  -28.0955  -39.9864 H         1 UNK         0.2998 
    101 H101       21.7157  -28.5380  -39.7378 H         1 UNK         0.0822 
    102 H102       21.9476  -27.5404  -37.4559 H         1 UNK         0.0787 
    103 H103       20.6694  -28.7405  -37.5233 H         1 UNK         0.0787 
    104 H104       22.2066  -29.1496  -36.7812 H         1 UNK         0.0787 
    105 H105       23.8069  -30.9904  -39.9235 H         1 UNK         0.3055 
    106 H106       21.9134  -33.1988  -39.4475 H         1 UNK         0.1106 
    107 H107       24.3613  -33.3690  -38.8278 H         1 UNK         0.0828 
    108 H108       23.8157  -34.6313  -39.9190 H         1 UNK         0.0828 
    109 H109       24.7650  -33.2945  -40.5431 H         1 UNK         0.0828 
    110 H110       21.1611  -31.2348  -41.3999 H         1 UNK         0.2931 
    111 H111       20.0638  -31.0678  -43.2576 H         1 UNK         0.0412 
    112 H112       20.8486  -29.7770  -44.8794 H         1 UNK         0.3472 
    113 H113       22.2958  -30.1428  -45.7932 H         1 UNK         0.3472 
    114 H114       19.8179  -33.8618  -42.8531 H         1 UNK         0.0970 
    115 H115       20.3632  -33.7766  -44.4849 H         1 UNK         0.0970 
    116 H116       17.9633  -33.0181  -41.8219 H         1 UNK         0.0612 
    117 H117       16.4551  -33.2591  -42.6588 H         1 UNK         0.0612 
@<TRIPOS>BOND
     1    1    2 1    
     2    1   62 1    
     3    1   63 1    
     4    1   64 1    
     5    2    3 2    
     6    2    4 am   BACKBONE|DICT|INTERRES
     7    4    5 1    
     8    4   65 1    
     9    5    6 1    
    10    5   25 1    
    11    5   66 1    
    12    6    7 1    
    13    6   67 1    
    14    6   68 1    
    15    7    8 1    
    16    8    9 1    
    17    8   69 1    
    18    8   70 1    
    19    9   10 ar   
    20    9   14 ar   
    21   10   11 ar   
    22   10   71 1    
    23   11   12 ar   
    24   11   61 1    
    25   12   13 ar   
    26   12   72 1    
    27   13   14 ar   
    28   13   15 1    
    29   14   73 1    
    30   15   16 1    
    31   15   74 1    
    32   15   75 1    
    33   16   17 1    
    34   17   18 1    
    35   17   76 1    
    36   17   77 1    
    37   18   19 1    
    38   18   27 1    
    39   18   78 1    
    40   19   20 am   BACKBONE|DICT|INTERRES
    41   19   79 1    
    42   20   21 2    
    43   20   22 1    
    44   22   23 1    
    45   22   24 1    
    46   22   80 1    
    47   23   81 1    
    48   23   82 1    
    49   23   83 1    
    50   24   25 am   BACKBONE|DICT|INTERRES
    51   24   84 1    
    52   25   26 2    
    53   27   28 2    
    54   27   29 am   BACKBONE|DICT|INTERRES
    55   29   30 1    
    56   29   85 1    
    57   30   31 1    
    58   30   32 1    
    59   30   86 1    
    60   31   87 1    
    61   31   88 1    
    62   31   89 1    
    63   32   33 2    
    64   32   34 am   BACKBONE|DICT|INTERRES
    65   34   35 1    
    66   34   90 1    
    67   35   36 1    
    68   35   37 1    
    69   35   91 1    
    70   36   92 1    
    71   36   93 1    
    72   36   94 1    
    73   37   38 2    
    74   37   39 am   BACKBONE|DICT|INTERRES
    75   39   40 1    
    76   39   95 1    
    77   40   41 1    
    78   40   42 1    
    79   40   96 1    
    80   41   97 1    
    81   41   98 1    
    82   41   99 1    
    83   42   43 2    
    84   42   44 am   BACKBONE|DICT|INTERRES
    85   44   45 1    
    86   44  100 1    
    87   45   46 1    
    88   45   47 1    
    89   45  101 1    
    90   46  102 1    
    91   46  103 1    
    92   46  104 1    
    93   47   48 2    
    94   47   49 am   BACKBONE|DICT|INTERRES
    95   49   50 1    
    96   49  105 1    
    97   50   51 1    
    98   50   52 1    
    99   50  106 1    
   100   51  107 1    
   101   51  108 1    
   102   51  109 1    
   103   52   53 2    
   104   52   54 am   BACKBONE|DICT|INTERRES
   105   54   55 1    
   106   54  110 1    
   107   55   56 1    
   108   55   59 1    
   109   55  111 1    
   110   56   57 am   BACKBONE|DICT|INTERRES
   111   56   58 2    
   112   57  112 1    
   113   57  113 1    
   114   59   60 1    
   115   59  114 1    
   116   59  115 1    
   117   60   61 1    
   118   61  116 1    
   119   61  117 1    
@<TRIPOS>SUBSTRUCTURE
     1 UNK         1 GROUP             0       ****    0 ROOT    
