@<TRIPOS>MOLECULE
3R8
117   119    1
SMALL
USER_CHARGES


@<TRIPOS>ATOM
      1 CA         15.4984  -28.8882  -41.5181 C.3       0 UNK        -0.2013 
      2 C          15.6092  -27.5005  -42.1292 C.2       0 UNK         0.4866 
      3 O          14.7439  -26.6573  -41.8916 O.2       0 UNK        -0.5176 
      4 N          16.6671  -27.2571  -42.9095 N.am      1 UNK        -0.4884 
      5 CA         16.9789  -25.9621  -43.5110 C.3       1 UNK         0.0853 
      6 C6         16.1638  -25.6655  -44.8040 C.3       10 UNK        -0.0849 
      7 S7         16.6268  -26.5978  -46.3062 S.3       10 UNK        -0.2776 
      8 C8         15.7183  -28.1698  -46.1222 C.3       10 UNK         0.0316 
      9 C9         16.6482  -29.3420  -45.8249 C.ar      10 UNK        -0.0863 
     10 C10        16.3633  -30.2292  -44.7808 C.ar      10 UNK        -0.1009 
     11 C11        17.1992  -31.3219  -44.5222 C.ar      10 UNK        -0.0712 
     12 C12        18.3240  -31.5253  -45.3289 C.ar      10 UNK        -0.0894 
     13 C13        18.6257  -30.6430  -46.3687 C.ar      10 UNK        -0.0745 
     14 C14        17.7764  -29.5648  -46.6214 C.ar      10 UNK        -0.0972 
     15 C15        19.8773  -30.8476  -47.2097 C.3       10 UNK         0.0209 
     16 S16        21.1138  -29.5388  -46.9274 S.3       10 UNK        -0.2568 
     17 C17        21.4575  -29.7239  -45.1433 C.3       10 UNK        -0.0983 
     18 CA         21.9760  -28.4227  -44.4892 C.3       3 UNK         0.0876 
     19 N          21.1268  -27.2603  -44.7837 N.am      3 UNK        -0.4424 
     20 C          21.4859  -25.9849  -44.5839 C.2       2 UNK         0.4918 
     21 O          22.5759  -25.6551  -44.1174 O.2       2 UNK        -0.4875 
     22 CA         20.4475  -24.8927  -44.9025 C.3       2 UNK         0.0481 
     23 CB         20.6248  -24.4031  -46.3480 C.3       2 UNK        -0.1831 
     24 N          19.0411  -25.2614  -44.6874 N.am      2 UNK        -0.4498 
     25 C          18.5110  -25.8026  -43.5809 C.2       1 UNK         0.5027 
     26 O          19.1873  -26.1704  -42.6184 O.2       1 UNK        -0.4969 
     27 C          22.2297  -28.6304  -42.9768 C.2       3 UNK         0.5005 
     28 O          23.1373  -29.3835  -42.6175 O.2       3 UNK        -0.5279 
     29 N          21.4797  -27.9394  -42.1021 N.am      4 UNK        -0.4463 
     30 CA         21.7566  -27.8589  -40.6653 C.3       4 UNK         0.0283 
     31 CB         20.5863  -27.1772  -39.9421 C.3       4 UNK        -0.1875 
     32 C          23.0819  -27.1436  -40.3444 C.2       4 UNK         0.4949 
     33 O          23.6878  -27.4529  -39.3201 O.2       4 UNK        -0.5039 
     34 N          23.5543  -26.2589  -41.2385 N.am      5 UNK        -0.4663 
     35 CA         24.8792  -25.6310  -41.1489 C.3       5 UNK         0.0242 
     36 CB         24.9591  -24.4502  -42.1291 C.3       5 UNK        -0.1982 
     37 C          26.0306  -26.6230  -41.4033 C.2       5 UNK         0.5017 
     38 O          27.1355  -26.4029  -40.9076 O.2       5 UNK        -0.5012 
     39 N          25.7427  -27.7077  -42.1372 N.am      6 UNK        -0.4439 
     40 CA         26.6308  -28.8542  -42.3442 C.3       6 UNK         0.0297 
     41 CB         26.4200  -29.3928  -43.7709 C.3       6 UNK        -0.2006 
     42 C          26.4016  -29.9637  -41.2965 C.2       6 UNK         0.4892 
     43 O          27.0381  -31.0133  -41.3934 O.2       6 UNK        -0.5089 
     44 N          25.4973  -29.7234  -40.3321 N.am      7 UNK        -0.4243 
     45 CA         25.0620  -30.6158  -39.2526 C.3       7 UNK         0.0196 
     46 CB         26.2301  -30.9387  -38.2960 C.3       7 UNK        -0.2007 
     47 C          24.3212  -31.8779  -39.7372 C.2       7 UNK         0.5020 
     48 O          24.2593  -32.8587  -38.9945 O.2       7 UNK        -0.5147 
     49 N          23.7495  -31.8434  -40.9506 N.am      8 UNK        -0.4734 
     50 CA         22.9938  -32.9655  -41.5178 C.3       8 UNK         0.0238 
     51 CB         22.9276  -32.8256  -43.0454 C.3       8 UNK        -0.1912 
     52 C          21.5792  -33.0676  -40.9268 C.2       8 UNK         0.5038 
     53 O          21.1192  -34.1755  -40.6484 O.2       8 UNK        -0.5046 
     54 N          20.9356  -31.9086  -40.7430 N.am      9 UNK        -0.4200 
     55 CA         19.5804  -31.7466  -40.1908 C.3       9 UNK         0.0839 
     56 C          19.5484  -30.7216  -39.0204 C.2       9 UNK         0.5513 
     57 N          20.6580  -30.4812  -38.3316 N.am      9 UNK        -0.7519 
     58 O          18.5083  -30.1424  -38.7196 O.2       9 UNK        -0.4960 
     59 C59        18.5340  -31.4392  -41.3005 C.3       10 UNK        -0.0876 
     60 S60        18.2873  -32.8507  -42.4275 S.3       10 UNK        -0.2414 
     61 C61        16.8486  -32.3093  -43.4121 C.3       10 UNK         0.0169 
     62 H62        14.5483  -29.3469  -41.7905 H         1 UNK         0.0903 
     63 H63        16.3009  -29.5390  -41.8582 H         1 UNK         0.0903 
     64 H64        15.5501  -28.8259  -40.4313 H         1 UNK         0.0903 
     65 H65        17.3732  -27.9668  -43.0472 H         1 UNK         0.3096 
     66 H66        16.6852  -25.1986  -42.7864 H         1 UNK         0.1121 
     67 H67        16.2513  -24.6046  -45.0451 H         1 UNK         0.0849 
     68 H68        15.0999  -25.8142  -44.6129 H         1 UNK         0.0849 
     69 H69        14.9529  -28.0723  -45.3510 H         1 UNK         0.0865 
     70 H70        15.1885  -28.3770  -47.0528 H         1 UNK         0.0865 
     71 H71        15.4764  -30.0804  -44.1811 H         1 UNK         0.1346 
     72 H72        18.9718  -32.3709  -45.1433 H         1 UNK         0.1412 
     73 H73        18.0050  -28.8888  -47.4343 H         1 UNK         0.1426 
     74 H74        20.3333  -31.8171  -47.0026 H         1 UNK         0.0716 
     75 H75        19.6039  -30.8555  -48.2657 H         1 UNK         0.0716 
     76 H76        22.2006  -30.5156  -45.0455 H         1 UNK         0.0695 
     77 H77        20.5643  -30.0689  -44.6223 H         1 UNK         0.0695 
     78 H78        22.9549  -28.2133  -44.9266 H         1 UNK         0.0983 
     79 H79        20.2190  -27.4560  -45.1798 H         1 UNK         0.3095 
     80 H80        20.6558  -24.0543  -44.2351 H         1 UNK         0.0454 
     81 H81        20.3789  -25.1826  -47.0705 H         1 UNK         0.0851 
     82 H82        19.9934  -23.5395  -46.5568 H         1 UNK         0.0851 
     83 H83        21.6558  -24.0990  -46.5350 H         1 UNK         0.0851 
     84 H84        18.4066  -25.0588  -45.4484 H         1 UNK         0.2976 
     85 H85        20.7366  -27.3380  -42.4499 H         1 UNK         0.3116 
     86 H86        21.8416  -28.8788  -40.2880 H         1 UNK         0.0646 
     87 H87        19.6429  -27.6860  -40.1413 H         1 UNK         0.0847 
     88 H88        20.7374  -27.1886  -38.8619 H         1 UNK         0.0847 
     89 H89        20.4759  -26.1352  -40.2446 H         1 UNK         0.0847 
     90 H90        23.0134  -26.0581  -42.0729 H         1 UNK         0.3040 
     91 H91        25.0013  -25.2415  -40.1355 H         1 UNK         0.1015 
     92 H92        24.9028  -24.7808  -43.1667 H         1 UNK         0.0786 
     93 H93        25.9005  -23.9117  -42.0121 H         1 UNK         0.0786 
     94 H94        24.1536  -23.7355  -41.9596 H         1 UNK         0.0786 
     95 H95        24.7959  -27.8185  -42.4760 H         1 UNK         0.3172 
     96 H96        27.6705  -28.5332  -42.2549 H         1 UNK         0.0595 
     97 H97        25.4154  -29.7923  -43.9117 H         1 UNK         0.0839 
     98 H98        27.1213  -30.1987  -43.9915 H         1 UNK         0.0839 
     99 H99        26.5803  -28.6148  -44.5173 H         1 UNK         0.0839 
    100 H100       25.0383  -28.8213  -40.3369 H         1 UNK         0.2998 
    101 H101       24.3258  -30.0490  -38.6811 H         1 UNK         0.0822 
    102 H102       25.8758  -31.4602  -37.4060 H         1 UNK         0.0787 
    103 H103       26.9772  -31.5768  -38.7687 H         1 UNK         0.0787 
    104 H104       26.7287  -30.0301  -37.9585 H         1 UNK         0.0787 
    105 H105       23.8136  -30.9970  -41.5085 H         1 UNK         0.3055 
    106 H106       23.5211  -33.8943  -41.2869 H         1 UNK         0.1106 
    107 H107       23.9212  -32.7282  -43.4833 H         1 UNK         0.0828 
    108 H108       22.4551  -33.6995  -43.4959 H         1 UNK         0.0828 
    109 H109       22.3419  -31.9559  -43.3369 H         1 UNK         0.0828 
    110 H110       21.4146  -31.0544  -40.9860 H         1 UNK         0.2931 
    111 H111       19.2797  -32.6825  -39.7165 H         1 UNK         0.0412 
    112 H112       20.6263  -29.8263  -37.5663 H         1 UNK         0.3472 
    113 H113       21.4996  -31.0014  -38.5169 H         1 UNK         0.3472 
    114 H114       17.5644  -31.2181  -40.8527 H         1 UNK         0.0970 
    115 H115       18.8235  -30.5589  -41.8770 H         1 UNK         0.0970 
    116 H116       16.4011  -33.1902  -43.8736 H         1 UNK         0.0612 
    117 H117       16.0917  -31.8969  -42.7436 H         1 UNK         0.0612 
@<TRIPOS>BOND
     1    1    2 1    
     2    1   62 1    
     3    1   63 1    
     4    1   64 1    
     5    2    3 2    
     6    2    4 am   BACKBONE|DICT|INTERRES
     7    4    5 1    
     8    4   65 1    
     9    5    6 1    
    10    5   25 1    
    11    5   66 1    
    12    6    7 1    
    13    6   67 1    
    14    6   68 1    
    15    7    8 1    
    16    8    9 1    
    17    8   69 1    
    18    8   70 1    
    19    9   10 ar   
    20    9   14 ar   
    21   10   11 ar   
    22   10   71 1    
    23   11   12 ar   
    24   11   61 1    
    25   12   13 ar   
    26   12   72 1    
    27   13   14 ar   
    28   13   15 1    
    29   14   73 1    
    30   15   16 1    
    31   15   74 1    
    32   15   75 1    
    33   16   17 1    
    34   17   18 1    
    35   17   76 1    
    36   17   77 1    
    37   18   19 1    
    38   18   27 1    
    39   18   78 1    
    40   19   20 am   BACKBONE|DICT|INTERRES
    41   19   79 1    
    42   20   21 2    
    43   20   22 1    
    44   22   23 1    
    45   22   24 1    
    46   22   80 1    
    47   23   81 1    
    48   23   82 1    
    49   23   83 1    
    50   24   25 am   BACKBONE|DICT|INTERRES
    51   24   84 1    
    52   25   26 2    
    53   27   28 2    
    54   27   29 am   BACKBONE|DICT|INTERRES
    55   29   30 1    
    56   29   85 1    
    57   30   31 1    
    58   30   32 1    
    59   30   86 1    
    60   31   87 1    
    61   31   88 1    
    62   31   89 1    
    63   32   33 2    
    64   32   34 am   BACKBONE|DICT|INTERRES
    65   34   35 1    
    66   34   90 1    
    67   35   36 1    
    68   35   37 1    
    69   35   91 1    
    70   36   92 1    
    71   36   93 1    
    72   36   94 1    
    73   37   38 2    
    74   37   39 am   BACKBONE|DICT|INTERRES
    75   39   40 1    
    76   39   95 1    
    77   40   41 1    
    78   40   42 1    
    79   40   96 1    
    80   41   97 1    
    81   41   98 1    
    82   41   99 1    
    83   42   43 2    
    84   42   44 am   BACKBONE|DICT|INTERRES
    85   44   45 1    
    86   44  100 1    
    87   45   46 1    
    88   45   47 1    
    89   45  101 1    
    90   46  102 1    
    91   46  103 1    
    92   46  104 1    
    93   47   48 2    
    94   47   49 am   BACKBONE|DICT|INTERRES
    95   49   50 1    
    96   49  105 1    
    97   50   51 1    
    98   50   52 1    
    99   50  106 1    
   100   51  107 1    
   101   51  108 1    
   102   51  109 1    
   103   52   53 2    
   104   52   54 am   BACKBONE|DICT|INTERRES
   105   54   55 1    
   106   54  110 1    
   107   55   56 1    
   108   55   59 1    
   109   55  111 1    
   110   56   57 am   BACKBONE|DICT|INTERRES
   111   56   58 2    
   112   57  112 1    
   113   57  113 1    
   114   59   60 1    
   115   59  114 1    
   116   59  115 1    
   117   60   61 1    
   118   61  116 1    
   119   61  117 1    
@<TRIPOS>SUBSTRUCTURE
     1 UNK         1 GROUP             0       ****    0 ROOT    
