@<TRIPOS>MOLECULE
3R8
117   119    1
SMALL
USER_CHARGES


@<TRIPOS>ATOM
      1 CA         15.2256  -23.2158  -45.5888 C.3       0 UNK        -0.2013 
      2 C          16.3174  -24.2420  -45.3272 C.2       0 UNK         0.4866 
      3 O          16.1479  -25.1100  -44.4711 O.2       0 UNK        -0.5176 
      4 N          17.4453  -24.1391  -46.0442 N.am      1 UNK        -0.4884 
      5 CA         18.6298  -25.0152  -46.0053 C.3       1 UNK         0.0853 
      6 C6         18.2980  -26.5030  -46.3056 C.3       10 UNK        -0.0849 
      7 S7         19.6310  -27.3528  -47.2172 S.3       10 UNK        -0.2776 
      8 C8         18.9264  -29.0221  -47.4138 C.3       10 UNK         0.0316 
      9 C9         19.0143  -29.8181  -46.1205 C.ar      10 UNK        -0.0863 
     10 C10        20.1597  -30.5661  -45.8309 C.ar      10 UNK        -0.1009 
     11 C11        20.2646  -31.2644  -44.6242 C.ar      10 UNK        -0.0712 
     12 C12        19.2191  -31.1994  -43.6988 C.ar      10 UNK        -0.0894 
     13 C13        18.0607  -30.4756  -43.9889 C.ar      10 UNK        -0.0745 
     14 C14        17.9581  -29.7971  -45.2057 C.ar      10 UNK        -0.0972 
     15 C15        16.9204  -30.4145  -42.9878 C.3       10 UNK         0.0209 
     16 S16        16.9609  -28.8656  -42.0372 S.3       10 UNK        -0.2568 
     17 C17        18.3006  -29.1800  -40.8324 C.3       10 UNK        -0.0983 
     18 CA         19.6041  -28.3598  -41.0672 C.3       3 UNK         0.0876 
     19 N          19.2838  -26.9563  -41.3901 N.am      3 UNK        -0.4424 
     20 C          20.0828  -25.9689  -41.8149 C.2       2 UNK         0.4918 
     21 O          21.3093  -26.0535  -41.9045 O.2       2 UNK        -0.4875 
     22 CA         19.3691  -24.6645  -42.2030 C.3       2 UNK         0.0481 
     23 CB         20.2624  -23.4190  -42.0243 C.3       2 UNK        -0.1831 
     24 N          18.8225  -24.7507  -43.5609 N.am      2 UNK        -0.4498 
     25 C          19.4832  -24.8626  -44.7240 C.2       1 UNK         0.5027 
     26 O          20.7087  -24.8200  -44.8282 O.2       1 UNK        -0.4969 
     27 C          20.5949  -28.5634  -39.8836 C.2       3 UNK         0.5005 
     28 O          20.4494  -29.5165  -39.1153 O.2       3 UNK        -0.5279 
     29 N          21.5646  -27.6606  -39.7314 N.am      4 UNK        -0.4463 
     30 CA         22.5996  -27.6371  -38.6992 C.3       4 UNK         0.0283 
     31 CB         22.0644  -26.9804  -37.4149 C.3       4 UNK        -0.1875 
     32 C          23.8519  -26.9139  -39.2142 C.2       4 UNK         0.4949 
     33 O          24.9641  -27.3190  -38.8776 O.2       4 UNK        -0.5039 
     34 N          23.6617  -25.8749  -40.0431 N.am      5 UNK        -0.4663 
     35 CA         24.7225  -25.2738  -40.8539 C.3       5 UNK         0.0242 
     36 CB         24.2995  -23.8660  -41.3039 C.3       5 UNK        -0.1982 
     37 C          25.0337  -26.1714  -42.0619 C.2       5 UNK         0.5017 
     38 O          26.2008  -26.4648  -42.3232 O.2       5 UNK        -0.5012 
     39 N          23.9745  -26.6356  -42.7384 N.am      6 UNK        -0.4439 
     40 CA         24.0179  -27.6795  -43.7540 C.3       6 UNK         0.0297 
     41 CB         22.8556  -27.4715  -44.7436 C.3       6 UNK        -0.2006 
     42 C          23.9415  -29.0452  -43.0564 C.2       6 UNK         0.4892 
     43 O          22.8474  -29.5895  -42.9149 O.2       6 UNK        -0.5089 
     44 N          25.1061  -29.5469  -42.6177 N.am      7 UNK        -0.4243 
     45 CA         25.3472  -30.8641  -42.0127 C.3       7 UNK         0.0196 
     46 CB         25.4009  -31.9415  -43.1204 C.3       7 UNK        -0.2007 
     47 C          24.3760  -31.1947  -40.8584 C.2       7 UNK         0.5020 
     48 O          24.3954  -30.5021  -39.8418 O.2       7 UNK        -0.5147 
     49 N          23.5594  -32.2398  -41.0313 N.am      8 UNK        -0.4734 
     50 CA         22.4913  -32.6450  -40.1168 C.3       8 UNK         0.0238 
     51 CB         23.0567  -33.4122  -38.9066 C.3       8 UNK        -0.1912 
     52 C          21.4450  -33.4778  -40.8665 C.2       8 UNK         0.5038 
     53 O          20.2512  -33.2173  -40.7215 O.2       8 UNK        -0.5046 
     54 N          21.9174  -34.4367  -41.6805 N.am      9 UNK        -0.4200 
     55 CA         21.1095  -35.3320  -42.5326 C.3       9 UNK         0.0839 
     56 C          20.1844  -36.3151  -41.7481 C.2       9 UNK         0.5513 
     57 N          20.4358  -36.5799  -40.4714 N.am      9 UNK        -0.7519 
     58 O          19.2455  -36.8760  -42.3078 O.2       9 UNK        -0.4960 
     59 C59        20.3634  -34.5791  -43.6752 C.3       10 UNK        -0.0876 
     60 S60        21.4921  -33.7673  -44.8620 S.3       10 UNK        -0.2414 
     61 C61        21.5325  -32.0369  -44.2973 C.3       10 UNK         0.0169 
     62 H62        15.5080  -22.5070  -46.3670 H         1 UNK         0.0903 
     63 H63        14.3096  -23.7159  -45.9023 H         1 UNK         0.0903 
     64 H64        15.0129  -22.6545  -44.6793 H         1 UNK         0.0903 
     65 H65        17.5212  -23.3737  -46.7011 H         1 UNK         0.3096 
     66 H66        19.2544  -24.6436  -46.8201 H         1 UNK         0.1121 
     67 H67        17.4009  -26.5700  -46.9231 H         1 UNK         0.0849 
     68 H68        18.0677  -27.0438  -45.3864 H         1 UNK         0.0849 
     69 H69        17.8921  -28.9523  -47.7545 H         1 UNK         0.0865 
     70 H70        19.4699  -29.5429  -48.2037 H         1 UNK         0.0865 
     71 H71        20.9794  -30.5883  -46.5359 H         1 UNK         0.1346 
     72 H72        19.3090  -31.7044  -42.7474 H         1 UNK         0.1412 
     73 H73        17.0648  -29.2284  -45.4253 H         1 UNK         0.1426 
     74 H74        16.9449  -31.2702  -42.3111 H         1 UNK         0.0716 
     75 H75        15.9691  -30.4752  -43.5183 H         1 UNK         0.0716 
     76 H76        18.5258  -30.2480  -40.8156 H         1 UNK         0.0695 
     77 H77        17.8868  -28.9500  -39.8484 H         1 UNK         0.0695 
     78 H78        20.1023  -28.7729  -41.9477 H         1 UNK         0.0983 
     79 H79        18.2927  -26.7625  -41.3671 H         1 UNK         0.3095 
     80 H80        18.5152  -24.5461  -41.5341 H         1 UNK         0.0454 
     81 H81        19.7142  -22.5048  -42.2507 H         1 UNK         0.0851 
     82 H82        21.1433  -23.4452  -42.6651 H         1 UNK         0.0851 
     83 H83        20.6156  -23.3392  -40.9957 H         1 UNK         0.0851 
     84 H84        17.8102  -24.8315  -43.6268 H         1 UNK         0.2976 
     85 H85        21.6359  -26.9675  -40.4725 H         1 UNK         0.3116 
     86 H86        22.8891  -28.6654  -38.4726 H         1 UNK         0.0646 
     87 H87        21.7310  -25.9575  -37.5928 H         1 UNK         0.0847 
     88 H88        22.8363  -26.9448  -36.6451 H         1 UNK         0.0847 
     89 H89        21.2241  -27.5403  -37.0042 H         1 UNK         0.0847 
     90 H90        22.7218  -25.5667  -40.2464 H         1 UNK         0.3040 
     91 H91        25.6296  -25.1850  -40.2514 H         1 UNK         0.1015 
     92 H92        24.0993  -23.2199  -40.4490 H         1 UNK         0.0786 
     93 H93        23.4035  -23.8889  -41.9246 H         1 UNK         0.0786 
     94 H94        25.0887  -23.3928  -41.8897 H         1 UNK         0.0786 
     95 H95        23.0427  -26.3533  -42.4422 H         1 UNK         0.3172 
     96 H96        24.9531  -27.6201  -44.3149 H         1 UNK         0.0595 
     97 H97        22.8414  -28.2553  -45.5019 H         1 UNK         0.0839 
     98 H98        21.8846  -27.4880  -44.2458 H         1 UNK         0.0839 
     99 H99        22.9423  -26.5172  -45.2630 H         1 UNK         0.0839 
    100 H100       25.9232  -28.9575  -42.7098 H         1 UNK         0.2998 
    101 H101       26.3381  -30.8139  -41.5586 H         1 UNK         0.0822 
    102 H102       24.4592  -32.0241  -43.6625 H         1 UNK         0.0787 
    103 H103       25.6427  -32.9232  -42.7106 H         1 UNK         0.0787 
    104 H104       26.1755  -31.7079  -43.8511 H         1 UNK         0.0787 
    105 H105       23.5796  -32.7025  -41.9285 H         1 UNK         0.3055 
    106 H106       21.9877  -31.7446  -39.7555 H         1 UNK         0.1106 
    107 H107       22.2541  -33.7483  -38.2487 H         1 UNK         0.0828 
    108 H108       23.6236  -34.2924  -39.2111 H         1 UNK         0.0828 
    109 H109       23.7160  -32.7813  -38.3104 H         1 UNK         0.0828 
    110 H110       22.9090  -34.6235  -41.6862 H         1 UNK         0.2931 
    111 H111       21.8347  -35.9892  -43.0139 H         1 UNK         0.0412 
    112 H112       19.8405  -37.2247  -39.9752 H         1 UNK         0.3472 
    113 H113       21.2097  -36.1415  -39.9990 H         1 UNK         0.3472 
    114 H114       19.6469  -33.8687  -43.2688 H         1 UNK         0.0970 
    115 H115       19.7689  -35.2803  -44.2632 H         1 UNK         0.0970 
    116 H116       22.3817  -31.5456  -44.7736 H         1 UNK         0.0612 
    117 H117       21.7266  -31.9972  -43.2280 H         1 UNK         0.0612 
@<TRIPOS>BOND
     1    1    2 1    
     2    1   62 1    
     3    1   63 1    
     4    1   64 1    
     5    2    3 2    
     6    2    4 am   BACKBONE|DICT|INTERRES
     7    4    5 1    
     8    4   65 1    
     9    5    6 1    
    10    5   25 1    
    11    5   66 1    
    12    6    7 1    
    13    6   67 1    
    14    6   68 1    
    15    7    8 1    
    16    8    9 1    
    17    8   69 1    
    18    8   70 1    
    19    9   10 ar   
    20    9   14 ar   
    21   10   11 ar   
    22   10   71 1    
    23   11   12 ar   
    24   11   61 1    
    25   12   13 ar   
    26   12   72 1    
    27   13   14 ar   
    28   13   15 1    
    29   14   73 1    
    30   15   16 1    
    31   15   74 1    
    32   15   75 1    
    33   16   17 1    
    34   17   18 1    
    35   17   76 1    
    36   17   77 1    
    37   18   19 1    
    38   18   27 1    
    39   18   78 1    
    40   19   20 am   BACKBONE|DICT|INTERRES
    41   19   79 1    
    42   20   21 2    
    43   20   22 1    
    44   22   23 1    
    45   22   24 1    
    46   22   80 1    
    47   23   81 1    
    48   23   82 1    
    49   23   83 1    
    50   24   25 am   BACKBONE|DICT|INTERRES
    51   24   84 1    
    52   25   26 2    
    53   27   28 2    
    54   27   29 am   BACKBONE|DICT|INTERRES
    55   29   30 1    
    56   29   85 1    
    57   30   31 1    
    58   30   32 1    
    59   30   86 1    
    60   31   87 1    
    61   31   88 1    
    62   31   89 1    
    63   32   33 2    
    64   32   34 am   BACKBONE|DICT|INTERRES
    65   34   35 1    
    66   34   90 1    
    67   35   36 1    
    68   35   37 1    
    69   35   91 1    
    70   36   92 1    
    71   36   93 1    
    72   36   94 1    
    73   37   38 2    
    74   37   39 am   BACKBONE|DICT|INTERRES
    75   39   40 1    
    76   39   95 1    
    77   40   41 1    
    78   40   42 1    
    79   40   96 1    
    80   41   97 1    
    81   41   98 1    
    82   41   99 1    
    83   42   43 2    
    84   42   44 am   BACKBONE|DICT|INTERRES
    85   44   45 1    
    86   44  100 1    
    87   45   46 1    
    88   45   47 1    
    89   45  101 1    
    90   46  102 1    
    91   46  103 1    
    92   46  104 1    
    93   47   48 2    
    94   47   49 am   BACKBONE|DICT|INTERRES
    95   49   50 1    
    96   49  105 1    
    97   50   51 1    
    98   50   52 1    
    99   50  106 1    
   100   51  107 1    
   101   51  108 1    
   102   51  109 1    
   103   52   53 2    
   104   52   54 am   BACKBONE|DICT|INTERRES
   105   54   55 1    
   106   54  110 1    
   107   55   56 1    
   108   55   59 1    
   109   55  111 1    
   110   56   57 am   BACKBONE|DICT|INTERRES
   111   56   58 2    
   112   57  112 1    
   113   57  113 1    
   114   59   60 1    
   115   59  114 1    
   116   59  115 1    
   117   60   61 1    
   118   61  116 1    
   119   61  117 1    
@<TRIPOS>SUBSTRUCTURE
     1 UNK         1 GROUP             0       ****    0 ROOT    
