@<TRIPOS>MOLECULE
3R8
117   119    1
SMALL
USER_CHARGES


@<TRIPOS>ATOM
      1 CA         18.6802  -23.9762  -39.7018 C.3       0 UNK        -0.2013 
      2 C          18.4364  -23.8957  -41.2013 C.2       0 UNK         0.4866 
      3 O          18.2478  -22.8012  -41.7336 O.2       0 UNK        -0.5176 
      4 N          18.4219  -25.0489  -41.8815 N.am      1 UNK        -0.4884 
      5 CA         18.2270  -25.1679  -43.3299 C.3       1 UNK         0.0853 
      6 C6         18.0371  -26.6426  -43.7618 C.3       10 UNK        -0.0849 
      7 S7         16.4527  -27.3572  -43.2064 S.3       10 UNK        -0.2776 
      8 C8         16.9542  -28.9768  -42.5135 C.3       10 UNK         0.0316 
      9 C9         17.7105  -29.9251  -43.4525 C.ar      10 UNK        -0.0863 
     10 C10        18.3022  -31.0645  -42.8987 C.ar      10 UNK        -0.1009 
     11 C11        19.0591  -31.9386  -43.6842 C.ar      10 UNK        -0.0712 
     12 C12        19.2311  -31.6644  -45.0432 C.ar      10 UNK        -0.0894 
     13 C13        18.6261  -30.5468  -45.6244 C.ar      10 UNK        -0.0745 
     14 C14        17.8421  -29.7030  -44.8305 C.ar      10 UNK        -0.0972 
     15 C15        18.8180  -30.2634  -47.1115 C.3       10 UNK         0.0209 
     16 S16        19.3219  -28.5441  -47.4646 S.3       10 UNK        -0.2568 
     17 C17        20.8714  -28.4034  -46.5097 C.3       10 UNK        -0.0983 
     18 CA         21.6295  -27.0763  -46.7788 C.3       3 UNK         0.0876 
     19 N          20.7586  -25.9138  -46.5746 N.am      3 UNK        -0.4424 
     20 C          21.0328  -24.6345  -46.8636 C.2       2 UNK         0.4918 
     21 O          22.0407  -24.2706  -47.4689 O.2       2 UNK        -0.4875 
     22 CA         20.0333  -23.5761  -46.3496 C.3       2 UNK         0.0481 
     23 CB         19.2492  -22.9671  -47.5231 C.3       2 UNK        -0.1831 
     24 N          19.0824  -24.0742  -45.3435 N.am      2 UNK        -0.4498 
     25 C          19.3967  -24.5569  -44.1302 C.2       1 UNK         0.5027 
     26 O          20.5515  -24.6303  -43.6995 O.2       1 UNK        -0.4969 
     27 C          22.9223  -27.0243  -45.9274 C.2       3 UNK         0.5005 
     28 O          23.8250  -27.8260  -46.1688 O.2       3 UNK        -0.5279 
     29 N          22.9854  -26.1225  -44.9317 N.am      4 UNK        -0.4463 
     30 CA         24.1045  -25.8071  -44.0295 C.3       4 UNK         0.0283 
     31 CB         25.3824  -25.4338  -44.8062 C.3       4 UNK        -0.1875 
     32 C          24.3911  -26.8730  -42.9589 C.2       4 UNK         0.4949 
     33 O          24.8521  -26.5165  -41.8747 O.2       4 UNK        -0.5039 
     34 N          24.0821  -28.1436  -43.2484 N.am      5 UNK        -0.4663 
     35 CA         24.1280  -29.2568  -42.2953 C.3       5 UNK         0.0242 
     36 CB         23.9904  -30.5807  -43.0586 C.3       5 UNK        -0.1982 
     37 C          23.0673  -29.1382  -41.1837 C.2       5 UNK         0.5017 
     38 O          23.2973  -29.6366  -40.0834 O.2       5 UNK        -0.5012 
     39 N          21.9519  -28.4516  -41.4856 N.am      6 UNK        -0.4439 
     40 CA         20.9350  -27.9304  -40.5605 C.3       6 UNK         0.0297 
     41 CB         21.4736  -26.6564  -39.8771 C.3       6 UNK        -0.2006 
     42 C          20.3845  -28.9578  -39.5500 C.2       6 UNK         0.4892 
     43 O          20.2449  -28.6454  -38.3668 O.2       6 UNK        -0.5089 
     44 N          20.0928  -30.1672  -40.0479 N.am      7 UNK        -0.4243 
     45 CA         19.5705  -31.3304  -39.3165 C.3       7 UNK         0.0196 
     46 CB         18.2239  -31.0218  -38.6275 C.3       7 UNK        -0.2007 
     47 C          20.5801  -32.0121  -38.3726 C.2       7 UNK         0.5020 
     48 O          20.1982  -32.9513  -37.6744 O.2       7 UNK        -0.5147 
     49 N          21.8608  -31.6217  -38.4291 N.am      8 UNK        -0.4734 
     50 CA         22.9914  -32.3706  -37.8682 C.3       8 UNK         0.0238 
     51 CB         23.9706  -31.3897  -37.1971 C.3       8 UNK        -0.1912 
     52 C          23.6533  -33.2048  -38.9841 C.2       8 UNK         0.5038 
     53 O          24.8804  -33.2716  -39.0709 O.2       8 UNK        -0.5046 
     54 N          22.8111  -33.7912  -39.8434 N.am      9 UNK        -0.4200 
     55 CA         23.1708  -34.4891  -41.0845 C.3       9 UNK         0.0839 
     56 C          23.7461  -35.9213  -40.8877 C.2       9 UNK         0.5513 
     57 N          23.7403  -36.4850  -39.6857 N.am      9 UNK        -0.7519 
     58 O          24.2118  -36.5312  -41.8467 O.2       9 UNK        -0.4960 
     59 C59        21.9791  -34.4924  -42.0812 C.3       10 UNK        -0.0876 
     60 S60        21.3538  -32.8134  -42.4390 S.3       10 UNK        -0.2414 
     61 C61        19.6920  -33.1789  -43.0711 C.3       10 UNK         0.0169 
     62 H62        17.9739  -23.3386  -39.1705 H         1 UNK         0.0903 
     63 H63        18.5617  -24.9918  -39.3250 H         1 UNK         0.0903 
     64 H64        19.6889  -23.6371  -39.4671 H         1 UNK         0.0903 
     65 H65        18.5692  -25.9157  -41.3885 H         1 UNK         0.3096 
     66 H66        17.3233  -24.6084  -43.5834 H         1 UNK         0.1121 
     67 H67        18.0421  -26.7252  -44.8502 H         1 UNK         0.0849 
     68 H68        18.8692  -27.2558  -43.4103 H         1 UNK         0.0849 
     69 H69        17.5646  -28.7907  -41.6285 H         1 UNK         0.0865 
     70 H70        16.0563  -29.4866  -42.1615 H         1 UNK         0.0865 
     71 H71        18.1700  -31.2712  -41.8473 H         1 UNK         0.1346 
     72 H72        19.8311  -32.3298  -45.6491 H         1 UNK         0.1412 
     73 H73        17.3581  -28.8601  -45.2999 H         1 UNK         0.1426 
     74 H74        17.8810  -30.4680  -47.6307 H         1 UNK         0.0716 
     75 H75        19.5620  -30.9362  -47.5412 H         1 UNK         0.0716 
     76 H76        21.5014  -29.2601  -46.7578 H         1 UNK         0.0695 
     77 H77        20.6281  -28.4970  -45.4492 H         1 UNK         0.0695 
     78 H78        21.9439  -27.0661  -47.8246 H         1 UNK         0.0983 
     79 H79        19.8763  -26.1115  -46.1305 H         1 UNK         0.3095 
     80 H80        20.6196  -22.7825  -45.8821 H         1 UNK         0.0454 
     81 H81        19.9254  -22.5528  -48.2726 H         1 UNK         0.0851 
     82 H82        18.6033  -22.1539  -47.1915 H         1 UNK         0.0851 
     83 H83        18.6269  -23.7103  -48.0231 H         1 UNK         0.0851 
     84 H84        18.1102  -24.0663  -45.6198 H         1 UNK         0.2976 
     85 H85        22.1546  -25.5642  -44.7640 H         1 UNK         0.3116 
     86 H86        23.7849  -24.9152  -43.4878 H         1 UNK         0.0646 
     87 H87        25.8012  -26.2863  -45.3415 H         1 UNK         0.0847 
     88 H88        25.1896  -24.6428  -45.5310 H         1 UNK         0.0847 
     89 H89        26.1553  -25.0705  -44.1277 H         1 UNK         0.0847 
     90 H90        23.8020  -28.3485  -44.2016 H         1 UNK         0.3040 
     91 H91        25.1056  -29.2437  -41.8081 H         1 UNK         0.1015 
     92 H92        24.0343  -31.4291  -42.3743 H         1 UNK         0.0786 
     93 H93        24.7971  -30.7078  -43.7807 H         1 UNK         0.0786 
     94 H94        23.0452  -30.6382  -43.5997 H         1 UNK         0.0786 
     95 H95        21.8762  -28.1286  -42.4391 H         1 UNK         0.3172 
     96 H96        20.0847  -27.6373  -41.1769 H         1 UNK         0.0595 
     97 H97        22.3492  -26.8722  -39.2635 H         1 UNK         0.0839 
     98 H98        21.7582  -25.9026  -40.6118 H         1 UNK         0.0839 
     99 H99        20.7247  -26.2053  -39.2260 H         1 UNK         0.0839 
    100 H100       20.3013  -30.3269  -41.0246 H         1 UNK         0.2998 
    101 H101       19.3678  -32.0821  -40.0793 H         1 UNK         0.0822 
    102 H102       17.7610  -31.9342  -38.2497 H         1 UNK         0.0787 
    103 H103       17.5170  -30.5655  -39.3203 H         1 UNK         0.0787 
    104 H104       18.3448  -30.3495  -37.7779 H         1 UNK         0.0787 
    105 H105       22.1152  -30.8523  -39.0437 H         1 UNK         0.3055 
    106 H106       22.6457  -33.0713  -37.1050 H         1 UNK         0.1106 
    107 H107       23.4715  -30.7915  -36.4347 H         1 UNK         0.0828 
    108 H108       24.7850  -31.9247  -36.7071 H         1 UNK         0.0828 
    109 H109       24.4183  -30.7061  -37.9189 H         1 UNK         0.0828 
    110 H110       21.8224  -33.6906  -39.6737 H         1 UNK         0.2931 
    111 H111       23.9750  -33.9141  -41.5479 H         1 UNK         0.0412 
    112 H112       24.1197  -37.4122  -39.5718 H         1 UNK         0.3472 
    113 H113       23.3670  -35.9905  -38.8914 H         1 UNK         0.3472 
    114 H114       22.2738  -34.9468  -43.0292 H         1 UNK         0.0970 
    115 H115       21.1618  -35.1020  -41.6908 H         1 UNK         0.0970 
    116 H116       19.7544  -33.9728  -43.8171 H         1 UNK         0.0612 
    117 H117       19.0702  -33.5619  -42.2606 H         1 UNK         0.0612 
@<TRIPOS>BOND
     1    1    2 1    
     2    1   62 1    
     3    1   63 1    
     4    1   64 1    
     5    2    3 2    
     6    2    4 am   BACKBONE|DICT|INTERRES
     7    4    5 1    
     8    4   65 1    
     9    5    6 1    
    10    5   25 1    
    11    5   66 1    
    12    6    7 1    
    13    6   67 1    
    14    6   68 1    
    15    7    8 1    
    16    8    9 1    
    17    8   69 1    
    18    8   70 1    
    19    9   10 ar   
    20    9   14 ar   
    21   10   11 ar   
    22   10   71 1    
    23   11   12 ar   
    24   11   61 1    
    25   12   13 ar   
    26   12   72 1    
    27   13   14 ar   
    28   13   15 1    
    29   14   73 1    
    30   15   16 1    
    31   15   74 1    
    32   15   75 1    
    33   16   17 1    
    34   17   18 1    
    35   17   76 1    
    36   17   77 1    
    37   18   19 1    
    38   18   27 1    
    39   18   78 1    
    40   19   20 am   BACKBONE|DICT|INTERRES
    41   19   79 1    
    42   20   21 2    
    43   20   22 1    
    44   22   23 1    
    45   22   24 1    
    46   22   80 1    
    47   23   81 1    
    48   23   82 1    
    49   23   83 1    
    50   24   25 am   BACKBONE|DICT|INTERRES
    51   24   84 1    
    52   25   26 2    
    53   27   28 2    
    54   27   29 am   BACKBONE|DICT|INTERRES
    55   29   30 1    
    56   29   85 1    
    57   30   31 1    
    58   30   32 1    
    59   30   86 1    
    60   31   87 1    
    61   31   88 1    
    62   31   89 1    
    63   32   33 2    
    64   32   34 am   BACKBONE|DICT|INTERRES
    65   34   35 1    
    66   34   90 1    
    67   35   36 1    
    68   35   37 1    
    69   35   91 1    
    70   36   92 1    
    71   36   93 1    
    72   36   94 1    
    73   37   38 2    
    74   37   39 am   BACKBONE|DICT|INTERRES
    75   39   40 1    
    76   39   95 1    
    77   40   41 1    
    78   40   42 1    
    79   40   96 1    
    80   41   97 1    
    81   41   98 1    
    82   41   99 1    
    83   42   43 2    
    84   42   44 am   BACKBONE|DICT|INTERRES
    85   44   45 1    
    86   44  100 1    
    87   45   46 1    
    88   45   47 1    
    89   45  101 1    
    90   46  102 1    
    91   46  103 1    
    92   46  104 1    
    93   47   48 2    
    94   47   49 am   BACKBONE|DICT|INTERRES
    95   49   50 1    
    96   49  105 1    
    97   50   51 1    
    98   50   52 1    
    99   50  106 1    
   100   51  107 1    
   101   51  108 1    
   102   51  109 1    
   103   52   53 2    
   104   52   54 am   BACKBONE|DICT|INTERRES
   105   54   55 1    
   106   54  110 1    
   107   55   56 1    
   108   55   59 1    
   109   55  111 1    
   110   56   57 am   BACKBONE|DICT|INTERRES
   111   56   58 2    
   112   57  112 1    
   113   57  113 1    
   114   59   60 1    
   115   59  114 1    
   116   59  115 1    
   117   60   61 1    
   118   61  116 1    
   119   61  117 1    
@<TRIPOS>SUBSTRUCTURE
     1 UNK         1 GROUP             0       ****    0 ROOT    
