@<TRIPOS>MOLECULE
3R8
117   119    1
SMALL
USER_CHARGES


@<TRIPOS>ATOM
      1 CA         17.5385  -23.2516  -48.6641 C.3       0 UNK        -0.2013 
      2 C          17.8139  -24.6354  -48.0948 C.2       0 UNK         0.4866 
      3 O          18.6553  -25.3583  -48.6283 O.2       0 UNK        -0.5176 
      4 N          17.1046  -25.0094  -47.0216 N.am      1 UNK        -0.4884 
      5 CA         17.2420  -26.2934  -46.3237 C.3       1 UNK         0.0853 
      6 C6         16.1157  -26.4969  -45.2789 C.3       10 UNK        -0.0849 
      7 S7         14.5479  -27.0735  -46.0197 S.3       10 UNK        -0.2776 
      8 C8         14.8192  -28.8642  -46.3080 C.3       10 UNK         0.0316 
      9 C9         15.6882  -29.5244  -45.2447 C.ar      10 UNK        -0.0863 
     10 C10        16.9790  -29.9552  -45.5656 C.ar      10 UNK        -0.1009 
     11 C11        17.8239  -30.4637  -44.5763 C.ar      10 UNK        -0.0712 
     12 C12        17.3623  -30.5560  -43.2602 C.ar      10 UNK        -0.0894 
     13 C13        16.0747  -30.1269  -42.9237 C.ar      10 UNK        -0.0745 
     14 C14        15.2340  -29.6331  -43.9266 C.ar      10 UNK        -0.0972 
     15 C15        15.5937  -30.1533  -41.4762 C.3       10 UNK         0.0209 
     16 S16        16.7972  -29.4658  -40.2828 S.3       10 UNK        -0.2568 
     17 C17        17.2198  -27.8367  -40.9976 C.3       10 UNK        -0.0983 
     18 CA         18.7324  -27.7366  -41.3319 C.3       3 UNK         0.0876 
     19 N          19.0047  -26.7219  -42.3526 N.am      3 UNK        -0.4424 
     20 C          20.1959  -26.5012  -42.9307 C.2       2 UNK         0.4918 
     21 O          21.2233  -27.1186  -42.6366 O.2       2 UNK        -0.4875 
     22 CA         20.2281  -25.4111  -44.0268 C.3       2 UNK         0.0481 
     23 CB         21.5116  -25.4549  -44.8831 C.3       2 UNK        -0.1831 
     24 N          19.0316  -25.4328  -44.8822 N.am      2 UNK        -0.4498 
     25 C          18.6190  -26.4556  -45.6503 C.2       1 UNK         0.5027 
     26 O          19.2541  -27.4964  -45.8186 O.2       1 UNK        -0.4969 
     27 C          19.5804  -27.4877  -40.0677 C.2       3 UNK         0.5005 
     28 O          19.4487  -26.4285  -39.4495 O.2       3 UNK        -0.5279 
     29 N          20.4470  -28.4550  -39.7376 N.am      4 UNK        -0.4463 
     30 CA         21.3971  -28.4671  -38.6201 C.3       4 UNK         0.0283 
     31 CB         20.6608  -28.4265  -37.2641 C.3       4 UNK        -0.1875 
     32 C          22.5142  -27.4071  -38.7152 C.2       4 UNK         0.4949 
     33 O          23.2048  -27.1767  -37.7215 O.2       4 UNK        -0.5039 
     34 N          22.7134  -26.8030  -39.8976 N.am      5 UNK        -0.4663 
     35 CA         23.8158  -25.8703  -40.1669 C.3       5 UNK         0.0242 
     36 CB         23.4930  -25.0494  -41.4235 C.3       5 UNK        -0.1982 
     37 C          25.1682  -26.5872  -40.3338 C.2       5 UNK         0.5017 
     38 O          26.2138  -25.9587  -40.1654 O.2       5 UNK        -0.5012 
     39 N          25.1178  -27.8837  -40.6532 N.am      6 UNK        -0.4439 
     40 CA         26.2378  -28.8090  -40.7295 C.3       6 UNK         0.0297 
     41 CB         26.7294  -28.9039  -42.1843 C.3       6 UNK        -0.2006 
     42 C          25.7399  -30.1667  -40.2245 C.2       6 UNK         0.4892 
     43 O          24.5322  -30.4201  -40.2455 O.2       6 UNK        -0.5089 
     44 N          26.6771  -31.0274  -39.8090 N.am      7 UNK        -0.4243 
     45 CA         26.3975  -32.3743  -39.2967 C.3       7 UNK         0.0196 
     46 CB         27.6835  -32.9599  -38.6905 C.3       7 UNK        -0.2007 
     47 C          25.8119  -33.3373  -40.3468 C.2       7 UNK         0.5020 
     48 O          25.1541  -34.3074  -39.9702 O.2       7 UNK        -0.5147 
     49 N          26.0626  -33.0633  -41.6351 N.am      8 UNK        -0.4734 
     50 CA         25.5613  -33.8473  -42.7655 C.3       8 UNK         0.0238 
     51 CB         26.3077  -33.4346  -44.0450 C.3       8 UNK        -0.1912 
     52 C          24.0408  -33.7270  -42.9658 C.2       8 UNK         0.5038 
     53 O          23.4057  -34.7284  -43.2984 O.2       8 UNK        -0.5046 
     54 N          23.4924  -32.5214  -42.7640 N.am      9 UNK        -0.4200 
     55 CA         22.0671  -32.1954  -42.8988 C.3       9 UNK         0.0839 
     56 C          21.7872  -30.7671  -42.3697 C.2       9 UNK         0.5513 
     57 N          22.4718  -29.7522  -42.8849 N.am      9 UNK        -0.7519 
     58 O          20.9281  -30.5746  -41.5136 O.2       9 UNK        -0.4960 
     59 C59        21.5203  -32.3841  -44.3475 C.3       10 UNK        -0.0876 
     60 S60        19.7011  -32.5133  -44.3981 S.3       10 UNK        -0.2414 
     61 C61        19.2643  -30.8211  -44.9100 C.3       10 UNK         0.0169 
     62 H62        17.2084  -23.3309  -49.6996 H         1 UNK         0.0903 
     63 H63        16.7676  -22.7241  -48.1024 H         1 UNK         0.0903 
     64 H64        18.4464  -22.6493  -48.6411 H         1 UNK         0.0903 
     65 H65        16.4061  -24.3807  -46.6504 H         1 UNK         0.3096 
     66 H66        17.1745  -27.0867  -47.0717 H         1 UNK         0.1121 
     67 H67        16.4104  -27.1864  -44.4873 H         1 UNK         0.0849 
     68 H68        15.9127  -25.5616  -44.7543 H         1 UNK         0.0849 
     69 H69        13.8522  -29.3675  -46.3475 H         1 UNK         0.0865 
     70 H70        15.2639  -28.9918  -47.2962 H         1 UNK         0.0865 
     71 H71        17.3464  -29.8489  -46.5772 H         1 UNK         0.1346 
     72 H72        18.0238  -30.9284  -42.4896 H         1 UNK         0.1412 
     73 H73        14.2421  -29.2812  -43.6767 H         1 UNK         0.1426 
     74 H74        15.3729  -31.1845  -41.1981 H         1 UNK         0.0716 
     75 H75        14.6594  -29.5992  -41.3729 H         1 UNK         0.0716 
     76 H76        16.9081  -27.0512  -40.3063 H         1 UNK         0.0695 
     77 H77        16.6237  -27.6831  -41.8976 H         1 UNK         0.0695 
     78 H78        19.0425  -28.6840  -41.7775 H         1 UNK         0.0983 
     79 H79        18.2276  -26.1390  -42.6213 H         1 UNK         0.3095 
     80 H80        20.2141  -24.4533  -43.5050 H         1 UNK         0.0454 
     81 H81        21.6601  -26.4324  -45.3430 H         1 UNK         0.0851 
     82 H82        22.3934  -25.2451  -44.2800 H         1 UNK         0.0851 
     83 H83        21.4839  -24.7111  -45.6792 H         1 UNK         0.0851 
     84 H84        18.4442  -24.6114  -44.8386 H         1 UNK         0.2976 
     85 H85        20.5150  -29.2643  -40.3571 H         1 UNK         0.3116 
     86 H86        21.9054  -29.4305  -38.6857 H         1 UNK         0.0646 
     87 H87        20.1894  -27.4595  -37.0871 H         1 UNK         0.0847 
     88 H88        21.3501  -28.6054  -36.4381 H         1 UNK         0.0847 
     89 H89        19.8875  -29.1927  -37.2090 H         1 UNK         0.0847 
     90 H90        22.1005  -27.0254  -40.6740 H         1 UNK         0.3040 
     91 H91        23.9053  -25.1842  -39.3215 H         1 UNK         0.1015 
     92 H92        23.4920  -25.6779  -42.3137 H         1 UNK         0.0786 
     93 H93        24.2376  -24.2678  -41.5798 H         1 UNK         0.0786 
     94 H94        22.5201  -24.5632  -41.3481 H         1 UNK         0.0786 
     95 H95        24.2127  -28.3358  -40.7050 H         1 UNK         0.3172 
     96 H96        27.0484  -28.4688  -40.0814 H         1 UNK         0.0595 
     97 H97        27.5757  -29.5861  -42.2720 H         1 UNK         0.0839 
     98 H98        27.0596  -27.9325  -42.5527 H         1 UNK         0.0839 
     99 H99        25.9457  -29.2639  -42.8522 H         1 UNK         0.0839 
    100 H100       27.6462  -30.7422  -39.8298 H         1 UNK         0.2998 
    101 H101       25.6563  -32.2795  -38.5000 H         1 UNK         0.0822 
    102 H102       27.5021  -33.9514  -38.2728 H         1 UNK         0.0787 
    103 H103       28.4727  -33.0606  -39.4369 H         1 UNK         0.0787 
    104 H104       28.0622  -32.3351  -37.8813 H         1 UNK         0.0787 
    105 H105       26.6298  -32.2562  -41.8487 H         1 UNK         0.3055 
    106 H106       25.7805  -34.8995  -42.5684 H         1 UNK         0.1106 
    107 H107       25.9652  -34.0180  -44.9010 H         1 UNK         0.0828 
    108 H108       26.1519  -32.3821  -44.2855 H         1 UNK         0.0828 
    109 H109       27.3806  -33.6029  -43.9507 H         1 UNK         0.0828 
    110 H110       24.0713  -31.7698  -42.4137 H         1 UNK         0.2931 
    111 H111       21.5380  -32.8889  -42.2417 H         1 UNK         0.0412 
    112 H112       23.1480  -29.8971  -43.6162 H         1 UNK         0.3472 
    113 H113       22.2067  -28.8075  -42.6312 H         1 UNK         0.3472 
    114 H114       21.8972  -33.3063  -44.7885 H         1 UNK         0.0970 
    115 H115       21.8656  -31.5895  -45.0114 H         1 UNK         0.0970 
    116 H116       19.4565  -30.7183  -45.9790 H         1 UNK         0.0612 
    117 H117       19.9096  -30.0969  -44.4123 H         1 UNK         0.0612 
@<TRIPOS>BOND
     1    1    2 1    
     2    1   62 1    
     3    1   63 1    
     4    1   64 1    
     5    2    3 2    
     6    2    4 am   BACKBONE|DICT|INTERRES
     7    4    5 1    
     8    4   65 1    
     9    5    6 1    
    10    5   25 1    
    11    5   66 1    
    12    6    7 1    
    13    6   67 1    
    14    6   68 1    
    15    7    8 1    
    16    8    9 1    
    17    8   69 1    
    18    8   70 1    
    19    9   10 ar   
    20    9   14 ar   
    21   10   11 ar   
    22   10   71 1    
    23   11   12 ar   
    24   11   61 1    
    25   12   13 ar   
    26   12   72 1    
    27   13   14 ar   
    28   13   15 1    
    29   14   73 1    
    30   15   16 1    
    31   15   74 1    
    32   15   75 1    
    33   16   17 1    
    34   17   18 1    
    35   17   76 1    
    36   17   77 1    
    37   18   19 1    
    38   18   27 1    
    39   18   78 1    
    40   19   20 am   BACKBONE|DICT|INTERRES
    41   19   79 1    
    42   20   21 2    
    43   20   22 1    
    44   22   23 1    
    45   22   24 1    
    46   22   80 1    
    47   23   81 1    
    48   23   82 1    
    49   23   83 1    
    50   24   25 am   BACKBONE|DICT|INTERRES
    51   24   84 1    
    52   25   26 2    
    53   27   28 2    
    54   27   29 am   BACKBONE|DICT|INTERRES
    55   29   30 1    
    56   29   85 1    
    57   30   31 1    
    58   30   32 1    
    59   30   86 1    
    60   31   87 1    
    61   31   88 1    
    62   31   89 1    
    63   32   33 2    
    64   32   34 am   BACKBONE|DICT|INTERRES
    65   34   35 1    
    66   34   90 1    
    67   35   36 1    
    68   35   37 1    
    69   35   91 1    
    70   36   92 1    
    71   36   93 1    
    72   36   94 1    
    73   37   38 2    
    74   37   39 am   BACKBONE|DICT|INTERRES
    75   39   40 1    
    76   39   95 1    
    77   40   41 1    
    78   40   42 1    
    79   40   96 1    
    80   41   97 1    
    81   41   98 1    
    82   41   99 1    
    83   42   43 2    
    84   42   44 am   BACKBONE|DICT|INTERRES
    85   44   45 1    
    86   44  100 1    
    87   45   46 1    
    88   45   47 1    
    89   45  101 1    
    90   46  102 1    
    91   46  103 1    
    92   46  104 1    
    93   47   48 2    
    94   47   49 am   BACKBONE|DICT|INTERRES
    95   49   50 1    
    96   49  105 1    
    97   50   51 1    
    98   50   52 1    
    99   50  106 1    
   100   51  107 1    
   101   51  108 1    
   102   51  109 1    
   103   52   53 2    
   104   52   54 am   BACKBONE|DICT|INTERRES
   105   54   55 1    
   106   54  110 1    
   107   55   56 1    
   108   55   59 1    
   109   55  111 1    
   110   56   57 am   BACKBONE|DICT|INTERRES
   111   56   58 2    
   112   57  112 1    
   113   57  113 1    
   114   59   60 1    
   115   59  114 1    
   116   59  115 1    
   117   60   61 1    
   118   61  116 1    
   119   61  117 1    
@<TRIPOS>SUBSTRUCTURE
     1 UNK         1 GROUP             0       ****    0 ROOT    
