@<TRIPOS>MOLECULE
3R8
117   119    1
SMALL
USER_CHARGES


@<TRIPOS>ATOM
      1 CA         16.6491  -23.2648  -41.2820 C.3       0 UNK        -0.2013 
      2 C          17.7046  -24.3179  -41.5843 C.2       0 UNK         0.4866 
      3 O          18.7932  -24.2694  -41.0122 O.2       0 UNK        -0.5176 
      4 N          17.3900  -25.2588  -42.4876 N.am      1 UNK        -0.4884 
      5 CA         18.2342  -26.3928  -42.9071 C.3       1 UNK         0.0853 
      6 C6         18.4993  -27.4129  -41.7623 C.3       10 UNK        -0.0849 
      7 S7         16.9406  -28.2425  -41.2781 S.3       10 UNK        -0.2776 
      8 C8         17.2591  -30.0286  -41.5347 C.3       10 UNK         0.0316 
      9 C9         18.0574  -30.3740  -42.7906 C.ar      10 UNK        -0.0863 
     10 C10        19.0678  -31.3339  -42.7115 C.ar      10 UNK        -0.1009 
     11 C11        19.8570  -31.6349  -43.8231 C.ar      10 UNK        -0.0712 
     12 C12        19.6315  -30.9602  -45.0265 C.ar      10 UNK        -0.0894 
     13 C13        18.6177  -29.9952  -45.1313 C.ar      10 UNK        -0.0745 
     14 C14        17.8133  -29.7427  -44.0150 C.ar      10 UNK        -0.0972 
     15 C15        18.3534  -29.1893  -46.4081 C.3       10 UNK         0.0209 
     16 S16        19.6274  -29.3464  -47.7070 S.3       10 UNK        -0.2568 
     17 C17        19.7794  -27.6384  -48.3513 C.3       10 UNK        -0.0983 
     18 CA         20.9207  -26.7440  -47.7715 C.3       3 UNK         0.0876 
     19 N          20.4455  -25.8657  -46.6949 N.am      3 UNK        -0.4424 
     20 C          21.1334  -24.8226  -46.2034 C.2       2 UNK         0.4918 
     21 O          22.2020  -24.4321  -46.6738 O.2       2 UNK        -0.4875 
     22 CA         20.5606  -24.0888  -44.9750 C.3       2 UNK         0.0481 
     23 CB         20.1006  -22.6739  -45.3626 C.3       2 UNK        -0.1831 
     24 N          19.4626  -24.7664  -44.2772 N.am      2 UNK        -0.4498 
     25 C          19.5105  -25.9593  -43.6652 C.2       1 UNK         0.5027 
     26 O          20.4829  -26.7138  -43.7349 O.2       1 UNK        -0.4969 
     27 C          22.2046  -27.5124  -47.3704 C.2       3 UNK         0.5005 
     28 O          23.0670  -27.7339  -48.2230 O.2       3 UNK        -0.5279 
     29 N          22.3087  -27.8751  -46.0828 N.am      4 UNK        -0.4463 
     30 CA         23.4662  -28.5419  -45.4841 C.3       4 UNK         0.0283 
     31 CB         23.0404  -29.9280  -44.9816 C.3       4 UNK        -0.1875 
     32 C          24.0726  -27.7301  -44.3301 C.2       4 UNK         0.4949 
     33 O          25.2412  -27.9425  -44.0097 O.2       4 UNK        -0.5039 
     34 N          23.2791  -26.8527  -43.6954 N.am      5 UNK        -0.4663 
     35 CA         23.5919  -25.9573  -42.5700 C.3       5 UNK         0.0242 
     36 CB         24.7356  -24.9866  -42.9228 C.3       5 UNK        -0.1982 
     37 C          23.8460  -26.6610  -41.2230 C.2       5 UNK         0.5017 
     38 O          23.5994  -26.0531  -40.1812 O.2       5 UNK        -0.5012 
     39 N          24.3131  -27.9159  -41.2546 N.am      6 UNK        -0.4439 
     40 CA         24.5747  -28.7630  -40.0891 C.3       6 UNK         0.0297 
     41 CB         25.2914  -30.0449  -40.5441 C.3       6 UNK        -0.2006 
     42 C          23.3114  -29.1193  -39.2876 C.2       6 UNK         0.4892 
     43 O          23.3942  -29.2284  -38.0639 O.2       6 UNK        -0.5089 
     44 N          22.1840  -29.3186  -39.9900 N.am      7 UNK        -0.4243 
     45 CA         20.8357  -29.6709  -39.5099 C.3       7 UNK         0.0196 
     46 CB         20.2685  -28.5784  -38.5847 C.3       7 UNK        -0.2007 
     47 C          20.7150  -31.0615  -38.8556 C.2       7 UNK         0.5020 
     48 O          19.7436  -31.7700  -39.1201 O.2       7 UNK        -0.5147 
     49 N          21.7132  -31.4548  -38.0539 N.am      8 UNK        -0.4734 
     50 CA         21.8444  -32.7568  -37.3859 C.3       8 UNK         0.0238 
     51 CB         23.0552  -32.7084  -36.4399 C.3       8 UNK        -0.1912 
     52 C          21.9595  -33.9543  -38.3491 C.2       8 UNK         0.5038 
     53 O          21.7578  -35.0927  -37.9244 O.2       8 UNK        -0.5046 
     54 N          22.2566  -33.6726  -39.6230 N.am      9 UNK        -0.4200 
     55 CA         22.1536  -34.5929  -40.7611 C.3       9 UNK         0.0839 
     56 C          20.7139  -35.1168  -41.0487 C.2       9 UNK         0.5513 
     57 N          19.6574  -34.4763  -40.5587 N.am      9 UNK        -0.7519 
     58 O          20.5586  -36.1273  -41.7292 O.2       9 UNK        -0.4960 
     59 C59        22.8042  -33.9789  -42.0322 C.3       10 UNK        -0.0876 
     60 S60        22.1728  -32.3106  -42.4431 S.3       10 UNK        -0.2414 
     61 C61        20.9341  -32.7062  -43.7208 C.3       10 UNK         0.0169 
     62 H62        16.3884  -23.2897  -40.2243 H         1 UNK         0.0903 
     63 H63        17.0322  -22.2716  -41.5150 H         1 UNK         0.0903 
     64 H64        15.7378  -23.4210  -41.8589 H         1 UNK         0.0903 
     65 H65        16.4705  -25.2363  -42.9083 H         1 UNK         0.3096 
     66 H66        17.6539  -26.9052  -43.6731 H         1 UNK         0.1121 
     67 H67        18.9211  -26.9158  -40.8888 H         1 UNK         0.0849 
     68 H68        19.2380  -28.1595  -42.0536 H         1 UNK         0.0849 
     69 H69        17.7726  -30.4034  -40.6478 H         1 UNK         0.0865 
     70 H70        16.3033  -30.5524  -41.5733 H         1 UNK         0.0865 
     71 H71        19.2519  -31.8483  -41.7782 H         1 UNK         0.1346 
     72 H72        20.2533  -31.1985  -45.8765 H         1 UNK         0.1412 
     73 H73        17.0095  -29.0244  -44.0887 H         1 UNK         0.1426 
     74 H74        18.2574  -28.1379  -46.1354 H         1 UNK         0.0716 
     75 H75        17.3922  -29.4901  -46.8269 H         1 UNK         0.0716 
     76 H76        18.8142  -27.1339  -48.2829 H         1 UNK         0.0695 
     77 H77        19.9536  -27.7500  -49.4228 H         1 UNK         0.0695 
     78 H78        21.2236  -26.0722  -48.5785 H         1 UNK         0.0983 
     79 H79        19.5694  -26.1085  -46.2599 H         1 UNK         0.3095 
     80 H80        21.3805  -23.9918  -44.2606 H         1 UNK         0.0454 
     81 H81        19.7977  -22.0998  -44.4868 H         1 UNK         0.0851 
     82 H82        19.2600  -22.6989  -46.0571 H         1 UNK         0.0851 
     83 H83        20.9050  -22.1173  -45.8459 H         1 UNK         0.0851 
     84 H84        18.6089  -24.2363  -44.1751 H         1 UNK         0.2976 
     85 H85        21.5383  -27.6545  -45.4644 H         1 UNK         0.3116 
     86 H86        24.2560  -28.6757  -46.2260 H         1 UNK         0.0646 
     87 H87        22.6720  -30.5486  -45.7981 H         1 UNK         0.0847 
     88 H88        22.2518  -29.8543  -44.2321 H         1 UNK         0.0847 
     89 H89        23.8775  -30.4579  -44.5251 H         1 UNK         0.0847 
     90 H90        22.2952  -26.8318  -43.9504 H         1 UNK         0.3040 
     91 H91        22.6916  -25.3577  -42.4234 H         1 UNK         0.1015 
     92 H92        24.8757  -24.2484  -42.1321 H         1 UNK         0.0786 
     93 H93        24.5212  -24.4407  -43.8417 H         1 UNK         0.0786 
     94 H94        25.6865  -25.5039  -43.0524 H         1 UNK         0.0786 
     95 H95        24.5725  -28.2799  -42.1655 H         1 UNK         0.3172 
     96 H96        25.2440  -28.2135  -39.4239 H         1 UNK         0.0595 
     97 H97        24.6839  -30.6250  -41.2403 H         1 UNK         0.0839 
     98 H98        25.5170  -30.6899  -39.6934 H         1 UNK         0.0839 
     99 H99        26.2378  -29.8175  -41.0353 H         1 UNK         0.0839 
    100 H100       22.2636  -29.2325  -40.9935 H         1 UNK         0.2998 
    101 H101       20.2121  -29.6982  -40.4040 H         1 UNK         0.0822 
    102 H102       20.3351  -27.5932  -39.0457 H         1 UNK         0.0787 
    103 H103       19.2165  -28.7650  -38.3645 H         1 UNK         0.0787 
    104 H104       20.7981  -28.5358  -37.6324 H         1 UNK         0.0787 
    105 H105       22.4531  -30.7745  -37.8881 H         1 UNK         0.3055 
    106 H106       20.9428  -32.9148  -36.7902 H         1 UNK         0.1106 
    107 H107       23.1696  -33.6496  -35.9002 H         1 UNK         0.0828 
    108 H108       22.9450  -31.9210  -35.6939 H         1 UNK         0.0828 
    109 H109       23.9837  -32.5281  -36.9833 H         1 UNK         0.0828 
    110 H110       22.3918  -32.7032  -39.8673 H         1 UNK         0.2931 
    111 H111       22.7397  -35.4749  -40.4958 H         1 UNK         0.0412 
    112 H112       19.7684  -33.6289  -40.0137 H         1 UNK         0.3472 
    113 H113       18.7347  -34.8327  -40.7495 H         1 UNK         0.3472 
    114 H114       23.8796  -33.8882  -41.8732 H         1 UNK         0.0970 
    115 H115       22.6976  -34.6435  -42.8919 H         1 UNK         0.0970 
    116 H116       21.4465  -32.8418  -44.6744 H         1 UNK         0.0612 
    117 H117       20.4481  -33.6548  -43.4940 H         1 UNK         0.0612 
@<TRIPOS>BOND
     1    1    2 1    
     2    1   62 1    
     3    1   63 1    
     4    1   64 1    
     5    2    3 2    
     6    2    4 am   BACKBONE|DICT|INTERRES
     7    4    5 1    
     8    4   65 1    
     9    5    6 1    
    10    5   25 1    
    11    5   66 1    
    12    6    7 1    
    13    6   67 1    
    14    6   68 1    
    15    7    8 1    
    16    8    9 1    
    17    8   69 1    
    18    8   70 1    
    19    9   10 ar   
    20    9   14 ar   
    21   10   11 ar   
    22   10   71 1    
    23   11   12 ar   
    24   11   61 1    
    25   12   13 ar   
    26   12   72 1    
    27   13   14 ar   
    28   13   15 1    
    29   14   73 1    
    30   15   16 1    
    31   15   74 1    
    32   15   75 1    
    33   16   17 1    
    34   17   18 1    
    35   17   76 1    
    36   17   77 1    
    37   18   19 1    
    38   18   27 1    
    39   18   78 1    
    40   19   20 am   BACKBONE|DICT|INTERRES
    41   19   79 1    
    42   20   21 2    
    43   20   22 1    
    44   22   23 1    
    45   22   24 1    
    46   22   80 1    
    47   23   81 1    
    48   23   82 1    
    49   23   83 1    
    50   24   25 am   BACKBONE|DICT|INTERRES
    51   24   84 1    
    52   25   26 2    
    53   27   28 2    
    54   27   29 am   BACKBONE|DICT|INTERRES
    55   29   30 1    
    56   29   85 1    
    57   30   31 1    
    58   30   32 1    
    59   30   86 1    
    60   31   87 1    
    61   31   88 1    
    62   31   89 1    
    63   32   33 2    
    64   32   34 am   BACKBONE|DICT|INTERRES
    65   34   35 1    
    66   34   90 1    
    67   35   36 1    
    68   35   37 1    
    69   35   91 1    
    70   36   92 1    
    71   36   93 1    
    72   36   94 1    
    73   37   38 2    
    74   37   39 am   BACKBONE|DICT|INTERRES
    75   39   40 1    
    76   39   95 1    
    77   40   41 1    
    78   40   42 1    
    79   40   96 1    
    80   41   97 1    
    81   41   98 1    
    82   41   99 1    
    83   42   43 2    
    84   42   44 am   BACKBONE|DICT|INTERRES
    85   44   45 1    
    86   44  100 1    
    87   45   46 1    
    88   45   47 1    
    89   45  101 1    
    90   46  102 1    
    91   46  103 1    
    92   46  104 1    
    93   47   48 2    
    94   47   49 am   BACKBONE|DICT|INTERRES
    95   49   50 1    
    96   49  105 1    
    97   50   51 1    
    98   50   52 1    
    99   50  106 1    
   100   51  107 1    
   101   51  108 1    
   102   51  109 1    
   103   52   53 2    
   104   52   54 am   BACKBONE|DICT|INTERRES
   105   54   55 1    
   106   54  110 1    
   107   55   56 1    
   108   55   59 1    
   109   55  111 1    
   110   56   57 am   BACKBONE|DICT|INTERRES
   111   56   58 2    
   112   57  112 1    
   113   57  113 1    
   114   59   60 1    
   115   59  114 1    
   116   59  115 1    
   117   60   61 1    
   118   61  116 1    
   119   61  117 1    
@<TRIPOS>SUBSTRUCTURE
     1 UNK         1 GROUP             0       ****    0 ROOT    
