@<TRIPOS>MOLECULE
3R8
117   119    1
SMALL
USER_CHARGES


@<TRIPOS>ATOM
      1 CA         14.7946  -23.4966  -47.8342 C.3       0 UNK        -0.2013 
      2 C          15.1409  -24.2444  -46.5555 C.2       0 UNK         0.4866 
      3 O          14.6459  -23.8843  -45.4874 O.2       0 UNK        -0.5176 
      4 N          15.9923  -25.2753  -46.6612 N.am      1 UNK        -0.4884 
      5 CA         16.4491  -26.1514  -45.5678 C.3       1 UNK         0.0853 
      6 C6         15.3161  -27.0216  -44.9538 C.3       10 UNK        -0.0849 
      7 S7         14.6193  -28.1684  -46.1932 S.3       10 UNK        -0.2776 
      8 C8         14.8861  -29.8024  -45.4162 C.3       10 UNK         0.0316 
      9 C9         16.3377  -30.1211  -45.0540 C.ar      10 UNK        -0.0863 
     10 C10        16.6044  -30.8407  -43.8829 C.ar      10 UNK        -0.1009 
     11 C11        17.9163  -31.1713  -43.5312 C.ar      10 UNK        -0.0712 
     12 C12        18.9684  -30.7761  -44.3591 C.ar      10 UNK        -0.0894 
     13 C13        18.7242  -30.0251  -45.5104 C.ar      10 UNK        -0.0745 
     14 C14        17.4064  -29.7264  -45.8701 C.ar      10 UNK        -0.0972 
     15 C15        19.8917  -29.5140  -46.3418 C.3       10 UNK         0.0209 
     16 S16        20.3439  -27.8051  -45.8895 S.3       10 UNK        -0.2568 
     17 C17        20.8445  -27.9942  -44.1414 C.3       10 UNK        -0.0983 
     18 CA         21.2962  -26.6603  -43.4832 C.3       3 UNK         0.0876 
     19 N          20.2407  -25.6540  -43.5527 N.am      3 UNK        -0.4424 
     20 C          20.3419  -24.4297  -44.0760 C.2       2 UNK         0.4918 
     21 O          21.3860  -23.9529  -44.5249 O.2       2 UNK        -0.4875 
     22 CA         19.0216  -23.6348  -44.1563 C.3       2 UNK         0.0481 
     23 CB         19.2065  -22.2314  -44.7622 C.3       2 UNK        -0.1831 
     24 N          18.0229  -24.3663  -44.9430 N.am      2 UNK        -0.4498 
     25 C          17.2915  -25.4045  -44.5091 C.2       1 UNK         0.5027 
     26 O          17.3203  -25.8016  -43.3420 O.2       1 UNK        -0.4969 
     27 C          21.7057  -26.7987  -42.0014 C.2       3 UNK         0.5005 
     28 O          22.0163  -25.7859  -41.3693 O.2       3 UNK        -0.5279 
     29 N          21.7042  -28.0310  -41.4671 N.am      4 UNK        -0.4463 
     30 CA         21.9702  -28.4491  -40.0805 C.3       4 UNK         0.0283 
     31 CB         20.9480  -27.8409  -39.1023 C.3       4 UNK        -0.1875 
     32 C          23.4098  -28.2230  -39.5855 C.2       4 UNK         0.4949 
     33 O          23.9851  -29.1347  -38.9931 O.2       4 UNK        -0.5039 
     34 N          23.9868  -27.0466  -39.8597 N.am      5 UNK        -0.4663 
     35 CA         25.3473  -26.6448  -39.4763 C.3       5 UNK         0.0242 
     36 CB         25.5536  -25.1646  -39.8347 C.3       5 UNK        -0.1982 
     37 C          26.4551  -27.5110  -40.1039 C.2       5 UNK         0.5017 
     38 O          27.5275  -27.6469  -39.5152 O.2       5 UNK        -0.5012 
     39 N          26.1592  -28.1060  -41.2669 N.am      6 UNK        -0.4439 
     40 CA         27.0019  -29.0782  -41.9678 C.3       6 UNK         0.0297 
     41 CB         26.6267  -29.0582  -43.4607 C.3       6 UNK        -0.2006 
     42 C          26.8956  -30.5107  -41.4003 C.2       6 UNK         0.4892 
     43 O          27.5415  -31.4072  -41.9427 O.2       6 UNK        -0.5089 
     44 N          26.0631  -30.7138  -40.3644 N.am      7 UNK        -0.4243 
     45 CA         25.6938  -31.9901  -39.7337 C.3       7 UNK         0.0196 
     46 CB         26.9250  -32.7319  -39.1710 C.3       7 UNK        -0.2007 
     47 C          24.8138  -32.8884  -40.6259 C.2       7 UNK         0.5020 
     48 O          24.6456  -34.0700  -40.3218 O.2       7 UNK        -0.5147 
     49 N          24.2289  -32.3116  -41.6868 N.am      8 UNK        -0.4734 
     50 CA         23.3702  -32.9875  -42.6670 C.3       8 UNK         0.0238 
     51 CB         23.0440  -32.0068  -43.8067 C.3       8 UNK        -0.1912 
     52 C          22.0730  -33.5657  -42.0746 C.2       8 UNK         0.5038 
     53 O          21.5537  -34.5466  -42.6081 O.2       8 UNK        -0.5046 
     54 N          21.5867  -32.9511  -40.9902 N.am      9 UNK        -0.4200 
     55 CA         20.4062  -33.3845  -40.2290 C.3       9 UNK         0.0839 
     56 C          20.7452  -34.3425  -39.0498 C.2       9 UNK         0.5513 
     57 N          21.9951  -34.7461  -38.8474 N.am      9 UNK        -0.7519 
     58 O          19.8516  -34.7394  -38.3065 O.2       9 UNK        -0.4960 
     59 C59        19.5373  -32.1802  -39.7659 C.3       10 UNK        -0.0876 
     60 S60        19.1709  -30.9596  -41.0769 S.3       10 UNK        -0.2414 
     61 C61        18.2116  -31.9566  -42.2629 C.3       10 UNK         0.0169 
     62 H62        13.7208  -23.5409  -48.0145 H         1 UNK         0.0903 
     63 H63        15.0823  -22.4492  -47.7462 H         1 UNK         0.0903 
     64 H64        15.3010  -23.9155  -48.7036 H         1 UNK         0.0903 
     65 H65        16.3507  -25.5161  -47.5756 H         1 UNK         0.3096 
     66 H66        17.1648  -26.8370  -46.0236 H         1 UNK         0.1121 
     67 H67        14.5148  -26.3975  -44.5562 H         1 UNK         0.0849 
     68 H68        15.6853  -27.6045  -44.1083 H         1 UNK         0.0849 
     69 H69        14.2544  -29.8589  -44.5281 H         1 UNK         0.0865 
     70 H70        14.5239  -30.5736  -46.0971 H         1 UNK         0.0865 
     71 H71        15.7881  -31.1504  -43.2444 H         1 UNK         0.1346 
     72 H72        19.9839  -31.0222  -44.0815 H         1 UNK         0.1412 
     73 H73        17.2178  -29.1676  -46.7761 H         1 UNK         0.1426 
     74 H74        19.6312  -29.5434  -47.4008 H         1 UNK         0.0716 
     75 H75        20.7616  -30.1620  -46.2229 H         1 UNK         0.0716 
     76 H76        21.6447  -28.7355  -44.1070 H         1 UNK         0.0695 
     77 H77        19.9957  -28.4039  -43.5917 H         1 UNK         0.0695 
     78 H78        22.1832  -26.3080  -44.0142 H         1 UNK         0.0983 
     79 H79        19.3305  -25.9359  -43.2048 H         1 UNK         0.3095 
     80 H80        18.6507  -23.5101  -43.1368 H         1 UNK         0.0454 
     81 H81        19.5789  -22.2773  -45.7863 H         1 UNK         0.0851 
     82 H82        19.9211  -21.6469  -44.1812 H         1 UNK         0.0851 
     83 H83        18.2682  -21.6765  -44.7707 H         1 UNK         0.0851 
     84 H84        17.9559  -24.1237  -45.9211 H         1 UNK         0.2976 
     85 H85        21.4370  -28.7877  -42.0804 H         1 UNK         0.3116 
     86 H86        21.8136  -29.5290  -40.0721 H         1 UNK         0.0646 
     87 H87        21.0279  -26.7549  -39.0479 H         1 UNK         0.0847 
     88 H88        21.0975  -28.2273  -38.0932 H         1 UNK         0.0847 
     89 H89        19.9272  -28.0882  -39.3943 H         1 UNK         0.0847 
     90 H90        23.4171  -26.3632  -40.3572 H         1 UNK         0.3040 
     91 H91        25.4306  -26.7525  -38.3925 H         1 UNK         0.1015 
     92 H92        25.4502  -24.9909  -40.9067 H         1 UNK         0.0786 
     93 H93        26.5486  -24.8255  -39.5424 H         1 UNK         0.0786 
     94 H94        24.8322  -24.5284  -39.3214 H         1 UNK         0.0786 
     95 H95        25.2533  -27.9133  -41.6685 H         1 UNK         0.3172 
     96 H96        28.0455  -28.7704  -41.8746 H         1 UNK         0.0595 
     97 H97        27.2701  -29.7250  -44.0366 H         1 UNK         0.0839 
     98 H98        26.7411  -28.0607  -43.8857 H         1 UNK         0.0839 
     99 H99        25.5972  -29.3784  -43.6260 H         1 UNK         0.0839 
    100 H100       25.5706  -29.9112  -39.9851 H         1 UNK         0.2998 
    101 H101       25.0653  -31.7224  -38.8830 H         1 UNK         0.0822 
    102 H102       26.6211  -33.5750  -38.5493 H         1 UNK         0.0787 
    103 H103       27.5594  -33.1301  -39.9631 H         1 UNK         0.0787 
    104 H104       27.5338  -32.0758  -38.5489 H         1 UNK         0.0787 
    105 H105       24.4301  -31.3379  -41.8555 H         1 UNK         0.3055 
    106 H106       23.9358  -33.8255  -43.0806 H         1 UNK         0.1106 
    107 H107       22.4199  -32.4825  -44.5648 H         1 UNK         0.0828 
    108 H108       22.5050  -31.1309  -43.4447 H         1 UNK         0.0828 
    109 H109       23.9495  -31.6629  -44.3070 H         1 UNK         0.0828 
    110 H110       22.0951  -32.1656  -40.6151 H         1 UNK         0.2931 
    111 H111       19.7800  -33.9890  -40.8857 H         1 UNK         0.0412 
    112 H112       22.7483  -34.4602  -39.4610 H         1 UNK         0.3472 
    113 H113       22.1883  -35.3706  -38.0803 H         1 UNK         0.3472 
    114 H114       20.0366  -31.6475  -38.9545 H         1 UNK         0.0970 
    115 H115       18.5895  -32.5320  -39.3542 H         1 UNK         0.0970 
    116 H116       18.7724  -32.8488  -42.5408 H         1 UNK         0.0612 
    117 H117       17.2910  -32.2963  -41.7860 H         1 UNK         0.0612 
@<TRIPOS>BOND
     1    1    2 1    
     2    1   62 1    
     3    1   63 1    
     4    1   64 1    
     5    2    3 2    
     6    2    4 am   BACKBONE|DICT|INTERRES
     7    4    5 1    
     8    4   65 1    
     9    5    6 1    
    10    5   25 1    
    11    5   66 1    
    12    6    7 1    
    13    6   67 1    
    14    6   68 1    
    15    7    8 1    
    16    8    9 1    
    17    8   69 1    
    18    8   70 1    
    19    9   10 ar   
    20    9   14 ar   
    21   10   11 ar   
    22   10   71 1    
    23   11   12 ar   
    24   11   61 1    
    25   12   13 ar   
    26   12   72 1    
    27   13   14 ar   
    28   13   15 1    
    29   14   73 1    
    30   15   16 1    
    31   15   74 1    
    32   15   75 1    
    33   16   17 1    
    34   17   18 1    
    35   17   76 1    
    36   17   77 1    
    37   18   19 1    
    38   18   27 1    
    39   18   78 1    
    40   19   20 am   BACKBONE|DICT|INTERRES
    41   19   79 1    
    42   20   21 2    
    43   20   22 1    
    44   22   23 1    
    45   22   24 1    
    46   22   80 1    
    47   23   81 1    
    48   23   82 1    
    49   23   83 1    
    50   24   25 am   BACKBONE|DICT|INTERRES
    51   24   84 1    
    52   25   26 2    
    53   27   28 2    
    54   27   29 am   BACKBONE|DICT|INTERRES
    55   29   30 1    
    56   29   85 1    
    57   30   31 1    
    58   30   32 1    
    59   30   86 1    
    60   31   87 1    
    61   31   88 1    
    62   31   89 1    
    63   32   33 2    
    64   32   34 am   BACKBONE|DICT|INTERRES
    65   34   35 1    
    66   34   90 1    
    67   35   36 1    
    68   35   37 1    
    69   35   91 1    
    70   36   92 1    
    71   36   93 1    
    72   36   94 1    
    73   37   38 2    
    74   37   39 am   BACKBONE|DICT|INTERRES
    75   39   40 1    
    76   39   95 1    
    77   40   41 1    
    78   40   42 1    
    79   40   96 1    
    80   41   97 1    
    81   41   98 1    
    82   41   99 1    
    83   42   43 2    
    84   42   44 am   BACKBONE|DICT|INTERRES
    85   44   45 1    
    86   44  100 1    
    87   45   46 1    
    88   45   47 1    
    89   45  101 1    
    90   46  102 1    
    91   46  103 1    
    92   46  104 1    
    93   47   48 2    
    94   47   49 am   BACKBONE|DICT|INTERRES
    95   49   50 1    
    96   49  105 1    
    97   50   51 1    
    98   50   52 1    
    99   50  106 1    
   100   51  107 1    
   101   51  108 1    
   102   51  109 1    
   103   52   53 2    
   104   52   54 am   BACKBONE|DICT|INTERRES
   105   54   55 1    
   106   54  110 1    
   107   55   56 1    
   108   55   59 1    
   109   55  111 1    
   110   56   57 am   BACKBONE|DICT|INTERRES
   111   56   58 2    
   112   57  112 1    
   113   57  113 1    
   114   59   60 1    
   115   59  114 1    
   116   59  115 1    
   117   60   61 1    
   118   61  116 1    
   119   61  117 1    
@<TRIPOS>SUBSTRUCTURE
     1 UNK         1 GROUP             0       ****    0 ROOT    
