@<TRIPOS>MOLECULE
3R8
117   119    1
SMALL
USER_CHARGES


@<TRIPOS>ATOM
      1 CA         20.7643  -26.9515  -49.7526 C.3       0 UNK        -0.2013 
      2 C          20.6485  -27.7004  -48.4332 C.2       0 UNK         0.4866 
      3 O          21.5849  -28.3978  -48.0447 O.2       0 UNK        -0.5176 
      4 N          19.5029  -27.5667  -47.7522 N.am      1 UNK        -0.4884 
      5 CA         19.2126  -28.1761  -46.4493 C.3       1 UNK         0.0853 
      6 C6         17.7140  -28.0363  -46.0817 C.3       10 UNK        -0.0849 
      7 S7         16.6621  -29.3045  -46.8769 S.3       10 UNK        -0.2776 
      8 C8         16.9492  -30.8393  -45.9105 C.3       10 UNK         0.0316 
      9 C9         17.3600  -30.5875  -44.4655 C.ar      10 UNK        -0.0863 
     10 C10        18.6549  -30.8988  -44.0395 C.ar      10 UNK        -0.1009 
     11 C11        19.0769  -30.5598  -42.7512 C.ar      10 UNK        -0.0712 
     12 C12        18.1926  -29.9148  -41.8839 C.ar      10 UNK        -0.0894 
     13 C13        16.9067  -29.5761  -42.3084 C.ar      10 UNK        -0.0745 
     14 C14        16.4779  -29.9569  -43.5829 C.ar      10 UNK        -0.0972 
     15 C15        16.0153  -28.7067  -41.4401 C.3       10 UNK         0.0209 
     16 S16        16.2223  -26.9559  -41.9122 S.3       10 UNK        -0.2568 
     17 C17        17.3117  -26.2998  -40.6030 C.3       10 UNK        -0.0983 
     18 CA         18.8345  -26.4442  -40.8670 C.3       3 UNK         0.0876 
     19 N          19.2540  -25.9458  -42.1874 N.am      3 UNK        -0.4424 
     20 C          20.5030  -26.0157  -42.6747 C.2       2 UNK         0.4918 
     21 O          21.4580  -26.4693  -42.0388 O.2       2 UNK        -0.4875 
     22 CA         20.7097  -25.4835  -44.1079 C.3       2 UNK         0.0481 
     23 CB         22.2002  -25.3579  -44.4860 C.3       2 UNK        -0.1831 
     24 N          19.9948  -26.2767  -45.1150 N.am      2 UNK        -0.4498 
     25 C          20.1078  -27.5975  -45.3348 C.2       1 UNK         0.5027 
     26 O          20.8678  -28.3437  -44.7179 O.2       1 UNK        -0.4969 
     27 C          19.6196  -25.8214  -39.6921 C.2       3 UNK         0.5005 
     28 O          19.8883  -26.5150  -38.7109 O.2       3 UNK        -0.5279 
     29 N          19.9872  -24.5374  -39.8207 N.am      4 UNK        -0.4463 
     30 CA         20.7885  -23.7984  -38.8411 C.3       4 UNK         0.0283 
     31 CB         20.7113  -22.2947  -39.1507 C.3       4 UNK        -0.1875 
     32 C          22.2567  -24.2580  -38.7808 C.2       4 UNK         0.4949 
     33 O          22.8677  -24.1708  -37.7155 O.2       4 UNK        -0.5039 
     34 N          22.7972  -24.7311  -39.9127 N.am      5 UNK        -0.4663 
     35 CA         24.1550  -25.2730  -40.0104 C.3       5 UNK         0.0242 
     36 CB         24.6778  -25.0901  -41.4446 C.3       5 UNK        -0.1982 
     37 C          24.2144  -26.7561  -39.6133 C.2       5 UNK         0.5017 
     38 O          25.2504  -27.1969  -39.1155 O.2       5 UNK        -0.5012 
     39 N          23.1135  -27.4865  -39.8550 N.am      6 UNK        -0.4439 
     40 CA         22.9434  -28.9328  -39.6780 C.3       6 UNK         0.0297 
     41 CB         23.0409  -29.3341  -38.1914 C.3       6 UNK        -0.2006 
     42 C          23.9048  -29.7183  -40.5891 C.2       6 UNK         0.4892 
     43 O          24.6981  -30.5322  -40.1105 O.2       6 UNK        -0.5089 
     44 N          23.8400  -29.4149  -41.8933 N.am      7 UNK        -0.4243 
     45 CA         24.6982  -29.9551  -42.9497 C.3       7 UNK         0.0196 
     46 CB         24.5625  -29.0555  -44.1924 C.3       7 UNK        -0.2007 
     47 C          24.4032  -31.4365  -43.2606 C.2       7 UNK         0.5020 
     48 O          23.8414  -31.7474  -44.3124 O.2       7 UNK        -0.5147 
     49 N          24.7697  -32.3217  -42.3236 N.am      8 UNK        -0.4734 
     50 CA         24.6434  -33.7900  -42.3124 C.3       8 UNK         0.0238 
     51 CB         25.3925  -34.4358  -43.4946 C.3       8 UNK        -0.1912 
     52 C          23.1958  -34.3065  -42.2202 C.2       8 UNK         0.5038 
     53 O          22.9307  -35.2055  -41.4206 O.2       8 UNK        -0.5046 
     54 N          22.2957  -33.7092  -43.0068 N.am      9 UNK        -0.4200 
     55 CA         20.8457  -33.9447  -43.0419 C.3       9 UNK         0.0839 
     56 C          20.4576  -35.3591  -43.5702 C.2       9 UNK         0.5513 
     57 N          19.2071  -35.7752  -43.4145 N.am      9 UNK        -0.7519 
     58 O          21.2620  -36.0709  -44.1691 O.2       9 UNK        -0.4960 
     59 C59        20.1352  -33.5588  -41.7058 C.3       10 UNK        -0.0876 
     60 S60        20.6602  -31.9751  -40.9510 S.3       10 UNK        -0.2414 
     61 C61        20.5171  -30.7918  -42.3267 C.3       10 UNK         0.0169 
     62 H62        20.9367  -27.6532  -50.5683 H         1 UNK         0.0903 
     63 H63        19.8634  -26.3820  -49.9805 H         1 UNK         0.0903 
     64 H64        21.6037  -26.2576  -49.7171 H         1 UNK         0.0903 
     65 H65        18.7645  -26.9993  -48.1437 H         1 UNK         0.3096 
     66 H66        19.4592  -29.2382  -46.5156 H         1 UNK         0.1121 
     67 H67        17.5549  -28.0514  -45.0040 H         1 UNK         0.0849 
     68 H68        17.3390  -27.0579  -46.3868 H         1 UNK         0.0849 
     69 H69        16.0404  -31.4425  -45.9259 H         1 UNK         0.0865 
     70 H70        17.7093  -31.4305  -46.4235 H         1 UNK         0.0865 
     71 H71        19.3523  -31.3557  -44.7277 H         1 UNK         0.1346 
     72 H72        18.5266  -29.6368  -40.8948 H         1 UNK         0.1412 
     73 H73        15.4906  -29.6760  -43.9242 H         1 UNK         0.1426 
     74 H74        16.2345  -28.8561  -40.3821 H         1 UNK         0.0716 
     75 H75        14.9715  -28.9916  -41.5807 H         1 UNK         0.0716 
     76 H76        17.0422  -26.7744  -39.6574 H         1 UNK         0.0695 
     77 H77        17.0548  -25.2452  -40.4845 H         1 UNK         0.0695 
     78 H78        19.0814  -27.5041  -40.8564 H         1 UNK         0.0983 
     79 H79        18.5174  -25.5858  -42.7770 H         1 UNK         0.3095 
     80 H80        20.2788  -24.4818  -44.1374 H         1 UNK         0.0454 
     81 H81        22.7177  -26.3164  -44.4302 H         1 UNK         0.0851 
     82 H82        22.7131  -24.6679  -43.8160 H         1 UNK         0.0851 
     83 H83        22.3216  -24.9728  -45.4982 H         1 UNK         0.0851 
     84 H84        19.3446  -25.7616  -45.6916 H         1 UNK         0.2976 
     85 H85        19.7104  -24.0413  -40.6558 H         1 UNK         0.3116 
     86 H86        20.3519  -23.9640  -37.8536 H         1 UNK         0.0646 
     87 H87        21.1203  -22.0612  -40.1345 H         1 UNK         0.0847 
     88 H88        21.2776  -21.7171  -38.4185 H         1 UNK         0.0847 
     89 H89        19.6832  -21.9337  -39.1183 H         1 UNK         0.0847 
     90 H90        22.2154  -24.8106  -40.7357 H         1 UNK         0.3040 
     91 H91        24.8124  -24.7189  -39.3360 H         1 UNK         0.1015 
     92 H92        24.1154  -25.6912  -42.1593 H         1 UNK         0.0786 
     93 H93        25.7217  -25.3981  -41.5175 H         1 UNK         0.0786 
     94 H94        24.6246  -24.0481  -41.7604 H         1 UNK         0.0786 
     95 H95        22.3553  -27.0179  -40.3407 H         1 UNK         0.3172 
     96 H96        21.9307  -29.1642  -40.0081 H         1 UNK         0.0595 
     97 H97        24.0400  -29.1709  -37.7866 H         1 UNK         0.0839 
     98 H98        22.8081  -30.3917  -38.0615 H         1 UNK         0.0839 
     99 H99        22.3348  -28.7687  -37.5830 H         1 UNK         0.0839 
    100 H100       23.1527  -28.7346  -42.1882 H         1 UNK         0.2998 
    101 H101       25.7346  -29.8950  -42.6104 H         1 UNK         0.0822 
    102 H102       24.8547  -28.0281  -43.9737 H         1 UNK         0.0787 
    103 H103       25.2021  -29.4085  -45.0024 H         1 UNK         0.0787 
    104 H104       23.5387  -29.0391  -44.5694 H         1 UNK         0.0787 
    105 H105       25.0985  -31.9161  -41.4504 H         1 UNK         0.3055 
    106 H106       25.1411  -34.1162  -41.3973 H         1 UNK         0.1106 
    107 H107       25.3731  -35.5237  -43.4171 H         1 UNK         0.0828 
    108 H108       24.9474  -34.1745  -44.4550 H         1 UNK         0.0828 
    109 H109       26.4387  -34.1312  -43.5154 H         1 UNK         0.0828 
    110 H110       22.6502  -32.9990  -43.6417 H         1 UNK         0.2931 
    111 H111       20.4816  -33.2692  -43.8144 H         1 UNK         0.0412 
    112 H112       18.5149  -35.2041  -42.9564 H         1 UNK         0.3472 
    113 H113       18.9481  -36.6818  -43.7721 H         1 UNK         0.3472 
    114 H114       20.2946  -34.3404  -40.9609 H         1 UNK         0.0970 
    115 H115       19.0561  -33.5015  -41.8550 H         1 UNK         0.0970 
    116 H116       20.9318  -29.8347  -42.0114 H         1 UNK         0.0612 
    117 H117       21.1337  -31.1110  -43.1670 H         1 UNK         0.0612 
@<TRIPOS>BOND
     1    1    2 1    
     2    1   62 1    
     3    1   63 1    
     4    1   64 1    
     5    2    3 2    
     6    2    4 am   BACKBONE|DICT|INTERRES
     7    4    5 1    
     8    4   65 1    
     9    5    6 1    
    10    5   25 1    
    11    5   66 1    
    12    6    7 1    
    13    6   67 1    
    14    6   68 1    
    15    7    8 1    
    16    8    9 1    
    17    8   69 1    
    18    8   70 1    
    19    9   10 ar   
    20    9   14 ar   
    21   10   11 ar   
    22   10   71 1    
    23   11   12 ar   
    24   11   61 1    
    25   12   13 ar   
    26   12   72 1    
    27   13   14 ar   
    28   13   15 1    
    29   14   73 1    
    30   15   16 1    
    31   15   74 1    
    32   15   75 1    
    33   16   17 1    
    34   17   18 1    
    35   17   76 1    
    36   17   77 1    
    37   18   19 1    
    38   18   27 1    
    39   18   78 1    
    40   19   20 am   BACKBONE|DICT|INTERRES
    41   19   79 1    
    42   20   21 2    
    43   20   22 1    
    44   22   23 1    
    45   22   24 1    
    46   22   80 1    
    47   23   81 1    
    48   23   82 1    
    49   23   83 1    
    50   24   25 am   BACKBONE|DICT|INTERRES
    51   24   84 1    
    52   25   26 2    
    53   27   28 2    
    54   27   29 am   BACKBONE|DICT|INTERRES
    55   29   30 1    
    56   29   85 1    
    57   30   31 1    
    58   30   32 1    
    59   30   86 1    
    60   31   87 1    
    61   31   88 1    
    62   31   89 1    
    63   32   33 2    
    64   32   34 am   BACKBONE|DICT|INTERRES
    65   34   35 1    
    66   34   90 1    
    67   35   36 1    
    68   35   37 1    
    69   35   91 1    
    70   36   92 1    
    71   36   93 1    
    72   36   94 1    
    73   37   38 2    
    74   37   39 am   BACKBONE|DICT|INTERRES
    75   39   40 1    
    76   39   95 1    
    77   40   41 1    
    78   40   42 1    
    79   40   96 1    
    80   41   97 1    
    81   41   98 1    
    82   41   99 1    
    83   42   43 2    
    84   42   44 am   BACKBONE|DICT|INTERRES
    85   44   45 1    
    86   44  100 1    
    87   45   46 1    
    88   45   47 1    
    89   45  101 1    
    90   46  102 1    
    91   46  103 1    
    92   46  104 1    
    93   47   48 2    
    94   47   49 am   BACKBONE|DICT|INTERRES
    95   49   50 1    
    96   49  105 1    
    97   50   51 1    
    98   50   52 1    
    99   50  106 1    
   100   51  107 1    
   101   51  108 1    
   102   51  109 1    
   103   52   53 2    
   104   52   54 am   BACKBONE|DICT|INTERRES
   105   54   55 1    
   106   54  110 1    
   107   55   56 1    
   108   55   59 1    
   109   55  111 1    
   110   56   57 am   BACKBONE|DICT|INTERRES
   111   56   58 2    
   112   57  112 1    
   113   57  113 1    
   114   59   60 1    
   115   59  114 1    
   116   59  115 1    
   117   60   61 1    
   118   61  116 1    
   119   61  117 1    
@<TRIPOS>SUBSTRUCTURE
     1 UNK         1 GROUP             0       ****    0 ROOT    
