@<TRIPOS>MOLECULE
3R8
117   119    1
SMALL
USER_CHARGES


@<TRIPOS>ATOM
      1 CA         11.7108  -24.1273  -46.4431 C.3       0 UNK        -0.2013 
      2 C          12.8275  -25.1158  -46.1420 C.2       0 UNK         0.4866 
      3 O          12.7387  -26.2794  -46.5347 O.2       0 UNK        -0.5176 
      4 N          13.8775  -24.6635  -45.4505 N.am      1 UNK        -0.4884 
      5 CA         15.0602  -25.4432  -45.0921 C.3       1 UNK         0.0853 
      6 C6         14.8111  -26.3256  -43.8389 C.3       10 UNK        -0.0849 
      7 S7         16.0605  -27.6409  -43.6371 S.3       10 UNK        -0.2776 
      8 C8         16.9250  -27.0794  -42.1258 C.3       10 UNK         0.0316 
      9 C9         18.2161  -27.8299  -41.7863 C.ar      10 UNK        -0.0863 
     10 C10        18.5455  -29.0706  -42.3505 C.ar      10 UNK        -0.1009 
     11 C11        19.7409  -29.7140  -42.0184 C.ar      10 UNK        -0.0712 
     12 C12        20.6122  -29.1177  -41.1057 C.ar      10 UNK        -0.0894 
     13 C13        20.2980  -27.8871  -40.5242 C.ar      10 UNK        -0.0745 
     14 C14        19.0987  -27.2530  -40.8655 C.ar      10 UNK        -0.0972 
     15 C15        21.2652  -27.2372  -39.5437 C.3       10 UNK         0.0209 
     16 S16        22.7342  -26.5570  -40.3824 S.3       10 UNK        -0.2568 
     17 C17        22.0113  -25.2277  -41.4015 C.3       10 UNK        -0.0983 
     18 CA         21.6615  -25.7010  -42.8386 C.3       3 UNK         0.0876 
     19 N          20.6163  -24.8610  -43.4259 N.am      3 UNK        -0.4424 
     20 C          19.7382  -25.2685  -44.3478 C.2       2 UNK         0.4918 
     21 O          19.7317  -26.3991  -44.8425 O.2       2 UNK        -0.4875 
     22 CA         18.7020  -24.2393  -44.8060 C.3       2 UNK         0.0481 
     23 CB         19.1683  -23.5110  -46.0778 C.3       2 UNK        -0.1831 
     24 N          17.4558  -24.9508  -45.0619 N.am      2 UNK        -0.4498 
     25 C          16.2256  -24.4568  -44.8975 C.2       1 UNK         0.5027 
     26 O          15.9895  -23.2843  -44.5890 O.2       1 UNK        -0.4969 
     27 C          22.8709  -25.8001  -43.7930 C.2       3 UNK         0.5005 
     28 O          23.9151  -25.1924  -43.5489 O.2       3 UNK        -0.5279 
     29 N          22.6840  -26.5395  -44.8961 N.am      4 UNK        -0.4463 
     30 CA         23.6925  -26.7941  -45.9308 C.3       4 UNK         0.0283 
     31 CB         23.0090  -27.4209  -47.1564 C.3       4 UNK        -0.1875 
     32 C          24.8543  -27.6829  -45.4488 C.2       4 UNK         0.4949 
     33 O          25.9579  -27.5792  -45.9847 O.2       4 UNK        -0.5039 
     34 N          24.5900  -28.5226  -44.4434 N.am      5 UNK        -0.4663 
     35 CA         25.5651  -29.3178  -43.7083 C.3       5 UNK         0.0242 
     36 CB         25.5819  -30.7538  -44.2545 C.3       5 UNK        -0.1982 
     37 C          25.1408  -29.2832  -42.2377 C.2       5 UNK         0.5017 
     38 O          23.9379  -29.3117  -41.9655 O.2       5 UNK        -0.5012 
     39 N          26.1208  -29.2121  -41.3280 N.am      6 UNK        -0.4439 
     40 CA         25.9449  -29.0117  -39.8858 C.3       6 UNK         0.0297 
     41 CB         27.3064  -28.6445  -39.2666 C.3       6 UNK        -0.2006 
     42 C          25.2911  -30.2134  -39.1768 C.2       6 UNK         0.4892 
     43 O          25.9877  -31.0048  -38.5390 O.2       6 UNK        -0.5089 
     44 N          23.9626  -30.3188  -39.3194 N.am      7 UNK        -0.4243 
     45 CA         23.0723  -31.3410  -38.7515 C.3       7 UNK         0.0196 
     46 CB         23.0083  -31.2135  -37.2147 C.3       7 UNK        -0.2007 
     47 C          23.4002  -32.7728  -39.2225 C.2       7 UNK         0.5020 
     48 O          23.1977  -33.7292  -38.4733 O.2       7 UNK        -0.5147 
     49 N          23.9013  -32.8989  -40.4596 N.am      8 UNK        -0.4734 
     50 CA         24.2783  -34.1780  -41.0715 C.3       8 UNK         0.0238 
     51 CB         25.2625  -33.9138  -42.2219 C.3       8 UNK        -0.1912 
     52 C          23.0730  -34.9917  -41.5756 C.2       8 UNK         0.5038 
     53 O          23.1988  -36.2047  -41.7494 O.2       8 UNK        -0.5046 
     54 N          21.9454  -34.3139  -41.8222 N.am      9 UNK        -0.4200 
     55 CA         20.6708  -34.9082  -42.2415 C.3       9 UNK         0.0839 
     56 C          19.9918  -35.7639  -41.1343 C.2       9 UNK         0.5513 
     57 N          19.1400  -36.7046  -41.5201 N.am      9 UNK        -0.7519 
     58 O          20.2037  -35.5712  -39.9389 O.2       9 UNK        -0.4960 
     59 C59        19.7149  -33.8374  -42.8320 C.3       10 UNK        -0.0876 
     60 S60        19.3732  -32.4285  -41.7163 S.3       10 UNK        -0.2414 
     61 C61        20.0916  -31.0481  -42.6569 C.3       10 UNK         0.0169 
     62 H62        11.9196  -23.1391  -46.0337 H         1 UNK         0.0903 
     63 H63        11.5784  -24.0271  -47.5200 H         1 UNK         0.0903 
     64 H64        10.7725  -24.4796  -46.0156 H         1 UNK         0.0903 
     65 H65        13.9422  -23.6883  -45.1805 H         1 UNK         0.3096 
     66 H66        15.3084  -26.0843  -45.9417 H         1 UNK         0.1121 
     67 H67        14.7397  -25.7169  -42.9354 H         1 UNK         0.0849 
     68 H68        13.8470  -26.8286  -43.9277 H         1 UNK         0.0849 
     69 H69        17.1567  -26.0189  -42.2368 H         1 UNK         0.0865 
     70 H70        16.2410  -27.1619  -41.2800 H         1 UNK         0.0865 
     71 H71        17.8795  -29.5499  -43.0533 H         1 UNK         0.1346 
     72 H72        21.5437  -29.6045  -40.8604 H         1 UNK         0.1412 
     73 H73        18.8567  -26.2974  -40.4201 H         1 UNK         0.1426 
     74 H74        20.7730  -26.4466  -38.9752 H         1 UNK         0.0716 
     75 H75        21.5902  -27.9800  -38.8136 H         1 UNK         0.0716 
     76 H76        21.1132  -24.8750  -40.8921 H         1 UNK         0.0695 
     77 H77        22.6908  -24.3737  -41.4124 H         1 UNK         0.0695 
     78 H78        21.2570  -26.7118  -42.7600 H         1 UNK         0.0983 
     79 H79        20.5841  -23.9035  -43.1069 H         1 UNK         0.3095 
     80 H80        18.5513  -23.5133  -44.0040 H         1 UNK         0.0454 
     81 H81        19.3308  -24.2059  -46.9028 H         1 UNK         0.0851 
     82 H82        18.4360  -22.7718  -46.4024 H         1 UNK         0.0851 
     83 H83        20.1069  -22.9830  -45.9052 H         1 UNK         0.0851 
     84 H84        17.5771  -25.9389  -45.2537 H         1 UNK         0.2976 
     85 H85        21.7596  -26.9306  -45.0462 H         1 UNK         0.3116 
     86 H86        24.1165  -25.8331  -46.2297 H         1 UNK         0.0646 
     87 H87        23.7285  -27.5944  -47.9579 H         1 UNK         0.0847 
     88 H88        22.2324  -26.7684  -47.5560 H         1 UNK         0.0847 
     89 H89        22.5510  -28.3814  -46.9167 H         1 UNK         0.0847 
     90 H90        23.6695  -28.5072  -44.0223 H         1 UNK         0.3040 
     91 H91        26.5589  -28.8742  -43.8052 H         1 UNK         0.1015 
     92 H92        25.8760  -30.7725  -45.3041 H         1 UNK         0.0786 
     93 H93        24.6012  -31.2244  -44.1751 H         1 UNK         0.0786 
     94 H94        26.2943  -31.3721  -43.7072 H         1 UNK         0.0786 
     95 H95        27.0768  -29.2418  -41.6526 H         1 UNK         0.3172 
     96 H96        25.2845  -28.1534  -39.7457 H         1 UNK         0.0595 
     97 H97        27.2139  -28.4797  -38.1921 H         1 UNK         0.0839 
     98 H98        27.7056  -27.7266  -39.6984 H         1 UNK         0.0839 
     99 H99        28.0451  -29.4340  -39.4116 H         1 UNK         0.0839 
    100 H100       23.5361  -29.6634  -39.9658 H         1 UNK         0.2998 
    101 H101       22.0737  -31.1276  -39.1344 H         1 UNK         0.0822 
    102 H102       22.7527  -30.1981  -36.9116 H         1 UNK         0.0787 
    103 H103       22.2481  -31.8750  -36.7975 H         1 UNK         0.0787 
    104 H104       23.9583  -31.4747  -36.7474 H         1 UNK         0.0787 
    105 H105       24.0540  -32.0614  -41.0035 H         1 UNK         0.3055 
    106 H106       24.7880  -34.7847  -40.3191 H         1 UNK         0.1106 
    107 H107       25.6308  -34.8515  -42.6405 H         1 UNK         0.0828 
    108 H108       24.7915  -33.3612  -43.0346 H         1 UNK         0.0828 
    109 H109       26.1312  -33.3487  -41.8834 H         1 UNK         0.0828 
    110 H110       21.9204  -33.3306  -41.6018 H         1 UNK         0.2931 
    111 H111       20.9104  -35.5971  -43.0546 H         1 UNK         0.0412 
    112 H112       18.6792  -37.2649  -40.8196 H         1 UNK         0.3472 
    113 H113       18.9537  -36.8731  -42.4968 H         1 UNK         0.3472 
    114 H114       18.7618  -34.2882  -43.1146 H         1 UNK         0.0970 
    115 H115       20.1372  -33.4630  -43.7657 H         1 UNK         0.0970 
    116 H116       19.7193  -31.0711  -43.6823 H         1 UNK         0.0612 
    117 H117       21.1746  -31.1701  -42.7158 H         1 UNK         0.0612 
@<TRIPOS>BOND
     1    1    2 1    
     2    1   62 1    
     3    1   63 1    
     4    1   64 1    
     5    2    3 2    
     6    2    4 am   BACKBONE|DICT|INTERRES
     7    4    5 1    
     8    4   65 1    
     9    5    6 1    
    10    5   25 1    
    11    5   66 1    
    12    6    7 1    
    13    6   67 1    
    14    6   68 1    
    15    7    8 1    
    16    8    9 1    
    17    8   69 1    
    18    8   70 1    
    19    9   10 ar   
    20    9   14 ar   
    21   10   11 ar   
    22   10   71 1    
    23   11   12 ar   
    24   11   61 1    
    25   12   13 ar   
    26   12   72 1    
    27   13   14 ar   
    28   13   15 1    
    29   14   73 1    
    30   15   16 1    
    31   15   74 1    
    32   15   75 1    
    33   16   17 1    
    34   17   18 1    
    35   17   76 1    
    36   17   77 1    
    37   18   19 1    
    38   18   27 1    
    39   18   78 1    
    40   19   20 am   BACKBONE|DICT|INTERRES
    41   19   79 1    
    42   20   21 2    
    43   20   22 1    
    44   22   23 1    
    45   22   24 1    
    46   22   80 1    
    47   23   81 1    
    48   23   82 1    
    49   23   83 1    
    50   24   25 am   BACKBONE|DICT|INTERRES
    51   24   84 1    
    52   25   26 2    
    53   27   28 2    
    54   27   29 am   BACKBONE|DICT|INTERRES
    55   29   30 1    
    56   29   85 1    
    57   30   31 1    
    58   30   32 1    
    59   30   86 1    
    60   31   87 1    
    61   31   88 1    
    62   31   89 1    
    63   32   33 2    
    64   32   34 am   BACKBONE|DICT|INTERRES
    65   34   35 1    
    66   34   90 1    
    67   35   36 1    
    68   35   37 1    
    69   35   91 1    
    70   36   92 1    
    71   36   93 1    
    72   36   94 1    
    73   37   38 2    
    74   37   39 am   BACKBONE|DICT|INTERRES
    75   39   40 1    
    76   39   95 1    
    77   40   41 1    
    78   40   42 1    
    79   40   96 1    
    80   41   97 1    
    81   41   98 1    
    82   41   99 1    
    83   42   43 2    
    84   42   44 am   BACKBONE|DICT|INTERRES
    85   44   45 1    
    86   44  100 1    
    87   45   46 1    
    88   45   47 1    
    89   45  101 1    
    90   46  102 1    
    91   46  103 1    
    92   46  104 1    
    93   47   48 2    
    94   47   49 am   BACKBONE|DICT|INTERRES
    95   49   50 1    
    96   49  105 1    
    97   50   51 1    
    98   50   52 1    
    99   50  106 1    
   100   51  107 1    
   101   51  108 1    
   102   51  109 1    
   103   52   53 2    
   104   52   54 am   BACKBONE|DICT|INTERRES
   105   54   55 1    
   106   54  110 1    
   107   55   56 1    
   108   55   59 1    
   109   55  111 1    
   110   56   57 am   BACKBONE|DICT|INTERRES
   111   56   58 2    
   112   57  112 1    
   113   57  113 1    
   114   59   60 1    
   115   59  114 1    
   116   59  115 1    
   117   60   61 1    
   118   61  116 1    
   119   61  117 1    
@<TRIPOS>SUBSTRUCTURE
     1 UNK         1 GROUP             0       ****    0 ROOT    
