@<TRIPOS>MOLECULE
3R8
117   119    1
SMALL
USER_CHARGES


@<TRIPOS>ATOM
      1 CA         13.6716  -27.2113  -48.5657 C.3       0 UNK        -0.2013 
      2 C          15.0375  -27.6985  -48.1054 C.2       0 UNK         0.4866 
      3 O          15.9704  -27.7556  -48.9076 O.2       0 UNK        -0.5176 
      4 N          15.1601  -28.0597  -46.8227 N.am      1 UNK        -0.4884 
      5 CA         16.4111  -28.4791  -46.1840 C.3       1 UNK         0.0853 
      6 C6         16.1595  -29.2660  -44.8681 C.3       10 UNK        -0.0849 
      7 S7         14.9749  -28.4946  -43.7024 S.3       10 UNK        -0.2776 
      8 C8         16.0566  -27.5548  -42.5611 C.3       10 UNK         0.0316 
      9 C9         16.8986  -28.3658  -41.5703 C.ar      10 UNK        -0.0863 
     10 C10        16.9367  -29.7663  -41.5566 C.ar      10 UNK        -0.1009 
     11 C11        17.7630  -30.4515  -40.6614 C.ar      10 UNK        -0.0712 
     12 C12        18.5274  -29.7334  -39.7386 C.ar      10 UNK        -0.0894 
     13 C13        18.4780  -28.3378  -39.7149 C.ar      10 UNK        -0.0745 
     14 C14        17.6694  -27.6641  -40.6365 C.ar      10 UNK        -0.0972 
     15 C15        19.2798  -27.5621  -38.6773 C.3       10 UNK         0.0209 
     16 S16        21.0473  -27.4446  -39.1028 S.3       10 UNK        -0.2568 
     17 C17        21.0015  -26.4221  -40.6089 C.3       10 UNK        -0.0983 
     18 CA         21.3645  -27.2403  -41.8754 C.3       3 UNK         0.0876 
     19 N          20.6788  -26.7175  -43.0594 N.am      3 UNK        -0.4424 
     20 C          20.4222  -27.4422  -44.1525 C.2       2 UNK         0.4918 
     21 O          20.7230  -28.6303  -44.2835 O.2       2 UNK        -0.4875 
     22 CA         19.7000  -26.7232  -45.2950 C.3       2 UNK         0.0481 
     23 CB         20.6740  -26.4009  -46.4397 C.3       2 UNK        -0.1831 
     24 N          18.6558  -27.6214  -45.7721 N.am      2 UNK        -0.4498 
     25 C          17.3715  -27.2944  -45.9501 C.2       1 UNK         0.5027 
     26 O          16.9373  -26.1410  -45.8788 O.2       1 UNK        -0.4969 
     27 C          22.8910  -27.2883  -42.0872 C.2       3 UNK         0.5005 
     28 O          23.5354  -28.2645  -41.6977 O.2       3 UNK        -0.5279 
     29 N          23.4327  -26.2091  -42.6796 N.am      4 UNK        -0.4463 
     30 CA         24.8600  -25.9162  -42.8898 C.3       4 UNK         0.0283 
     31 CB         25.4877  -26.9167  -43.8793 C.3       4 UNK        -0.1875 
     32 C          25.6678  -25.8152  -41.5781 C.2       4 UNK         0.4949 
     33 O          26.8697  -26.0838  -41.5802 O.2       4 UNK        -0.5039 
     34 N          24.9844  -25.4491  -40.4810 N.am      5 UNK        -0.4663 
     35 CA         25.4738  -25.4052  -39.0948 C.3       5 UNK         0.0242 
     36 CB         26.5332  -24.2953  -38.9221 C.3       5 UNK        -0.1982 
     37 C          25.9526  -26.7753  -38.5651 C.2       5 UNK         0.5017 
     38 O          26.7974  -26.8220  -37.6688 O.2       5 UNK        -0.5012 
     39 N          25.4065  -27.8623  -39.1231 N.am      6 UNK        -0.4439 
     40 CA         25.7303  -29.2432  -38.7901 C.3       6 UNK         0.0297 
     41 CB         26.9226  -29.7187  -39.6494 C.3       6 UNK        -0.2006 
     42 C          24.4472  -30.0672  -38.9547 C.2       6 UNK         0.4892 
     43 O          23.5158  -29.8796  -38.1713 O.2       6 UNK        -0.5089 
     44 N          24.4101  -30.9441  -39.9623 N.am      7 UNK        -0.4243 
     45 CA         23.2492  -31.7381  -40.3487 C.3       7 UNK         0.0196 
     46 CB         23.0703  -32.9420  -39.4000 C.3       7 UNK        -0.2007 
     47 C          23.4127  -32.1443  -41.8179 C.2       7 UNK         0.5020 
     48 O          23.5016  -33.3335  -42.1242 O.2       7 UNK        -0.5147 
     49 N          23.4847  -31.1447  -42.7087 N.am      8 UNK        -0.4734 
     50 CA         23.5861  -31.3465  -44.1636 C.3       8 UNK         0.0238 
     51 CB         24.0663  -30.0466  -44.8262 C.3       8 UNK        -0.1912 
     52 C          22.2875  -31.8511  -44.8263 C.2       8 UNK         0.5038 
     53 O          22.3202  -32.2402  -45.9951 O.2       8 UNK        -0.5046 
     54 N          21.1803  -31.8270  -44.0781 N.am      9 UNK        -0.4200 
     55 CA         19.8569  -32.3403  -44.4422 C.3       9 UNK         0.0839 
     56 C          19.8270  -33.8568  -44.7884 C.2       9 UNK         0.5513 
     57 N          18.8653  -34.2821  -45.5970 N.am      9 UNK        -0.7519 
     58 O          20.6355  -34.6524  -44.3145 O.2       9 UNK        -0.4960 
     59 C59        18.8217  -31.9707  -43.3493 C.3       10 UNK        -0.0876 
     60 S60        19.2681  -32.5432  -41.6684 S.3       10 UNK        -0.2414 
     61 C61        17.8374  -31.9699  -40.7011 C.3       10 UNK         0.0169 
     62 H62        13.2990  -27.8438  -49.3710 H         1 UNK         0.0903 
     63 H63        13.7445  -26.1903  -48.9396 H         1 UNK         0.0903 
     64 H64        12.9403  -27.2250  -47.7577 H         1 UNK         0.0903 
     65 H65        14.3742  -27.9639  -46.1942 H         1 UNK         0.3096 
     66 H66        16.9159  -29.1554  -46.8785 H         1 UNK         0.1121 
     67 H67        17.0985  -29.4756  -44.3551 H         1 UNK         0.0849 
     68 H68        15.7533  -30.2462  -45.1225 H         1 UNK         0.0849 
     69 H69        16.7178  -26.9127  -43.1432 H         1 UNK         0.0865 
     70 H70        15.4156  -26.8827  -41.9886 H         1 UNK         0.0865 
     71 H71        16.3432  -30.3405  -42.2522 H         1 UNK         0.1346 
     72 H72        19.1638  -30.2603  -39.0405 H         1 UNK         0.1412 
     73 H73        17.6352  -26.5831  -40.6239 H         1 UNK         0.1426 
     74 H74        18.8725  -26.5586  -38.5441 H         1 UNK         0.0716 
     75 H75        19.1868  -28.0555  -37.7088 H         1 UNK         0.0716 
     76 H76        21.6574  -25.5605  -40.4712 H         1 UNK         0.0695 
     77 H77        20.0012  -25.9988  -40.7026 H         1 UNK         0.0695 
     78 H78        21.0234  -28.2692  -41.7306 H         1 UNK         0.0983 
     79 H79        20.3787  -25.7540  -43.0267 H         1 UNK         0.3095 
     80 H80        19.2692  -25.7935  -44.9172 H         1 UNK         0.0454 
     81 H81        20.1628  -25.9042  -47.2644 H         1 UNK         0.0851 
     82 H82        21.1479  -27.3010  -46.8338 H         1 UNK         0.0851 
     83 H83        21.4687  -25.7348  -46.1016 H         1 UNK         0.0851 
     84 H84        18.9315  -28.5947  -45.7967 H         1 UNK         0.2976 
     85 H85        22.8013  -25.4761  -42.9713 H         1 UNK         0.3116 
     86 H86        24.9024  -24.9276  -43.3493 H         1 UNK         0.0646 
     87 H87        24.8747  -27.0398  -44.7718 H         1 UNK         0.0847 
     88 H88        26.4715  -26.5777  -44.2056 H         1 UNK         0.0847 
     89 H89        25.6229  -27.8936  -43.4162 H         1 UNK         0.0847 
     90 H90        24.0047  -25.2354  -40.6002 H         1 UNK         0.3040 
     91 H91        24.6151  -25.1367  -38.4770 H         1 UNK         0.1015 
     92 H92        27.4570  -24.5309  -39.4512 H         1 UNK         0.0786 
     93 H93        26.7885  -24.1570  -37.8707 H         1 UNK         0.0786 
     94 H94        26.1688  -23.3373  -39.2927 H         1 UNK         0.0786 
     95 H95        24.7009  -27.7456  -39.8426 H         1 UNK         0.3172 
     96 H96        26.0116  -29.3129  -37.7373 H         1 UNK         0.0595 
     97 H97        27.8188  -29.1413  -39.4212 H         1 UNK         0.0839 
     98 H98        26.7294  -29.6066  -40.7174 H         1 UNK         0.0839 
     99 H99        27.1622  -30.7648  -39.4538 H         1 UNK         0.0839 
    100 H100       25.2137  -31.0173  -40.5713 H         1 UNK         0.2998 
    101 H101       22.3546  -31.1134  -40.2877 H         1 UNK         0.0822 
    102 H102       22.2162  -33.5503  -39.7011 H         1 UNK         0.0787 
    103 H103       23.9498  -33.5869  -39.3977 H         1 UNK         0.0787 
    104 H104       22.8887  -32.6193  -38.3749 H         1 UNK         0.0787 
    105 H105       23.4456  -30.1837  -42.3770 H         1 UNK         0.3055 
    106 H106       24.3406  -32.1144  -44.3490 H         1 UNK         0.1106 
    107 H107       25.0810  -29.8072  -44.5127 H         1 UNK         0.0828 
    108 H108       24.0845  -30.1375  -45.9132 H         1 UNK         0.0828 
    109 H109       23.4197  -29.2038  -44.5803 H         1 UNK         0.0828 
    110 H110       21.2668  -31.4961  -43.1300 H         1 UNK         0.2931 
    111 H111       19.5741  -31.8065  -45.3518 H         1 UNK         0.0412 
    112 H112       18.1916  -33.6444  -45.9918 H         1 UNK         0.3472 
    113 H113       18.8180  -35.2630  -45.8261 H         1 UNK         0.3472 
    114 H114       18.7358  -30.8844  -43.3181 H         1 UNK         0.0970 
    115 H115       17.8290  -32.3442  -43.6072 H         1 UNK         0.0970 
    116 H116       16.9225  -32.3917  -41.1201 H         1 UNK         0.0612 
    117 H117       17.9183  -32.3610  -39.6859 H         1 UNK         0.0612 
@<TRIPOS>BOND
     1    1    2 1    
     2    1   62 1    
     3    1   63 1    
     4    1   64 1    
     5    2    3 2    
     6    2    4 am   BACKBONE|DICT|INTERRES
     7    4    5 1    
     8    4   65 1    
     9    5    6 1    
    10    5   25 1    
    11    5   66 1    
    12    6    7 1    
    13    6   67 1    
    14    6   68 1    
    15    7    8 1    
    16    8    9 1    
    17    8   69 1    
    18    8   70 1    
    19    9   10 ar   
    20    9   14 ar   
    21   10   11 ar   
    22   10   71 1    
    23   11   12 ar   
    24   11   61 1    
    25   12   13 ar   
    26   12   72 1    
    27   13   14 ar   
    28   13   15 1    
    29   14   73 1    
    30   15   16 1    
    31   15   74 1    
    32   15   75 1    
    33   16   17 1    
    34   17   18 1    
    35   17   76 1    
    36   17   77 1    
    37   18   19 1    
    38   18   27 1    
    39   18   78 1    
    40   19   20 am   BACKBONE|DICT|INTERRES
    41   19   79 1    
    42   20   21 2    
    43   20   22 1    
    44   22   23 1    
    45   22   24 1    
    46   22   80 1    
    47   23   81 1    
    48   23   82 1    
    49   23   83 1    
    50   24   25 am   BACKBONE|DICT|INTERRES
    51   24   84 1    
    52   25   26 2    
    53   27   28 2    
    54   27   29 am   BACKBONE|DICT|INTERRES
    55   29   30 1    
    56   29   85 1    
    57   30   31 1    
    58   30   32 1    
    59   30   86 1    
    60   31   87 1    
    61   31   88 1    
    62   31   89 1    
    63   32   33 2    
    64   32   34 am   BACKBONE|DICT|INTERRES
    65   34   35 1    
    66   34   90 1    
    67   35   36 1    
    68   35   37 1    
    69   35   91 1    
    70   36   92 1    
    71   36   93 1    
    72   36   94 1    
    73   37   38 2    
    74   37   39 am   BACKBONE|DICT|INTERRES
    75   39   40 1    
    76   39   95 1    
    77   40   41 1    
    78   40   42 1    
    79   40   96 1    
    80   41   97 1    
    81   41   98 1    
    82   41   99 1    
    83   42   43 2    
    84   42   44 am   BACKBONE|DICT|INTERRES
    85   44   45 1    
    86   44  100 1    
    87   45   46 1    
    88   45   47 1    
    89   45  101 1    
    90   46  102 1    
    91   46  103 1    
    92   46  104 1    
    93   47   48 2    
    94   47   49 am   BACKBONE|DICT|INTERRES
    95   49   50 1    
    96   49  105 1    
    97   50   51 1    
    98   50   52 1    
    99   50  106 1    
   100   51  107 1    
   101   51  108 1    
   102   51  109 1    
   103   52   53 2    
   104   52   54 am   BACKBONE|DICT|INTERRES
   105   54   55 1    
   106   54  110 1    
   107   55   56 1    
   108   55   59 1    
   109   55  111 1    
   110   56   57 am   BACKBONE|DICT|INTERRES
   111   56   58 2    
   112   57  112 1    
   113   57  113 1    
   114   59   60 1    
   115   59  114 1    
   116   59  115 1    
   117   60   61 1    
   118   61  116 1    
   119   61  117 1    
@<TRIPOS>SUBSTRUCTURE
     1 UNK         1 GROUP             0       ****    0 ROOT    
