@<TRIPOS>MOLECULE
3R8
117   119    1
SMALL
USER_CHARGES


@<TRIPOS>ATOM
      1 CA         23.5990  -23.4769  -45.4356 C.3       0 UNK        -0.2013 
      2 C          23.0213  -24.4969  -44.4666 C.2       0 UNK         0.4866 
      3 O          23.0005  -24.2529  -43.2608 O.2       0 UNK        -0.5176 
      4 N          22.5508  -25.6391  -44.9837 N.am      1 UNK        -0.4884 
      5 CA         21.9564  -26.7286  -44.1992 C.3       1 UNK         0.0853 
      6 C6         22.0045  -28.0815  -44.9584 C.3       10 UNK        -0.0849 
      7 S7         21.1679  -28.0468  -46.5849 S.3       10 UNK        -0.2776 
      8 C8         20.9400  -29.8185  -46.9458 C.3       10 UNK         0.0316 
      9 C9         19.7653  -30.4329  -46.1929 C.ar      10 UNK        -0.0863 
     10 C10        19.9919  -31.2963  -45.1168 C.ar      10 UNK        -0.1009 
     11 C11        18.9197  -31.8949  -44.4475 C.ar      10 UNK        -0.0712 
     12 C12        17.6134  -31.6367  -44.8702 C.ar      10 UNK        -0.0894 
     13 C13        17.3701  -30.7760  -45.9444 C.ar      10 UNK        -0.0745 
     14 C14        18.4509  -30.1770  -46.6018 C.ar      10 UNK        -0.0972 
     15 C15        15.9388  -30.5050  -46.3932 C.3       10 UNK         0.0209 
     16 S16        15.3260  -28.8741  -45.8537 S.3       10 UNK        -0.2568 
     17 C17        15.4191  -28.9982  -44.0359 C.3       10 UNK        -0.0983 
     18 CA         16.7558  -28.4841  -43.4195 C.3       3 UNK         0.0876 
     19 N          16.9664  -27.0395  -43.5421 N.am      3 UNK        -0.4424 
     20 C          17.6477  -26.4554  -44.5335 C.2       2 UNK         0.4918 
     21 O          17.8143  -26.9391  -45.6521 O.2       2 UNK        -0.4875 
     22 CA         18.4135  -25.1627  -44.1871 C.3       2 UNK         0.0481 
     23 CB         18.0842  -24.5579  -42.8018 C.3       2 UNK        -0.1831 
     24 N          19.8537  -25.4305  -44.3081 N.am      2 UNK        -0.4498 
     25 C          20.5295  -26.4226  -43.6994 C.2       1 UNK         0.5027 
     26 O          20.0507  -27.1192  -42.8006 O.2       1 UNK        -0.4969 
     27 C          16.9004  -28.8486  -41.9240 C.2       3 UNK         0.5005 
     28 O          16.0781  -29.6048  -41.4024 O.2       3 UNK        -0.5279 
     29 N          17.8929  -28.2605  -41.2307 N.am      4 UNK        -0.4463 
     30 CA         18.0446  -28.3680  -39.7699 C.3       4 UNK         0.0283 
     31 CB         16.9107  -27.5866  -39.0648 C.3       4 UNK        -0.1875 
     32 C          19.4120  -27.9140  -39.2184 C.2       4 UNK         0.4949 
     33 O          19.5784  -27.9225  -37.9978 O.2       4 UNK        -0.5039 
     34 N          20.3525  -27.4945  -40.0731 N.am      5 UNK        -0.4663 
     35 CA         21.6360  -26.9099  -39.6814 C.3       5 UNK         0.0242 
     36 CB         21.5677  -25.3922  -39.9427 C.3       5 UNK        -0.1982 
     37 C          22.7983  -27.5596  -40.4484 C.2       5 UNK         0.5017 
     38 O          22.5787  -28.4405  -41.2846 O.2       5 UNK        -0.5012 
     39 N          24.0187  -27.0889  -40.1469 N.am      6 UNK        -0.4439 
     40 CA         25.3124  -27.5056  -40.7063 C.3       6 UNK         0.0297 
     41 CB         25.3530  -27.2519  -42.2310 C.3       6 UNK        -0.2006 
     42 C          25.6841  -28.9578  -40.3493 C.2       6 UNK         0.4892 
     43 O          24.9539  -29.6327  -39.6223 O.2       6 UNK        -0.5089 
     44 N          26.8174  -29.4348  -40.8809 N.am      7 UNK        -0.4243 
     45 CA         27.2703  -30.8247  -40.7361 C.3       7 UNK         0.0196 
     46 CB         28.6968  -30.9520  -41.2951 C.3       7 UNK        -0.2007 
     47 C          26.3335  -31.8477  -41.4096 C.2       7 UNK         0.5020 
     48 O          26.3477  -33.0204  -41.0356 O.2       7 UNK        -0.5147 
     49 N          25.5426  -31.3868  -42.3880 N.am      8 UNK        -0.4734 
     50 CA         24.5707  -32.1876  -43.1273 C.3       8 UNK         0.0238 
     51 CB         24.1994  -31.4516  -44.4254 C.3       8 UNK        -0.1912 
     52 C          23.2979  -32.5206  -42.3309 C.2       8 UNK         0.5038 
     53 O          22.6967  -33.5563  -42.6175 O.2       8 UNK        -0.5046 
     54 N          22.8853  -31.6518  -41.3942 N.am      9 UNK        -0.4200 
     55 CA         21.5771  -31.7489  -40.7233 C.3       9 UNK         0.0839 
     56 C          21.5571  -31.3433  -39.2231 C.2       9 UNK         0.5513 
     57 N          22.6312  -30.8353  -38.6356 N.am      9 UNK        -0.7519 
     58 O          20.5423  -31.5258  -38.5564 O.2       9 UNK        -0.4960 
     59 C59        20.4678  -31.0348  -41.5498 C.3       10 UNK        -0.0876 
     60 S60        18.9378  -32.0182  -41.6749 S.3       10 UNK        -0.2414 
     61 C61        19.1640  -32.8415  -43.2820 C.3       10 UNK         0.0169 
     62 H62        23.5501  -23.8211  -46.4686 H         1 UNK         0.0903 
     63 H63        23.0496  -22.5385  -45.3641 H         1 UNK         0.0903 
     64 H64        24.6429  -23.2797  -45.1931 H         1 UNK         0.0903 
     65 H65        22.5849  -25.7960  -45.9822 H         1 UNK         0.3096 
     66 H66        22.5627  -26.8413  -43.3005 H         1 UNK         0.1121 
     67 H67        23.0449  -28.3637  -45.1240 H         1 UNK         0.0849 
     68 H68        21.5755  -28.8762  -44.3444 H         1 UNK         0.0849 
     69 H69        20.7702  -29.9341  -48.0172 H         1 UNK         0.0865 
     70 H70        21.8658  -30.3546  -46.7306 H         1 UNK         0.0865 
     71 H71        21.0042  -31.5112  -44.8041 H         1 UNK         0.1346 
     72 H72        16.7850  -32.1027  -44.3541 H         1 UNK         0.1412 
     73 H73        18.2677  -29.5050  -47.4295 H         1 UNK         0.1426 
     74 H74        15.2650  -31.2798  -46.0240 H         1 UNK         0.0716 
     75 H75        15.8884  -30.5545  -47.4817 H         1 UNK         0.0716 
     76 H76        15.2477  -30.0441  -43.7755 H         1 UNK         0.0695 
     77 H77        14.5782  -28.4446  -43.6151 H         1 UNK         0.0695 
     78 H78        17.5872  -28.9903  -43.9130 H         1 UNK         0.0983 
     79 H79        16.8593  -26.5281  -42.6781 H         1 UNK         0.3095 
     80 H80        18.1563  -24.4262  -44.9496 H         1 UNK         0.0454 
     81 H81        17.0226  -24.3231  -42.7159 H         1 UNK         0.0851 
     82 H82        18.6260  -23.6239  -42.6524 H         1 UNK         0.0851 
     83 H83        18.3509  -25.2178  -41.9760 H         1 UNK         0.0851 
     84 H84        20.3303  -24.9444  -45.0540 H         1 UNK         0.2976 
     85 H85        18.5851  -27.7126  -41.7357 H         1 UNK         0.3116 
     86 H86        17.9560  -29.4235  -39.5031 H         1 UNK         0.0646 
     87 H87        15.9245  -27.9696  -39.3251 H         1 UNK         0.0847 
     88 H88        16.9370  -26.5275  -39.3230 H         1 UNK         0.0847 
     89 H89        16.9913  -27.6583  -37.9795 H         1 UNK         0.0847 
     90 H90        20.2214  -27.5613  -41.0798 H         1 UNK         0.3040 
     91 H91        21.8265  -27.0813  -38.6197 H         1 UNK         0.1015 
     92 H92        22.4684  -24.8811  -39.6018 H         1 UNK         0.0786 
     93 H93        20.7275  -24.9391  -39.4162 H         1 UNK         0.0786 
     94 H94        21.4507  -25.1720  -41.0046 H         1 UNK         0.0786 
     95 H95        24.0802  -26.3922  -39.4180 H         1 UNK         0.3172 
     96 H96        26.0624  -26.8670  -40.2373 H         1 UNK         0.0595 
     97 H97        24.7329  -27.9611  -42.7800 H         1 UNK         0.0839 
     98 H98        26.3662  -27.3338  -42.6248 H         1 UNK         0.0839 
     99 H99        25.0028  -26.2481  -42.4728 H         1 UNK         0.0839 
    100 H100       27.3886  -28.8262  -41.4495 H         1 UNK         0.2998 
    101 H101       27.2961  -31.0614  -39.6700 H         1 UNK         0.0822 
    102 H102       29.3888  -30.2904  -40.7737 H         1 UNK         0.0787 
    103 H103       29.0730  -31.9692  -41.1760 H         1 UNK         0.0787 
    104 H104       28.7372  -30.7126  -42.3585 H         1 UNK         0.0787 
    105 H105       25.6103  -30.4099  -42.6309 H         1 UNK         0.3055 
    106 H106       25.0437  -33.1354  -43.3953 H         1 UNK         0.1106 
    107 H107       25.0786  -31.2576  -45.0401 H         1 UNK         0.0828 
    108 H108       23.5113  -32.0462  -45.0279 H         1 UNK         0.0828 
    109 H109       23.7132  -30.4981  -44.2199 H         1 UNK         0.0828 
    110 H110       23.4236  -30.8174  -41.2011 H         1 UNK         0.2931 
    111 H111       21.3352  -32.8125  -40.6786 H         1 UNK         0.0412 
    112 H112       23.4776  -30.5944  -39.1445 H         1 UNK         0.3472 
    113 H113       22.5735  -30.6070  -37.6566 H         1 UNK         0.3472 
    114 H114       20.2213  -30.0640  -41.1226 H         1 UNK         0.0970 
    115 H115       20.8179  -30.7997  -42.5535 H         1 UNK         0.0970 
    116 H116       20.1633  -33.2736  -43.3366 H         1 UNK         0.0612 
    117 H117       18.4689  -33.6800  -43.3442 H         1 UNK         0.0612 
@<TRIPOS>BOND
     1    1    2 1    
     2    1   62 1    
     3    1   63 1    
     4    1   64 1    
     5    2    3 2    
     6    2    4 am   BACKBONE|DICT|INTERRES
     7    4    5 1    
     8    4   65 1    
     9    5    6 1    
    10    5   25 1    
    11    5   66 1    
    12    6    7 1    
    13    6   67 1    
    14    6   68 1    
    15    7    8 1    
    16    8    9 1    
    17    8   69 1    
    18    8   70 1    
    19    9   10 ar   
    20    9   14 ar   
    21   10   11 ar   
    22   10   71 1    
    23   11   12 ar   
    24   11   61 1    
    25   12   13 ar   
    26   12   72 1    
    27   13   14 ar   
    28   13   15 1    
    29   14   73 1    
    30   15   16 1    
    31   15   74 1    
    32   15   75 1    
    33   16   17 1    
    34   17   18 1    
    35   17   76 1    
    36   17   77 1    
    37   18   19 1    
    38   18   27 1    
    39   18   78 1    
    40   19   20 am   BACKBONE|DICT|INTERRES
    41   19   79 1    
    42   20   21 2    
    43   20   22 1    
    44   22   23 1    
    45   22   24 1    
    46   22   80 1    
    47   23   81 1    
    48   23   82 1    
    49   23   83 1    
    50   24   25 am   BACKBONE|DICT|INTERRES
    51   24   84 1    
    52   25   26 2    
    53   27   28 2    
    54   27   29 am   BACKBONE|DICT|INTERRES
    55   29   30 1    
    56   29   85 1    
    57   30   31 1    
    58   30   32 1    
    59   30   86 1    
    60   31   87 1    
    61   31   88 1    
    62   31   89 1    
    63   32   33 2    
    64   32   34 am   BACKBONE|DICT|INTERRES
    65   34   35 1    
    66   34   90 1    
    67   35   36 1    
    68   35   37 1    
    69   35   91 1    
    70   36   92 1    
    71   36   93 1    
    72   36   94 1    
    73   37   38 2    
    74   37   39 am   BACKBONE|DICT|INTERRES
    75   39   40 1    
    76   39   95 1    
    77   40   41 1    
    78   40   42 1    
    79   40   96 1    
    80   41   97 1    
    81   41   98 1    
    82   41   99 1    
    83   42   43 2    
    84   42   44 am   BACKBONE|DICT|INTERRES
    85   44   45 1    
    86   44  100 1    
    87   45   46 1    
    88   45   47 1    
    89   45  101 1    
    90   46  102 1    
    91   46  103 1    
    92   46  104 1    
    93   47   48 2    
    94   47   49 am   BACKBONE|DICT|INTERRES
    95   49   50 1    
    96   49  105 1    
    97   50   51 1    
    98   50   52 1    
    99   50  106 1    
   100   51  107 1    
   101   51  108 1    
   102   51  109 1    
   103   52   53 2    
   104   52   54 am   BACKBONE|DICT|INTERRES
   105   54   55 1    
   106   54  110 1    
   107   55   56 1    
   108   55   59 1    
   109   55  111 1    
   110   56   57 am   BACKBONE|DICT|INTERRES
   111   56   58 2    
   112   57  112 1    
   113   57  113 1    
   114   59   60 1    
   115   59  114 1    
   116   59  115 1    
   117   60   61 1    
   118   61  116 1    
   119   61  117 1    
@<TRIPOS>SUBSTRUCTURE
     1 UNK         1 GROUP             0       ****    0 ROOT    
