@<TRIPOS>MOLECULE
3R8
117   119    1
SMALL
USER_CHARGES


@<TRIPOS>ATOM
      1 CA         15.3463  -30.6152  -48.5474 C.3       0 UNK        -0.2013 
      2 C          15.4320  -29.7789  -47.2795 C.2       0 UNK         0.4866 
      3 O          14.5664  -29.8966  -46.4132 O.2       0 UNK        -0.5176 
      4 N          16.4666  -28.9394  -47.1717 N.am      1 UNK        -0.4884 
      5 CA         16.8010  -28.1121  -46.0126 C.3       1 UNK         0.0853 
      6 C6         15.7677  -26.9778  -45.7399 C.3       10 UNK        -0.0849 
      7 S7         15.8854  -26.2201  -44.0773 S.3       10 UNK        -0.2776 
      8 C8         14.8340  -27.3009  -43.0490 C.3       10 UNK         0.0316 
      9 C9         15.6429  -28.4368  -42.4398 C.ar      10 UNK        -0.0863 
     10 C10        15.6354  -29.7046  -43.0273 C.ar      10 UNK        -0.1009 
     11 C11        16.4479  -30.7231  -42.5244 C.ar      10 UNK        -0.0712 
     12 C12        17.2064  -30.4938  -41.3739 C.ar      10 UNK        -0.0894 
     13 C13        17.2261  -29.2318  -40.7780 C.ar      10 UNK        -0.0745 
     14 C14        16.4337  -28.2082  -41.3085 C.ar      10 UNK        -0.0972 
     15 C15        18.1455  -28.9741  -39.5929 C.3       10 UNK         0.0209 
     16 S16        19.9015  -28.9509  -40.0930 S.3       10 UNK        -0.2568 
     17 C17        19.9996  -27.3912  -41.0307 C.3       10 UNK        -0.0983 
     18 CA         20.9022  -27.4952  -42.2929 C.3       3 UNK         0.0876 
     19 N          20.3360  -26.7353  -43.4111 N.am      3 UNK        -0.4424 
     20 C          20.8226  -26.6679  -44.6583 C.2       2 UNK         0.4918 
     21 O          21.8534  -27.2249  -45.0374 O.2       2 UNK        -0.4875 
     22 CA         19.9524  -25.8706  -45.6474 C.3       2 UNK         0.0481 
     23 CB         20.5975  -25.7099  -47.0408 C.3       2 UNK        -0.1831 
     24 N          18.6039  -26.4469  -45.7354 N.am      2 UNK        -0.4498 
     25 C          18.2692  -27.6692  -46.1764 C.2       1 UNK         0.5027 
     26 O          19.0683  -28.4526  -46.6952 O.2       1 UNK        -0.4969 
     27 C          22.3585  -27.0922  -41.9814 C.2       3 UNK         0.5005 
     28 O          23.2429  -27.9511  -41.9707 O.2       3 UNK        -0.5279 
     29 N          22.5694  -25.7853  -41.7535 N.am      4 UNK        -0.4463 
     30 CA         23.8256  -25.1509  -41.3311 C.3       4 UNK         0.0283 
     31 CB         24.9031  -25.3039  -42.4294 C.3       4 UNK        -0.1875 
     32 C          24.3119  -25.6482  -39.9515 C.2       4 UNK         0.4949 
     33 O          23.5919  -26.3650  -39.2529 O.2       4 UNK        -0.5039 
     34 N          25.5350  -25.2570  -39.5698 N.am      5 UNK        -0.4663 
     35 CA         26.1933  -25.7090  -38.3369 C.3       5 UNK         0.0242 
     36 CB         27.4141  -24.8167  -38.0591 C.3       5 UNK        -0.1982 
     37 C          26.6087  -27.1922  -38.3819 C.2       5 UNK         0.5017 
     38 O          26.7385  -27.8173  -37.3292 O.2       5 UNK        -0.5012 
     39 N          26.8096  -27.7218  -39.5966 N.am      6 UNK        -0.4439 
     40 CA         27.1893  -29.1096  -39.8625 C.3       6 UNK         0.0297 
     41 CB         27.7740  -29.1972  -41.2827 C.3       6 UNK        -0.2006 
     42 C          26.0339  -30.1159  -39.7086 C.2       6 UNK         0.4892 
     43 O          26.3137  -31.3068  -39.5671 O.2       6 UNK        -0.5089 
     44 N          24.7793  -29.6378  -39.7733 N.am      7 UNK        -0.4243 
     45 CA         23.5382  -30.4223  -39.8485 C.3       7 UNK         0.0196 
     46 CB         23.2786  -31.1938  -38.5376 C.3       7 UNK        -0.2007 
     47 C          23.5175  -31.3197  -41.1025 C.2       7 UNK         0.5020 
     48 O          23.2759  -32.5239  -41.0101 O.2       7 UNK        -0.5147 
     49 N          23.8078  -30.7064  -42.2582 N.am      8 UNK        -0.4734 
     50 CA         24.0506  -31.3624  -43.5490 C.3       8 UNK         0.0238 
     51 CB         24.5282  -30.3062  -44.5588 C.3       8 UNK        -0.1912 
     52 C          22.8483  -32.1398  -44.1118 C.2       8 UNK         0.5038 
     53 O          23.0444  -33.1130  -44.8407 O.2       8 UNK        -0.5046 
     54 N          21.6372  -31.7013  -43.7551 N.am      9 UNK        -0.4200 
     55 CA         20.3669  -32.3750  -44.0560 C.3       9 UNK         0.0839 
     56 C          20.0850  -33.6065  -43.1375 C.2       9 UNK         0.5513 
     57 N          20.8235  -33.8251  -42.0548 N.am      9 UNK        -0.7519 
     58 O          19.2000  -34.4065  -43.4264 O.2       9 UNK        -0.4960 
     59 C59        19.2245  -31.3266  -44.0566 C.3       10 UNK        -0.0876 
     60 S60        17.6254  -31.8849  -44.7520 S.3       10 UNK        -0.2414 
     61 C61        16.5705  -32.0445  -43.2678 C.3       10 UNK         0.0169 
     62 H62        16.1606  -30.3957  -49.2378 H         1 UNK         0.0903 
     63 H63        15.3890  -31.6753  -48.2987 H         1 UNK         0.0903 
     64 H64        14.4048  -30.4228  -49.0611 H         1 UNK         0.0903 
     65 H65        17.1830  -28.9317  -47.8877 H         1 UNK         0.3096 
     66 H66        16.8146  -28.7810  -45.1545 H         1 UNK         0.1121 
     67 H67        15.8612  -26.1923  -46.4920 H         1 UNK         0.0849 
     68 H68        14.7506  -27.3529  -45.8535 H         1 UNK         0.0849 
     69 H69        14.3937  -26.7038  -42.2489 H         1 UNK         0.0865 
     70 H70        13.9963  -27.6863  -43.6324 H         1 UNK         0.0865 
     71 H71        15.0446  -29.8841  -43.9144 H         1 UNK         0.1346 
     72 H72        17.8391  -31.2779  -40.9798 H         1 UNK         0.1412 
     73 H73        16.4548  -27.2234  -40.8615 H         1 UNK         0.1426 
     74 H74        18.0008  -29.7589  -38.8491 H         1 UNK         0.0716 
     75 H75        17.8955  -28.0336  -39.0994 H         1 UNK         0.0716 
     76 H76        18.9866  -27.1157  -41.3226 H         1 UNK         0.0695 
     77 H77        20.3195  -26.5980  -40.3520 H         1 UNK         0.0695 
     78 H78        20.9229  -28.5345  -42.6270 H         1 UNK         0.0983 
     79 H79        19.4717  -26.2509  -43.2196 H         1 UNK         0.3095 
     80 H80        19.8350  -24.8706  -45.2270 H         1 UNK         0.0454 
     81 H81        21.5497  -25.1836  -46.9665 H         1 UNK         0.0851 
     82 H82        19.9592  -25.1327  -47.7093 H         1 UNK         0.0851 
     83 H83        20.7994  -26.6701  -47.5160 H         1 UNK         0.0851 
     84 H84        17.8629  -25.8986  -45.3149 H         1 UNK         0.2976 
     85 H85        21.7661  -25.1736  -41.7828 H         1 UNK         0.3116 
     86 H86        23.6057  -24.0883  -41.2186 H         1 UNK         0.0646 
     87 H87        25.2719  -26.3276  -42.5010 H         1 UNK         0.0847 
     88 H88        24.5089  -25.0282  -43.4076 H         1 UNK         0.0847 
     89 H89        25.7618  -24.6586  -42.2437 H         1 UNK         0.0847 
     90 H90        26.0628  -24.6378  -40.1688 H         1 UNK         0.3040 
     91 H91        25.4893  -25.5944  -37.5091 H         1 UNK         0.1015 
     92 H92        27.9099  -25.1118  -37.1331 H         1 UNK         0.0786 
     93 H93        27.1253  -23.7711  -37.9498 H         1 UNK         0.0786 
     94 H94        28.1534  -24.8807  -38.8586 H         1 UNK         0.0786 
     95 H95        26.6849  -27.1207  -40.3976 H         1 UNK         0.3172 
     96 H96        27.9699  -29.3943  -39.1537 H         1 UNK         0.0595 
     97 H97        27.0394  -28.9213  -42.0407 H         1 UNK         0.0839 
     98 H98        28.1044  -30.2126  -41.5068 H         1 UNK         0.0839 
     99 H99        28.6402  -28.5453  -41.3985 H         1 UNK         0.0839 
    100 H100       24.6604  -28.6414  -39.9039 H         1 UNK         0.2998 
    101 H101       22.7297  -29.7016  -39.9677 H         1 UNK         0.0822 
    102 H102       22.3015  -31.6779  -38.5617 H         1 UNK         0.0787 
    103 H103       23.2882  -30.5250  -37.6771 H         1 UNK         0.0787 
    104 H104       24.0221  -31.9728  -38.3670 H         1 UNK         0.0787 
    105 H105       23.8925  -29.6911  -42.2362 H         1 UNK         0.3055 
    106 H106       24.8550  -32.0860  -43.4001 H         1 UNK         0.1106 
    107 H107       25.4468  -29.8240  -44.2240 H         1 UNK         0.0828 
    108 H108       24.7356  -30.7569  -45.5304 H         1 UNK         0.0828 
    109 H109       23.7788  -29.5278  -44.7121 H         1 UNK         0.0828 
    110 H110       21.5933  -30.9102  -43.1318 H         1 UNK         0.2931 
    111 H111       20.4410  -32.7678  -45.0720 H         1 UNK         0.0412 
    112 H112       20.6263  -34.6361  -41.4905 H         1 UNK         0.3472 
    113 H113       21.6092  -33.2311  -41.8122 H         1 UNK         0.3472 
    114 H114       19.1019  -30.9229  -43.0553 H         1 UNK         0.0970 
    115 H115       19.5268  -30.4731  -44.6663 H         1 UNK         0.0970 
    116 H116       16.9775  -32.8196  -42.6168 H         1 UNK         0.0612 
    117 H117       15.5803  -32.3858  -43.5726 H         1 UNK         0.0612 
@<TRIPOS>BOND
     1    1    2 1    
     2    1   62 1    
     3    1   63 1    
     4    1   64 1    
     5    2    3 2    
     6    2    4 am   BACKBONE|DICT|INTERRES
     7    4    5 1    
     8    4   65 1    
     9    5    6 1    
    10    5   25 1    
    11    5   66 1    
    12    6    7 1    
    13    6   67 1    
    14    6   68 1    
    15    7    8 1    
    16    8    9 1    
    17    8   69 1    
    18    8   70 1    
    19    9   10 ar   
    20    9   14 ar   
    21   10   11 ar   
    22   10   71 1    
    23   11   12 ar   
    24   11   61 1    
    25   12   13 ar   
    26   12   72 1    
    27   13   14 ar   
    28   13   15 1    
    29   14   73 1    
    30   15   16 1    
    31   15   74 1    
    32   15   75 1    
    33   16   17 1    
    34   17   18 1    
    35   17   76 1    
    36   17   77 1    
    37   18   19 1    
    38   18   27 1    
    39   18   78 1    
    40   19   20 am   BACKBONE|DICT|INTERRES
    41   19   79 1    
    42   20   21 2    
    43   20   22 1    
    44   22   23 1    
    45   22   24 1    
    46   22   80 1    
    47   23   81 1    
    48   23   82 1    
    49   23   83 1    
    50   24   25 am   BACKBONE|DICT|INTERRES
    51   24   84 1    
    52   25   26 2    
    53   27   28 2    
    54   27   29 am   BACKBONE|DICT|INTERRES
    55   29   30 1    
    56   29   85 1    
    57   30   31 1    
    58   30   32 1    
    59   30   86 1    
    60   31   87 1    
    61   31   88 1    
    62   31   89 1    
    63   32   33 2    
    64   32   34 am   BACKBONE|DICT|INTERRES
    65   34   35 1    
    66   34   90 1    
    67   35   36 1    
    68   35   37 1    
    69   35   91 1    
    70   36   92 1    
    71   36   93 1    
    72   36   94 1    
    73   37   38 2    
    74   37   39 am   BACKBONE|DICT|INTERRES
    75   39   40 1    
    76   39   95 1    
    77   40   41 1    
    78   40   42 1    
    79   40   96 1    
    80   41   97 1    
    81   41   98 1    
    82   41   99 1    
    83   42   43 2    
    84   42   44 am   BACKBONE|DICT|INTERRES
    85   44   45 1    
    86   44  100 1    
    87   45   46 1    
    88   45   47 1    
    89   45  101 1    
    90   46  102 1    
    91   46  103 1    
    92   46  104 1    
    93   47   48 2    
    94   47   49 am   BACKBONE|DICT|INTERRES
    95   49   50 1    
    96   49  105 1    
    97   50   51 1    
    98   50   52 1    
    99   50  106 1    
   100   51  107 1    
   101   51  108 1    
   102   51  109 1    
   103   52   53 2    
   104   52   54 am   BACKBONE|DICT|INTERRES
   105   54   55 1    
   106   54  110 1    
   107   55   56 1    
   108   55   59 1    
   109   55  111 1    
   110   56   57 am   BACKBONE|DICT|INTERRES
   111   56   58 2    
   112   57  112 1    
   113   57  113 1    
   114   59   60 1    
   115   59  114 1    
   116   59  115 1    
   117   60   61 1    
   118   61  116 1    
   119   61  117 1    
@<TRIPOS>SUBSTRUCTURE
     1 UNK         1 GROUP             0       ****    0 ROOT    
