@<TRIPOS>MOLECULE
3R8
117   119    1
SMALL
USER_CHARGES


@<TRIPOS>ATOM
      1 CA         11.9520  -24.4874  -42.0389 C.3       0 UNK        -0.2013 
      2 C          13.0041  -24.6498  -43.1259 C.2       0 UNK         0.4866 
      3 O          13.0080  -23.8889  -44.0939 O.2       0 UNK        -0.5176 
      4 N          13.8958  -25.6332  -42.9746 N.am      1 UNK        -0.4884 
      5 CA         14.9962  -25.9300  -43.8888 C.3       1 UNK         0.0853 
      6 C6         14.5291  -26.8073  -45.0779 C.3       10 UNK        -0.0849 
      7 S7         15.6827  -26.7724  -46.4919 S.3       10 UNK        -0.2776 
      8 C8         15.8899  -28.5463  -46.8542 C.3       10 UNK         0.0316 
      9 C9         17.0595  -29.1524  -46.0918 C.ar      10 UNK        -0.0863 
     10 C10        16.8881  -29.6498  -44.7970 C.ar      10 UNK        -0.1009 
     11 C11        17.9584  -30.2156  -44.0953 C.ar      10 UNK        -0.0712 
     12 C12        19.2099  -30.3011  -44.7229 C.ar      10 UNK        -0.0894 
     13 C13        19.3913  -29.8189  -46.0217 C.ar      10 UNK        -0.0745 
     14 C14        18.3151  -29.2389  -46.6973 C.ar      10 UNK        -0.0972 
     15 C15        20.7390  -29.9470  -46.7148 C.3       10 UNK         0.0209 
     16 S16        21.6844  -28.3941  -46.6570 S.3       10 UNK        -0.2568 
     17 C17        22.4934  -28.4878  -45.0270 C.3       10 UNK        -0.0983 
     18 CA         22.1002  -27.2976  -44.1168 C.3       3 UNK         0.0876 
     19 N          20.7790  -27.4636  -43.5211 N.am      3 UNK        -0.4424 
     20 C          19.7612  -26.6115  -43.6614 C.2       2 UNK         0.4918 
     21 O          19.7649  -25.6346  -44.4151 O.2       2 UNK        -0.4875 
     22 CA         18.5556  -26.8582  -42.7505 C.3       2 UNK         0.0481 
     23 CB         18.7799  -26.2105  -41.3703 C.3       2 UNK        -0.1831 
     24 N          17.3637  -26.3106  -43.3890 N.am      2 UNK        -0.4498 
     25 C          16.1021  -26.6007  -43.0589 C.2       1 UNK         0.5027 
     26 O          15.7864  -27.3623  -42.1395 O.2       1 UNK        -0.4969 
     27 C          23.0623  -27.1636  -42.9312 C.2       3 UNK         0.5005 
     28 O          23.4156  -28.1769  -42.3248 O.2       3 UNK        -0.5279 
     29 N          23.4549  -25.9258  -42.5992 N.am      4 UNK        -0.4463 
     30 CA         24.3087  -25.5923  -41.4499 C.3       4 UNK         0.0283 
     31 CB         24.4253  -24.0645  -41.3291 C.3       4 UNK        -0.1875 
     32 C          25.7079  -26.2361  -41.4813 C.2       4 UNK         0.4949 
     33 O          26.2932  -26.4529  -40.4209 O.2       4 UNK        -0.5039 
     34 N          26.2063  -26.5519  -42.6853 N.am      5 UNK        -0.4663 
     35 CA         27.4507  -27.2948  -42.9013 C.3       5 UNK         0.0242 
     36 CB         27.8590  -27.1783  -44.3788 C.3       5 UNK        -0.1982 
     37 C          27.3516  -28.7746  -42.4851 C.2       5 UNK         0.5017 
     38 O          28.3647  -29.3528  -42.0904 O.2       5 UNK        -0.5012 
     39 N          26.1463  -29.3548  -42.5776 N.am      6 UNK        -0.4439 
     40 CA         25.8416  -30.7112  -42.1207 C.3       6 UNK         0.0297 
     41 CB         24.7593  -31.3320  -43.0207 C.3       6 UNK        -0.2006 
     42 C          25.3858  -30.7069  -40.6548 C.2       6 UNK         0.4892 
     43 O          25.7731  -31.6012  -39.9023 O.2       6 UNK        -0.5089 
     44 N          24.5581  -29.7153  -40.2873 N.am      7 UNK        -0.4243 
     45 CA         23.9433  -29.4415  -38.9798 C.3       7 UNK         0.0196 
     46 CB         25.0047  -29.2135  -37.8867 C.3       7 UNK        -0.2007 
     47 C          22.9011  -30.4878  -38.5482 C.2       7 UNK         0.5020 
     48 O          21.7935  -30.1166  -38.1620 O.2       7 UNK        -0.5147 
     49 N          23.2573  -31.7721  -38.6524 N.am      8 UNK        -0.4734 
     50 CA         22.3796  -32.9233  -38.4274 C.3       8 UNK         0.0238 
     51 CB         23.2414  -34.1118  -37.9675 C.3       8 UNK        -0.1912 
     52 C          21.5536  -33.3022  -39.6730 C.2       8 UNK         0.5038 
     53 O          20.7189  -34.2034  -39.5771 O.2       8 UNK        -0.5046 
     54 N          21.8051  -32.6285  -40.8058 N.am      9 UNK        -0.4200 
     55 CA         21.2142  -32.8761  -42.1324 C.3       9 UNK         0.0839 
     56 C          21.6692  -34.2317  -42.7565 C.2       9 UNK         0.5513 
     57 N          21.0780  -34.6508  -43.8679 N.am      9 UNK        -0.7519 
     58 O          22.5916  -34.8897  -42.2789 O.2       9 UNK        -0.4960 
     59 C59        19.6704  -32.6634  -42.1586 C.3       10 UNK        -0.0876 
     60 S60        19.1827  -30.9818  -41.6369 S.3       10 UNK        -0.2414 
     61 C61        17.7004  -30.7128  -42.6700 C.3       10 UNK         0.0169 
     62 H62        12.0651  -25.2285  -41.2478 H         1 UNK         0.0903 
     63 H63        12.0264  -23.4975  -41.5894 H         1 UNK         0.0903 
     64 H64        10.9543  -24.5949  -42.4636 H         1 UNK         0.0903 
     65 H65        13.8891  -26.2187  -42.1471 H         1 UNK         0.3096 
     66 H66        15.3848  -24.9820  -44.2694 H         1 UNK         0.1121 
     67 H67        14.3355  -27.8309  -44.7531 H         1 UNK         0.0849 
     68 H68        13.5739  -26.4386  -45.4552 H         1 UNK         0.0849 
     69 H69        14.9695  -29.0912  -46.6391 H         1 UNK         0.0865 
     70 H70        16.0530  -28.6603  -47.9271 H         1 UNK         0.0865 
     71 H71        15.9172  -29.5874  -44.3253 H         1 UNK         0.1346 
     72 H72        20.0538  -30.7395  -44.2130 H         1 UNK         0.1412 
     73 H73        18.4563  -28.8612  -47.7011 H         1 UNK         0.1426 
     74 H74        21.3259  -30.7604  -46.2852 H         1 UNK         0.0716 
     75 H75        20.5794  -30.2151  -47.7602 H         1 UNK         0.0716 
     76 H76        22.2693  -29.4400  -44.5431 H         1 UNK         0.0695 
     77 H77        23.5691  -28.4918  -45.2142 H         1 UNK         0.0695 
     78 H78        22.1555  -26.3783  -44.7046 H         1 UNK         0.0983 
     79 H79        20.7007  -28.2161  -42.8515 H         1 UNK         0.3095 
     80 H80        18.4292  -27.9329  -42.6240 H         1 UNK         0.0454 
     81 H81        18.8828  -25.1274  -41.4471 H         1 UNK         0.0851 
     82 H82        17.9552  -26.4208  -40.6896 H         1 UNK         0.0851 
     83 H83        19.6866  -26.5924  -40.8993 H         1 UNK         0.0851 
     84 H84        17.5585  -25.7135  -44.1841 H         1 UNK         0.2976 
     85 H85        23.1076  -25.1456  -43.1399 H         1 UNK         0.3116 
     86 H86        23.8070  -25.9660  -40.5546 H         1 UNK         0.0646 
     87 H87        25.0321  -23.7864  -40.4660 H         1 UNK         0.0847 
     88 H88        23.4484  -23.5993  -41.1966 H         1 UNK         0.0847 
     89 H89        24.8928  -23.6234  -42.2103 H         1 UNK         0.0847 
     90 H90        25.6691  -26.3071  -43.5043 H         1 UNK         0.3040 
     91 H91        28.2322  -26.8356  -42.2912 H         1 UNK         0.1015 
     92 H92        28.0071  -26.1380  -44.6692 H         1 UNK         0.0786 
     93 H93        27.1084  -27.6101  -45.0422 H         1 UNK         0.0786 
     94 H94        28.7981  -27.7013  -44.5657 H         1 UNK         0.0786 
     95 H95        25.3566  -28.7831  -42.8508 H         1 UNK         0.3172 
     96 H96        26.7359  -31.3338  -42.1952 H         1 UNK         0.0595 
     97 H97        24.5347  -32.3538  -42.7109 H         1 UNK         0.0839 
     98 H98        25.0867  -31.3752  -44.0596 H         1 UNK         0.0839 
     99 H99        23.8267  -30.7684  -42.9890 H         1 UNK         0.0839 
    100 H100       24.2405  -29.0895  -41.0268 H         1 UNK         0.2998 
    101 H101       23.4043  -28.5012  -39.1089 H         1 UNK         0.0822 
    102 H102       25.6996  -28.4234  -38.1726 H         1 UNK         0.0787 
    103 H103       24.5370  -28.9114  -36.9489 H         1 UNK         0.0787 
    104 H104       25.5857  -30.1134  -37.6831 H         1 UNK         0.0787 
    105 H105       24.2004  -31.9633  -38.9863 H         1 UNK         0.3055 
    106 H106       21.6704  -32.6832  -37.6318 H         1 UNK         0.1106 
    107 H107       22.6233  -34.9831  -37.7466 H         1 UNK         0.0828 
    108 H108       23.9602  -34.4075  -38.7329 H         1 UNK         0.0828 
    109 H109       23.7959  -33.8724  -37.0600 H         1 UNK         0.0828 
    110 H110       22.5157  -31.9151  -40.7686 H         1 UNK         0.2931 
    111 H111       21.6573  -32.1172  -42.7779 H         1 UNK         0.0412 
    112 H112       21.3855  -35.5173  -44.2821 H         1 UNK         0.3472 
    113 H113       20.3415  -34.1237  -44.3085 H         1 UNK         0.3472 
    114 H114       19.1649  -33.3882  -41.5192 H         1 UNK         0.0970 
    115 H115       19.2765  -32.8321  -43.1610 H         1 UNK         0.0970 
    116 H116       17.0771  -29.9815  -42.1528 H         1 UNK         0.0612 
    117 H117       17.1166  -31.6333  -42.7114 H         1 UNK         0.0612 
@<TRIPOS>BOND
     1    1    2 1    
     2    1   62 1    
     3    1   63 1    
     4    1   64 1    
     5    2    3 2    
     6    2    4 am   BACKBONE|DICT|INTERRES
     7    4    5 1    
     8    4   65 1    
     9    5    6 1    
    10    5   25 1    
    11    5   66 1    
    12    6    7 1    
    13    6   67 1    
    14    6   68 1    
    15    7    8 1    
    16    8    9 1    
    17    8   69 1    
    18    8   70 1    
    19    9   10 ar   
    20    9   14 ar   
    21   10   11 ar   
    22   10   71 1    
    23   11   12 ar   
    24   11   61 1    
    25   12   13 ar   
    26   12   72 1    
    27   13   14 ar   
    28   13   15 1    
    29   14   73 1    
    30   15   16 1    
    31   15   74 1    
    32   15   75 1    
    33   16   17 1    
    34   17   18 1    
    35   17   76 1    
    36   17   77 1    
    37   18   19 1    
    38   18   27 1    
    39   18   78 1    
    40   19   20 am   BACKBONE|DICT|INTERRES
    41   19   79 1    
    42   20   21 2    
    43   20   22 1    
    44   22   23 1    
    45   22   24 1    
    46   22   80 1    
    47   23   81 1    
    48   23   82 1    
    49   23   83 1    
    50   24   25 am   BACKBONE|DICT|INTERRES
    51   24   84 1    
    52   25   26 2    
    53   27   28 2    
    54   27   29 am   BACKBONE|DICT|INTERRES
    55   29   30 1    
    56   29   85 1    
    57   30   31 1    
    58   30   32 1    
    59   30   86 1    
    60   31   87 1    
    61   31   88 1    
    62   31   89 1    
    63   32   33 2    
    64   32   34 am   BACKBONE|DICT|INTERRES
    65   34   35 1    
    66   34   90 1    
    67   35   36 1    
    68   35   37 1    
    69   35   91 1    
    70   36   92 1    
    71   36   93 1    
    72   36   94 1    
    73   37   38 2    
    74   37   39 am   BACKBONE|DICT|INTERRES
    75   39   40 1    
    76   39   95 1    
    77   40   41 1    
    78   40   42 1    
    79   40   96 1    
    80   41   97 1    
    81   41   98 1    
    82   41   99 1    
    83   42   43 2    
    84   42   44 am   BACKBONE|DICT|INTERRES
    85   44   45 1    
    86   44  100 1    
    87   45   46 1    
    88   45   47 1    
    89   45  101 1    
    90   46  102 1    
    91   46  103 1    
    92   46  104 1    
    93   47   48 2    
    94   47   49 am   BACKBONE|DICT|INTERRES
    95   49   50 1    
    96   49  105 1    
    97   50   51 1    
    98   50   52 1    
    99   50  106 1    
   100   51  107 1    
   101   51  108 1    
   102   51  109 1    
   103   52   53 2    
   104   52   54 am   BACKBONE|DICT|INTERRES
   105   54   55 1    
   106   54  110 1    
   107   55   56 1    
   108   55   59 1    
   109   55  111 1    
   110   56   57 am   BACKBONE|DICT|INTERRES
   111   56   58 2    
   112   57  112 1    
   113   57  113 1    
   114   59   60 1    
   115   59  114 1    
   116   59  115 1    
   117   60   61 1    
   118   61  116 1    
   119   61  117 1    
@<TRIPOS>SUBSTRUCTURE
     1 UNK         1 GROUP             0       ****    0 ROOT    
