@<TRIPOS>MOLECULE
3R8
117   119    1
SMALL
USER_CHARGES


@<TRIPOS>ATOM
      1 CA         14.6710  -24.5323  -42.8996 C.3       0 UNK        -0.2013 
      2 C          15.8825  -25.0528  -43.6575 C.2       0 UNK         0.4866 
      3 O          16.8223  -25.5478  -43.0326 O.2       0 UNK        -0.5176 
      4 N          15.8656  -24.9385  -44.9953 N.am      1 UNK        -0.4884 
      5 CA         16.9082  -25.3904  -45.9312 C.3       1 UNK         0.0853 
      6 C6         16.9986  -26.9419  -46.0250 C.3       10 UNK        -0.0849 
      7 S7         15.4275  -27.7669  -46.4415 S.3       10 UNK        -0.2776 
      8 C8         15.9753  -29.5026  -46.6152 C.3       10 UNK         0.0316 
      9 C9         16.8873  -29.9559  -45.4785 C.ar      10 UNK        -0.0863 
     10 C10        18.2187  -30.2994  -45.7388 C.ar      10 UNK        -0.1009 
     11 C11        19.0660  -30.6910  -44.6984 C.ar      10 UNK        -0.0712 
     12 C12        18.5730  -30.7432  -43.3926 C.ar      10 UNK        -0.0894 
     13 C13        17.2517  -30.3817  -43.1129 C.ar      10 UNK        -0.0745 
     14 C14        16.4102  -30.0031  -44.1642 C.ar      10 UNK        -0.0972 
     15 C15        16.7206  -30.4017  -41.6824 C.3       10 UNK         0.0209 
     16 S16        17.8488  -29.6388  -40.4636 S.3       10 UNK        -0.2568 
     17 C17        18.0510  -27.9426  -41.1095 C.3       10 UNK        -0.0983 
     18 CA         19.5069  -27.6298  -41.5499 C.3       3 UNK         0.0876 
     19 N          19.5378  -26.5784  -42.5807 N.am      3 UNK        -0.4424 
     20 C          20.6246  -26.2069  -43.2802 C.2       2 UNK         0.4918 
     21 O          21.7465  -26.6679  -43.0797 O.2       2 UNK        -0.4875 
     22 CA         20.4165  -25.1718  -44.3994 C.3       2 UNK         0.0481 
     23 CB         21.6191  -25.0565  -45.3550 C.3       2 UNK        -0.1831 
     24 N          19.2240  -25.5531  -45.1425 N.am      2 UNK        -0.4498 
     25 C          18.2608  -24.7301  -45.5702 C.2       1 UNK         0.5027 
     26 O          18.3742  -23.5035  -45.6231 O.2       1 UNK        -0.4969 
     27 C          20.4229  -27.3387  -40.3360 C.2       3 UNK         0.5005 
     28 O          20.8720  -28.2719  -39.6711 O.2       3 UNK        -0.5279 
     29 N          20.7125  -26.0546  -40.0815 N.am      4 UNK        -0.4463 
     30 CA         21.6548  -25.5970  -39.0568 C.3       4 UNK         0.0283 
     31 CB         21.4102  -24.1019  -38.7920 C.3       4 UNK        -0.1875 
     32 C          23.1366  -25.8431  -39.4115 C.2       4 UNK         0.4949 
     33 O          23.9831  -25.7249  -38.5247 O.2       4 UNK        -0.5039 
     34 N          23.4349  -26.1514  -40.6801 N.am      5 UNK        -0.4663 
     35 CA         24.7769  -26.4055  -41.2012 C.3       5 UNK         0.0242 
     36 CB         25.0134  -25.4623  -42.3949 C.3       5 UNK        -0.1982 
     37 C          24.9143  -27.8732  -41.6360 C.2       5 UNK         0.5017 
     38 O          23.9295  -28.6165  -41.6493 O.2       5 UNK        -0.5012 
     39 N          26.1511  -28.2622  -41.9846 N.am      6 UNK        -0.4439 
     40 CA         26.5480  -29.5562  -42.5636 C.3       6 UNK         0.0297 
     41 CB         26.0375  -29.6585  -44.0177 C.3       6 UNK        -0.2006 
     42 C          26.1426  -30.7828  -41.7199 C.2       6 UNK         0.4892 
     43 O          25.8318  -31.8330  -42.2840 O.2       6 UNK        -0.5089 
     44 N          26.1056  -30.6130  -40.3881 N.am      7 UNK        -0.4243 
     45 CA         25.6301  -31.5793  -39.3862 C.3       7 UNK         0.0196 
     46 CB         26.6279  -32.7496  -39.2518 C.3       7 UNK        -0.2007 
     47 C          24.1822  -32.0581  -39.6369 C.2       7 UNK         0.5020 
     48 O          23.8618  -33.2136  -39.3530 O.2       7 UNK        -0.5147 
     49 N          23.3460  -31.1708  -40.2006 N.am      8 UNK        -0.4734 
     50 CA         21.9711  -31.4113  -40.6571 C.3       8 UNK         0.0238 
     51 CB         21.0366  -31.7236  -39.4682 C.3       8 UNK        -0.1912 
     52 C          21.8733  -32.4577  -41.7868 C.2       8 UNK         0.5038 
     53 O          20.8371  -33.1109  -41.9082 O.2       8 UNK        -0.5046 
     54 N          22.9501  -32.5900  -42.5790 N.am      9 UNK        -0.4200 
     55 CA         23.1402  -33.5025  -43.7211 C.3       9 UNK         0.0839 
     56 C          22.8836  -35.0179  -43.4555 C.2       9 UNK         0.5513 
     57 N          22.9331  -35.4826  -42.2124 N.am      9 UNK        -0.7519 
     58 O          22.6882  -35.7955  -44.3865 O.2       9 UNK        -0.4960 
     59 C59        22.5652  -32.9559  -45.0632 C.3       10 UNK        -0.0876 
     60 S60        20.7463  -32.8314  -45.1656 S.3       10 UNK        -0.2414 
     61 C61        20.5204  -31.0378  -44.9710 C.3       10 UNK         0.0169 
     62 H62        14.2192  -25.3375  -42.3210 H         1 UNK         0.0903 
     63 H63        14.9714  -23.7440  -42.2100 H         1 UNK         0.0903 
     64 H64        13.9121  -24.1281  -43.5691 H         1 UNK         0.0903 
     65 H65        15.0689  -24.4980  -45.4339 H         1 UNK         0.3096 
     66 H66        16.6366  -25.0092  -46.9171 H         1 UNK         0.1121 
     67 H67        17.3266  -27.3551  -45.0696 H         1 UNK         0.0849 
     68 H68        17.7376  -27.2373  -46.7728 H         1 UNK         0.0849 
     69 H69        15.0983  -30.1502  -46.6524 H         1 UNK         0.0865 
     70 H70        16.4764  -29.6150  -47.5779 H         1 UNK         0.0865 
     71 H71        18.6003  -30.2568  -46.7499 H         1 UNK         0.1346 
     72 H72        19.2248  -31.0537  -42.5881 H         1 UNK         0.1412 
     73 H73        15.3851  -29.7232  -43.9617 H         1 UNK         0.1426 
     74 H74        15.7574  -29.8924  -41.6228 H         1 UNK         0.0716 
     75 H75        16.5412  -31.4375  -41.3919 H         1 UNK         0.0716 
     76 H76        17.6995  -27.2281  -40.3628 H         1 UNK         0.0695 
     77 H77        17.3736  -27.8339  -41.9567 H         1 UNK         0.0695 
     78 H78        19.9153  -28.5213  -42.0303 H         1 UNK         0.0983 
     79 H79        18.6416  -26.1410  -42.7889 H         1 UNK         0.3095 
     80 H80        20.2597  -24.2069  -43.9130 H         1 UNK         0.0454 
     81 H81        21.4330  -24.3222  -46.1386 H         1 UNK         0.0851 
     82 H82        21.8450  -26.0096  -45.8345 H         1 UNK         0.0851 
     83 H83        22.5144  -24.7381  -44.8199 H         1 UNK         0.0851 
     84 H84        19.0268  -26.5442  -45.1388 H         1 UNK         0.2976 
     85 H85        20.3005  -25.3478  -40.6733 H         1 UNK         0.3116 
     86 H86        21.4480  -26.1436  -38.1342 H         1 UNK         0.0646 
     87 H87        20.3853  -23.9166  -38.4700 H         1 UNK         0.0847 
     88 H88        22.0659  -23.7326  -38.0022 H         1 UNK         0.0847 
     89 H89        21.6000  -23.4977  -39.6801 H         1 UNK         0.0847 
     90 H90        22.6831  -26.3332  -41.3384 H         1 UNK         0.3040 
     91 H91        25.5309  -26.2068  -40.4365 H         1 UNK         0.1015 
     92 H92        24.3279  -25.6740  -43.2166 H         1 UNK         0.0786 
     93 H93        26.0274  -25.5565  -42.7847 H         1 UNK         0.0786 
     94 H94        24.8767  -24.4195  -42.1078 H         1 UNK         0.0786 
     95 H95        26.8965  -27.5834  -41.9048 H         1 UNK         0.3172 
     96 H96        27.6384  -29.5591  -42.5939 H         1 UNK         0.0595 
     97 H97        24.9488  -29.7139  -44.0592 H         1 UNK         0.0839 
     98 H98        26.4277  -30.5494  -44.5115 H         1 UNK         0.0839 
     99 H99        26.3515  -28.7998  -44.6108 H         1 UNK         0.0839 
    100 H100       26.3679  -29.7050  -40.0303 H         1 UNK         0.2998 
    101 H101       25.6099  -31.0500  -38.4324 H         1 UNK         0.0822 
    102 H102       26.3560  -33.4041  -38.4227 H         1 UNK         0.0787 
    103 H103       26.6555  -33.3620  -40.1538 H         1 UNK         0.0787 
    104 H104       27.6385  -32.3897  -39.0596 H         1 UNK         0.0787 
    105 H105       23.7121  -30.2550  -40.4470 H         1 UNK         0.3055 
    106 H106       21.6353  -30.4715  -41.0985 H         1 UNK         0.1106 
    107 H107       19.9954  -31.7605  -39.7898 H         1 UNK         0.0828 
    108 H108       21.2674  -32.6845  -39.0083 H         1 UNK         0.0828 
    109 H109       21.1055  -30.9540  -38.6996 H         1 UNK         0.0828 
    110 H110       23.7786  -32.0581  -42.3368 H         1 UNK         0.2931 
    111 H111       24.2213  -33.4808  -43.8621 H         1 UNK         0.0412 
    112 H112       22.7825  -36.4646  -42.0435 H         1 UNK         0.3472 
    113 H113       23.0973  -34.8537  -41.4403 H         1 UNK         0.3472 
    114 H114       23.0012  -31.9768  -45.2670 H         1 UNK         0.0970 
    115 H115       22.8983  -33.5850  -45.8904 H         1 UNK         0.0970 
    116 H116       21.1405  -30.6754  -44.1497 H         1 UNK         0.0612 
    117 H117       20.8729  -30.5304  -45.8703 H         1 UNK         0.0612 
@<TRIPOS>BOND
     1    1    2 1    
     2    1   62 1    
     3    1   63 1    
     4    1   64 1    
     5    2    3 2    
     6    2    4 am   BACKBONE|DICT|INTERRES
     7    4    5 1    
     8    4   65 1    
     9    5    6 1    
    10    5   25 1    
    11    5   66 1    
    12    6    7 1    
    13    6   67 1    
    14    6   68 1    
    15    7    8 1    
    16    8    9 1    
    17    8   69 1    
    18    8   70 1    
    19    9   10 ar   
    20    9   14 ar   
    21   10   11 ar   
    22   10   71 1    
    23   11   12 ar   
    24   11   61 1    
    25   12   13 ar   
    26   12   72 1    
    27   13   14 ar   
    28   13   15 1    
    29   14   73 1    
    30   15   16 1    
    31   15   74 1    
    32   15   75 1    
    33   16   17 1    
    34   17   18 1    
    35   17   76 1    
    36   17   77 1    
    37   18   19 1    
    38   18   27 1    
    39   18   78 1    
    40   19   20 am   BACKBONE|DICT|INTERRES
    41   19   79 1    
    42   20   21 2    
    43   20   22 1    
    44   22   23 1    
    45   22   24 1    
    46   22   80 1    
    47   23   81 1    
    48   23   82 1    
    49   23   83 1    
    50   24   25 am   BACKBONE|DICT|INTERRES
    51   24   84 1    
    52   25   26 2    
    53   27   28 2    
    54   27   29 am   BACKBONE|DICT|INTERRES
    55   29   30 1    
    56   29   85 1    
    57   30   31 1    
    58   30   32 1    
    59   30   86 1    
    60   31   87 1    
    61   31   88 1    
    62   31   89 1    
    63   32   33 2    
    64   32   34 am   BACKBONE|DICT|INTERRES
    65   34   35 1    
    66   34   90 1    
    67   35   36 1    
    68   35   37 1    
    69   35   91 1    
    70   36   92 1    
    71   36   93 1    
    72   36   94 1    
    73   37   38 2    
    74   37   39 am   BACKBONE|DICT|INTERRES
    75   39   40 1    
    76   39   95 1    
    77   40   41 1    
    78   40   42 1    
    79   40   96 1    
    80   41   97 1    
    81   41   98 1    
    82   41   99 1    
    83   42   43 2    
    84   42   44 am   BACKBONE|DICT|INTERRES
    85   44   45 1    
    86   44  100 1    
    87   45   46 1    
    88   45   47 1    
    89   45  101 1    
    90   46  102 1    
    91   46  103 1    
    92   46  104 1    
    93   47   48 2    
    94   47   49 am   BACKBONE|DICT|INTERRES
    95   49   50 1    
    96   49  105 1    
    97   50   51 1    
    98   50   52 1    
    99   50  106 1    
   100   51  107 1    
   101   51  108 1    
   102   51  109 1    
   103   52   53 2    
   104   52   54 am   BACKBONE|DICT|INTERRES
   105   54   55 1    
   106   54  110 1    
   107   55   56 1    
   108   55   59 1    
   109   55  111 1    
   110   56   57 am   BACKBONE|DICT|INTERRES
   111   56   58 2    
   112   57  112 1    
   113   57  113 1    
   114   59   60 1    
   115   59  114 1    
   116   59  115 1    
   117   60   61 1    
   118   61  116 1    
   119   61  117 1    
@<TRIPOS>SUBSTRUCTURE
     1 UNK         1 GROUP             0       ****    0 ROOT    
