@<TRIPOS>MOLECULE
3R8
117   119    1
SMALL
USER_CHARGES


@<TRIPOS>ATOM
      1 CA         19.0509  -24.2337  -39.7055 C.3       0 UNK        -0.2013 
      2 C          18.2308  -24.3606  -40.9808 C.2       0 UNK         0.4866 
      3 O          17.5937  -23.3935  -41.3980 O.2       0 UNK        -0.5176 
      4 N          18.2505  -25.5432  -41.6080 N.am      1 UNK        -0.4884 
      5 CA         17.5585  -25.8412  -42.8708 C.3       1 UNK         0.0853 
      6 C6         17.0991  -27.3210  -42.9093 C.3       10 UNK        -0.0849 
      7 S7         15.5613  -27.5445  -43.8724 S.3       10 UNK        -0.2776 
      8 C8         15.3862  -29.3604  -43.9043 C.3       10 UNK         0.0316 
      9 C9         16.6434  -30.0441  -44.4207 C.ar      10 UNK        -0.0863 
     10 C10        17.3966  -30.8609  -43.5737 C.ar      10 UNK        -0.1009 
     11 C11        18.5959  -31.4334  -44.0150 C.ar      10 UNK        -0.0712 
     12 C12        19.0416  -31.1643  -45.3131 C.ar      10 UNK        -0.0894 
     13 C13        18.3025  -30.3405  -46.1644 C.ar      10 UNK        -0.0745 
     14 C14        17.0898  -29.8063  -45.7225 C.ar      10 UNK        -0.0972 
     15 C15        18.8246  -29.9837  -47.5458 C.3       10 UNK         0.0209 
     16 S16        19.3560  -28.2416  -47.6019 S.3       10 UNK        -0.2568 
     17 C17        21.1813  -28.3320  -47.5366 C.3       10 UNK        -0.0983 
     18 CA         21.8694  -27.8997  -46.2045 C.3       3 UNK         0.0876 
     19 N          21.1988  -26.8270  -45.4702 N.am      3 UNK        -0.4424 
     20 C          21.2245  -25.5364  -45.8191 C.2       2 UNK         0.4918 
     21 O          21.7393  -25.1308  -46.8629 O.2       2 UNK        -0.4875 
     22 CA         20.6499  -24.5132  -44.8189 C.3       2 UNK         0.0481 
     23 CB         20.1235  -23.2348  -45.5067 C.3       2 UNK        -0.1831 
     24 N          19.6681  -25.0535  -43.8703 N.am      2 UNK        -0.4498 
     25 C          18.4075  -25.4487  -44.1074 C.2       1 UNK         0.5027 
     26 O          17.9028  -25.4781  -45.2297 O.2       1 UNK        -0.4969 
     27 C          22.1764  -29.0617  -45.2458 C.2       3 UNK         0.5005 
     28 O          21.5364  -29.1819  -44.1975 O.2       3 UNK        -0.5279 
     29 N          23.1847  -29.8633  -45.6254 N.am      4 UNK        -0.4463 
     30 CA         23.8245  -30.9481  -44.8683 C.3       4 UNK         0.0283 
     31 CB         22.8168  -32.0611  -44.5226 C.3       4 UNK        -0.1875 
     32 C          24.6035  -30.4547  -43.6307 C.2       4 UNK         0.4949 
     33 O          24.7539  -29.2476  -43.4208 O.2       4 UNK        -0.5039 
     34 N          25.1374  -31.4139  -42.8609 N.am      5 UNK        -0.4663 
     35 CA         25.9892  -31.1979  -41.6887 C.3       5 UNK         0.0242 
     36 CB         26.4194  -32.5568  -41.1148 C.3       5 UNK        -0.1982 
     37 C          25.3105  -30.3372  -40.6113 C.2       5 UNK         0.5017 
     38 O          24.1840  -30.6385  -40.2048 O.2       5 UNK        -0.5012 
     39 N          26.0001  -29.2602  -40.2069 N.am      6 UNK        -0.4439 
     40 CA         25.5783  -28.2394  -39.2360 C.3       6 UNK         0.0297 
     41 CB         25.4890  -28.8546  -37.8226 C.3       6 UNK        -0.2006 
     42 C          24.2821  -27.4881  -39.6127 C.2       6 UNK         0.4892 
     43 O          23.7025  -26.8326  -38.7459 O.2       6 UNK        -0.5089 
     44 N          23.8345  -27.6194  -40.8742 N.am      7 UNK        -0.4243 
     45 CA         22.5350  -27.1932  -41.4088 C.3       7 UNK         0.0196 
     46 CB         22.4134  -25.6539  -41.3879 C.3       7 UNK        -0.2007 
     47 C          21.3309  -27.8888  -40.7333 C.2       7 UNK         0.5020 
     48 O          20.2134  -27.3786  -40.8273 O.2       7 UNK        -0.5147 
     49 N          21.5679  -29.0166  -40.0477 N.am      8 UNK        -0.4734 
     50 CA         20.6031  -29.6693  -39.1578 C.3       8 UNK         0.0238 
     51 CB         20.8188  -29.1538  -37.7217 C.3       8 UNK        -0.1912 
     52 C          20.6658  -31.2033  -39.2428 C.2       8 UNK         0.5038 
     53 O          20.2053  -31.8783  -38.3206 O.2       8 UNK        -0.5046 
     54 N          21.2148  -31.7229  -40.3476 N.am      9 UNK        -0.4200 
     55 CA         21.3348  -33.1550  -40.6752 C.3       9 UNK         0.0839 
     56 C          22.3680  -33.9148  -39.7881 C.2       9 UNK         0.5513 
     57 N          23.3559  -33.2421  -39.2120 N.am      9 UNK        -0.7519 
     58 O          22.2898  -35.1312  -39.6324 O.2       9 UNK        -0.4960 
     59 C59        19.9613  -33.8970  -40.7551 C.3       10 UNK        -0.0876 
     60 S60        18.6220  -33.1282  -41.7440 S.3       10 UNK        -0.2414 
     61 C61        19.4894  -32.2528  -43.0904 C.3       10 UNK         0.0169 
     62 H62        19.4946  -25.1839  -39.4085 H         1 UNK         0.0903 
     63 H63        18.4210  -23.8862  -38.8872 H         1 UNK         0.0903 
     64 H64        19.8558  -23.5129  -39.8467 H         1 UNK         0.0903 
     65 H65        18.8384  -26.2926  -41.2381 H         1 UNK         0.3096 
     66 H66        16.6655  -25.2129  -42.9099 H         1 UNK         0.1121 
     67 H67        17.8948  -27.9619  -43.2940 H         1 UNK         0.0849 
     68 H68        16.8908  -27.6816  -41.9004 H         1 UNK         0.0849 
     69 H69        15.1355  -29.7094  -42.9013 H         1 UNK         0.0865 
     70 H70        14.5426  -29.6274  -44.5423 H         1 UNK         0.0865 
     71 H71        17.0626  -31.0171  -42.5579 H         1 UNK         0.1346 
     72 H72        19.9876  -31.5637  -45.6490 H         1 UNK         0.1412 
     73 H73        16.5238  -29.1519  -46.3719 H         1 UNK         0.1426 
     74 H74        18.0269  -30.1293  -48.2756 H         1 UNK         0.0716 
     75 H75        19.6360  -30.6476  -47.8465 H         1 UNK         0.0716 
     76 H76        21.5291  -27.6608  -48.3233 H         1 UNK         0.0695 
     77 H77        21.5152  -29.3202  -47.8565 H         1 UNK         0.0695 
     78 H78        22.8532  -27.5060  -46.4728 H         1 UNK         0.0983 
     79 H79        20.7766  -27.1187  -44.5987 H         1 UNK         0.3095 
     80 H80        21.4991  -24.2103  -44.2052 H         1 UNK         0.0454 
     81 H81        19.7385  -22.5206  -44.7790 H         1 UNK         0.0851 
     82 H82        19.3261  -23.4552  -46.2169 H         1 UNK         0.0851 
     83 H83        20.9173  -22.7322  -46.0606 H         1 UNK         0.0851 
     84 H84        19.9598  -25.0727  -42.9039 H         1 UNK         0.2976 
     85 H85        23.6484  -29.6402  -46.4954 H         1 UNK         0.3116 
     86 H86        24.5674  -31.3752  -45.5436 H         1 UNK         0.0646 
     87 H87        23.3173  -32.9715  -44.1924 H         1 UNK         0.0847 
     88 H88        22.1556  -31.7450  -43.7203 H         1 UNK         0.0847 
     89 H89        22.2082  -32.3311  -45.3848 H         1 UNK         0.0847 
     90 H90        24.9602  -32.3765  -43.1063 H         1 UNK         0.3040 
     91 H91        26.8860  -30.6803  -42.0359 H         1 UNK         0.1015 
     92 H92        27.0238  -32.4304  -40.2153 H         1 UNK         0.0786 
     93 H93        27.0213  -33.1166  -41.8309 H         1 UNK         0.0786 
     94 H94        25.5614  -33.1734  -40.8476 H         1 UNK         0.0786 
     95 H95        26.9038  -29.0951  -40.6299 H         1 UNK         0.3172 
     96 H96        26.3686  -27.4875  -39.2223 H         1 UNK         0.0595 
     97 H97        24.6672  -29.5672  -37.7425 H         1 UNK         0.0839 
     98 H98        25.3240  -28.0850  -37.0676 H         1 UNK         0.0839 
     99 H99        26.4096  -29.3731  -37.5553 H         1 UNK         0.0839 
    100 H100       24.3867  -28.1813  -41.5129 H         1 UNK         0.2998 
    101 H101       22.5220  -27.5108  -42.4510 H         1 UNK         0.0822 
    102 H102       21.5061  -25.3224  -41.8866 H         1 UNK         0.0787 
    103 H103       23.2532  -25.1832  -41.8989 H         1 UNK         0.0787 
    104 H104       22.3755  -25.2618  -40.3714 H         1 UNK         0.0787 
    105 H105       22.5121  -29.3909  -40.0367 H         1 UNK         0.3055 
    106 H106       19.5884  -29.4061  -39.4650 H         1 UNK         0.1106 
    107 H107       20.0818  -29.5710  -37.0344 H         1 UNK         0.0828 
    108 H108       21.8076  -29.4205  -37.3467 H         1 UNK         0.0828 
    109 H109       20.7254  -28.0688  -37.6724 H         1 UNK         0.0828 
    110 H110       21.6026  -31.0818  -41.0235 H         1 UNK         0.2931 
    111 H111       21.7714  -33.1850  -41.6733 H         1 UNK         0.0412 
    112 H112       24.0191  -33.7350  -38.6366 H         1 UNK         0.3472 
    113 H113       23.4847  -32.2540  -39.4056 H         1 UNK         0.3472 
    114 H114       20.1143  -34.8979  -41.1625 H         1 UNK         0.0970 
    115 H115       19.5673  -34.0541  -39.7496 H         1 UNK         0.0970 
    116 H116       20.1966  -31.5440  -42.6693 H         1 UNK         0.0612 
    117 H117       20.0567  -32.9859  -43.6655 H         1 UNK         0.0612 
@<TRIPOS>BOND
     1    1    2 1    
     2    1   62 1    
     3    1   63 1    
     4    1   64 1    
     5    2    3 2    
     6    2    4 am   BACKBONE|DICT|INTERRES
     7    4    5 1    
     8    4   65 1    
     9    5    6 1    
    10    5   25 1    
    11    5   66 1    
    12    6    7 1    
    13    6   67 1    
    14    6   68 1    
    15    7    8 1    
    16    8    9 1    
    17    8   69 1    
    18    8   70 1    
    19    9   10 ar   
    20    9   14 ar   
    21   10   11 ar   
    22   10   71 1    
    23   11   12 ar   
    24   11   61 1    
    25   12   13 ar   
    26   12   72 1    
    27   13   14 ar   
    28   13   15 1    
    29   14   73 1    
    30   15   16 1    
    31   15   74 1    
    32   15   75 1    
    33   16   17 1    
    34   17   18 1    
    35   17   76 1    
    36   17   77 1    
    37   18   19 1    
    38   18   27 1    
    39   18   78 1    
    40   19   20 am   BACKBONE|DICT|INTERRES
    41   19   79 1    
    42   20   21 2    
    43   20   22 1    
    44   22   23 1    
    45   22   24 1    
    46   22   80 1    
    47   23   81 1    
    48   23   82 1    
    49   23   83 1    
    50   24   25 am   BACKBONE|DICT|INTERRES
    51   24   84 1    
    52   25   26 2    
    53   27   28 2    
    54   27   29 am   BACKBONE|DICT|INTERRES
    55   29   30 1    
    56   29   85 1    
    57   30   31 1    
    58   30   32 1    
    59   30   86 1    
    60   31   87 1    
    61   31   88 1    
    62   31   89 1    
    63   32   33 2    
    64   32   34 am   BACKBONE|DICT|INTERRES
    65   34   35 1    
    66   34   90 1    
    67   35   36 1    
    68   35   37 1    
    69   35   91 1    
    70   36   92 1    
    71   36   93 1    
    72   36   94 1    
    73   37   38 2    
    74   37   39 am   BACKBONE|DICT|INTERRES
    75   39   40 1    
    76   39   95 1    
    77   40   41 1    
    78   40   42 1    
    79   40   96 1    
    80   41   97 1    
    81   41   98 1    
    82   41   99 1    
    83   42   43 2    
    84   42   44 am   BACKBONE|DICT|INTERRES
    85   44   45 1    
    86   44  100 1    
    87   45   46 1    
    88   45   47 1    
    89   45  101 1    
    90   46  102 1    
    91   46  103 1    
    92   46  104 1    
    93   47   48 2    
    94   47   49 am   BACKBONE|DICT|INTERRES
    95   49   50 1    
    96   49  105 1    
    97   50   51 1    
    98   50   52 1    
    99   50  106 1    
   100   51  107 1    
   101   51  108 1    
   102   51  109 1    
   103   52   53 2    
   104   52   54 am   BACKBONE|DICT|INTERRES
   105   54   55 1    
   106   54  110 1    
   107   55   56 1    
   108   55   59 1    
   109   55  111 1    
   110   56   57 am   BACKBONE|DICT|INTERRES
   111   56   58 2    
   112   57  112 1    
   113   57  113 1    
   114   59   60 1    
   115   59  114 1    
   116   59  115 1    
   117   60   61 1    
   118   61  116 1    
   119   61  117 1    
@<TRIPOS>SUBSTRUCTURE
     1 UNK         1 GROUP             0       ****    0 ROOT    
