@<TRIPOS>MOLECULE
3R8
117   119    1
SMALL
USER_CHARGES


@<TRIPOS>ATOM
      1 CA         20.6665  -25.5061  -40.7392 C.3       0 UNK        -0.2013 
      2 C          19.2327  -25.0335  -40.5200 C.2       0 UNK         0.4866 
      3 O          18.9715  -24.4073  -39.4945 O.2       0 UNK        -0.5176 
      4 N          18.2549  -25.3054  -41.3981 N.am      1 UNK        -0.4884 
      5 CA         18.2742  -25.9301  -42.7312 C.3       1 UNK         0.0853 
      6 C6         19.0341  -27.2795  -42.8607 C.3       10 UNK        -0.0849 
      7 S7         18.4933  -28.5402  -41.6589 S.3       10 UNK        -0.2776 
      8 C8         17.7103  -29.7925  -42.7294 C.3       10 UNK         0.0316 
      9 C9         18.7083  -30.4472  -43.6766 C.ar      10 UNK        -0.0863 
     10 C10        19.6902  -31.3086  -43.1787 C.ar      10 UNK        -0.1009 
     11 C11        20.6123  -31.9093  -44.0415 C.ar      10 UNK        -0.0712 
     12 C12        20.5572  -31.6279  -45.4096 C.ar      10 UNK        -0.0894 
     13 C13        19.5860  -30.7622  -45.9216 C.ar      10 UNK        -0.0745 
     14 C14        18.6517  -30.1911  -45.0506 C.ar      10 UNK        -0.0972 
     15 C15        19.5528  -30.4585  -47.4168 C.3       10 UNK         0.0209 
     16 S16        19.4719  -28.6755  -47.8007 S.3       10 UNK        -0.2568 
     17 C17        20.9814  -28.0418  -46.9919 C.3       10 UNK        -0.0983 
     18 CA         21.1216  -26.4996  -47.1001 C.3       3 UNK         0.0876 
     19 N          19.9120  -25.8224  -46.6255 N.am      3 UNK        -0.4424 
     20 C          19.5875  -24.5382  -46.8222 C.2       2 UNK         0.4918 
     21 O          20.2507  -23.7571  -47.5038 O.2       2 UNK        -0.4875 
     22 CA         18.3220  -24.0358  -46.0971 C.3       2 UNK         0.0481 
     23 CB         17.1260  -24.0171  -47.0621 C.3       2 UNK        -0.1831 
     24 N          17.9735  -24.8238  -44.9039 N.am      2 UNK        -0.4498 
     25 C          18.7461  -24.9401  -43.8124 C.2       1 UNK         0.5027 
     26 O          19.8294  -24.3661  -43.6907 O.2       1 UNK        -0.4969 
     27 C          22.4010  -26.0351  -46.3631 C.2       3 UNK         0.5005 
     28 O          23.4966  -26.3391  -46.8368 O.2       3 UNK        -0.5279 
     29 N          22.2510  -25.3479  -45.2141 N.am      4 UNK        -0.4463 
     30 CA         23.3088  -24.9000  -44.2944 C.3       4 UNK         0.0283 
     31 CB         24.2258  -23.8547  -44.9638 C.3       4 UNK        -0.1875 
     32 C          24.0928  -26.0676  -43.6588 C.2       4 UNK         0.4949 
     33 O          25.2721  -25.9227  -43.3365 O.2       4 UNK        -0.5039 
     34 N          23.4123  -27.2075  -43.4811 N.am      5 UNK        -0.4663 
     35 CA         23.9796  -28.4772  -43.0178 C.3       5 UNK         0.0242 
     36 CB         23.2179  -29.6162  -43.7122 C.3       5 UNK        -0.1982 
     37 C          23.9555  -28.6520  -41.4872 C.2       5 UNK         0.5017 
     38 O          24.2112  -29.7569  -41.0066 O.2       5 UNK        -0.5012 
     39 N          23.6079  -27.5868  -40.7476 N.am      6 UNK        -0.4439 
     40 CA         23.5564  -27.4954  -39.2784 C.3       6 UNK         0.0297 
     41 CB         24.9834  -27.5574  -38.6933 C.3       6 UNK        -0.2006 
     42 C          22.6086  -28.5090  -38.5979 C.2       6 UNK         0.4892 
     43 O          22.7841  -28.8009  -37.4141 O.2       6 UNK        -0.5089 
     44 N          21.6327  -29.0290  -39.3595 N.am      7 UNK        -0.4243 
     45 CA         20.6725  -30.0754  -38.9894 C.3       7 UNK         0.0196 
     46 CB         19.7028  -29.5781  -37.8969 C.3       7 UNK        -0.2007 
     47 C          21.3300  -31.4275  -38.6445 C.2       7 UNK         0.5020 
     48 O          20.7483  -32.2138  -37.8953 O.2       7 UNK        -0.5147 
     49 N          22.5075  -31.7072  -39.2283 N.am      8 UNK        -0.4734 
     50 CA         23.2797  -32.9428  -39.0247 C.3       8 UNK         0.0238 
     51 CB         24.6339  -32.8093  -39.7392 C.3       8 UNK        -0.1912 
     52 C          22.5602  -34.2291  -39.4768 C.2       8 UNK         0.5038 
     53 O          22.8964  -35.3121  -38.9963 O.2       8 UNK        -0.5046 
     54 N          21.5826  -34.0786  -40.3768 N.am      9 UNK        -0.4200 
     55 CA         20.6720  -35.1303  -40.8463 C.3       9 UNK         0.0839 
     56 C          19.5750  -35.5231  -39.8124 C.2       9 UNK         0.5513 
     57 N          19.3901  -34.7986  -38.7137 N.am      9 UNK        -0.7519 
     58 O          18.8783  -36.5148  -40.0114 O.2       9 UNK        -0.4960 
     59 C59        20.0379  -34.7554  -42.2131 C.3       10 UNK        -0.0876 
     60 S60        21.2683  -34.5812  -43.5524 S.3       10 UNK        -0.2414 
     61 C61        21.7082  -32.8137  -43.4966 C.3       10 UNK         0.0169 
     62 H62        20.7315  -26.5798  -40.5771 H         1 UNK         0.0903 
     63 H63        21.0373  -25.2680  -41.7319 H         1 UNK         0.0903 
     64 H64        21.3322  -25.0234  -40.0243 H         1 UNK         0.0903 
     65 H65        17.3387  -24.9613  -41.1459 H         1 UNK         0.3096 
     66 H66        17.2241  -26.1471  -42.9359 H         1 UNK         0.1121 
     67 H67        20.1113  -27.1539  -42.7648 H         1 UNK         0.0849 
     68 H68        18.8935  -27.6750  -43.8669 H         1 UNK         0.0849 
     69 H69        17.2584  -30.5607  -42.1002 H         1 UNK         0.0865 
     70 H70        16.8899  -29.3317  -43.2818 H         1 UNK         0.0865 
     71 H71        19.7400  -31.4981  -42.1161 H         1 UNK         0.1346 
     72 H72        21.2809  -32.0796  -46.0744 H         1 UNK         0.1412 
     73 H73        17.8922  -29.5298  -45.4448 H         1 UNK         0.1426 
     74 H74        18.6833  -30.9508  -47.8540 H         1 UNK         0.0716 
     75 H75        20.4275  -30.8780  -47.9165 H         1 UNK         0.0716 
     76 H76        21.8421  -28.5379  -47.4450 H         1 UNK         0.0695 
     77 H77        20.9665  -28.3484  -45.9441 H         1 UNK         0.0695 
     78 H78        21.2526  -26.2412  -48.1532 H         1 UNK         0.0983 
     79 H79        19.2663  -26.3982  -46.1081 H         1 UNK         0.3095 
     80 H80        18.5162  -23.0110  -45.7738 H         1 UNK         0.0454 
     81 H81        17.3463  -23.4144  -47.9445 H         1 UNK         0.0851 
     82 H82        16.2419  -23.5858  -46.5923 H         1 UNK         0.0851 
     83 H83        16.8693  -25.0188  -47.4091 H         1 UNK         0.0851 
     84 H84        17.0957  -25.3234  -44.9412 H         1 UNK         0.2976 
     85 H85        21.3095  -25.1096  -44.9196 H         1 UNK         0.3116 
     86 H86        22.7963  -24.4004  -43.4710 H         1 UNK         0.0646 
     87 H87        24.8362  -24.2948  -45.7528 H         1 UNK         0.0847 
     88 H88        23.6469  -23.0413  -45.4011 H         1 UNK         0.0847 
     89 H89        24.9080  -23.4110  -44.2377 H         1 UNK         0.0847 
     90 H90        22.4484  -27.2291  -43.7768 H         1 UNK         0.3040 
     91 H91        25.0267  -28.5348  -43.3238 H         1 UNK         0.1015 
     92 H92        23.6516  -30.5845  -43.4614 H         1 UNK         0.0786 
     93 H93        23.2568  -29.5205  -44.7976 H         1 UNK         0.0786 
     94 H94        22.1694  -29.6345  -43.4142 H         1 UNK         0.0786 
     95 H95        23.4206  -26.7311  -41.2498 H         1 UNK         0.3172 
     96 H96        23.1515  -26.5090  -39.0492 H         1 UNK         0.0595 
     97 H97        25.4309  -28.5431  -38.8263 H         1 UNK         0.0839 
     98 H98        24.9814  -27.3435  -37.6237 H         1 UNK         0.0839 
     99 H99        25.6388  -26.8253  -39.1651 H         1 UNK         0.0839 
    100 H100       21.5928  -28.7282  -40.3221 H         1 UNK         0.2998 
    101 H101       20.0790  -30.2673  -39.8831 H         1 UNK         0.0822 
    102 H102       18.9000  -30.2971  -37.7290 H         1 UNK         0.0787 
    103 H103       20.2084  -29.4276  -36.9428 H         1 UNK         0.0787 
    104 H104       19.2353  -28.6360  -38.1837 H         1 UNK         0.0787 
    105 H105       22.9406  -31.0007  -39.8148 H         1 UNK         0.3055 
    106 H106       23.4636  -33.0423  -37.9527 H         1 UNK         0.1106 
    107 H107       25.1991  -31.9566  -39.3621 H         1 UNK         0.0828 
    108 H108       25.2486  -33.6975  -39.5863 H         1 UNK         0.0828 
    109 H109       24.5103  -32.6777  -40.8151 H         1 UNK         0.0828 
    110 H110       21.3819  -33.1436  -40.6916 H         1 UNK         0.2931 
    111 H111       21.2698  -36.0311  -40.9996 H         1 UNK         0.0412 
    112 H112       18.6763  -35.0774  -38.0593 H         1 UNK         0.3472 
    113 H113       19.9518  -33.9767  -38.5203 H         1 UNK         0.3472 
    114 H114       19.4356  -33.8514  -42.1302 H         1 UNK         0.0970 
    115 H115       19.3452  -35.5373  -42.5308 H         1 UNK         0.0970 
    116 H116       21.9788  -32.5152  -42.4847 H         1 UNK         0.0612 
    117 H117       22.6123  -32.6796  -44.0920 H         1 UNK         0.0612 
@<TRIPOS>BOND
     1    1    2 1    
     2    1   62 1    
     3    1   63 1    
     4    1   64 1    
     5    2    3 2    
     6    2    4 am   BACKBONE|DICT|INTERRES
     7    4    5 1    
     8    4   65 1    
     9    5    6 1    
    10    5   25 1    
    11    5   66 1    
    12    6    7 1    
    13    6   67 1    
    14    6   68 1    
    15    7    8 1    
    16    8    9 1    
    17    8   69 1    
    18    8   70 1    
    19    9   10 ar   
    20    9   14 ar   
    21   10   11 ar   
    22   10   71 1    
    23   11   12 ar   
    24   11   61 1    
    25   12   13 ar   
    26   12   72 1    
    27   13   14 ar   
    28   13   15 1    
    29   14   73 1    
    30   15   16 1    
    31   15   74 1    
    32   15   75 1    
    33   16   17 1    
    34   17   18 1    
    35   17   76 1    
    36   17   77 1    
    37   18   19 1    
    38   18   27 1    
    39   18   78 1    
    40   19   20 am   BACKBONE|DICT|INTERRES
    41   19   79 1    
    42   20   21 2    
    43   20   22 1    
    44   22   23 1    
    45   22   24 1    
    46   22   80 1    
    47   23   81 1    
    48   23   82 1    
    49   23   83 1    
    50   24   25 am   BACKBONE|DICT|INTERRES
    51   24   84 1    
    52   25   26 2    
    53   27   28 2    
    54   27   29 am   BACKBONE|DICT|INTERRES
    55   29   30 1    
    56   29   85 1    
    57   30   31 1    
    58   30   32 1    
    59   30   86 1    
    60   31   87 1    
    61   31   88 1    
    62   31   89 1    
    63   32   33 2    
    64   32   34 am   BACKBONE|DICT|INTERRES
    65   34   35 1    
    66   34   90 1    
    67   35   36 1    
    68   35   37 1    
    69   35   91 1    
    70   36   92 1    
    71   36   93 1    
    72   36   94 1    
    73   37   38 2    
    74   37   39 am   BACKBONE|DICT|INTERRES
    75   39   40 1    
    76   39   95 1    
    77   40   41 1    
    78   40   42 1    
    79   40   96 1    
    80   41   97 1    
    81   41   98 1    
    82   41   99 1    
    83   42   43 2    
    84   42   44 am   BACKBONE|DICT|INTERRES
    85   44   45 1    
    86   44  100 1    
    87   45   46 1    
    88   45   47 1    
    89   45  101 1    
    90   46  102 1    
    91   46  103 1    
    92   46  104 1    
    93   47   48 2    
    94   47   49 am   BACKBONE|DICT|INTERRES
    95   49   50 1    
    96   49  105 1    
    97   50   51 1    
    98   50   52 1    
    99   50  106 1    
   100   51  107 1    
   101   51  108 1    
   102   51  109 1    
   103   52   53 2    
   104   52   54 am   BACKBONE|DICT|INTERRES
   105   54   55 1    
   106   54  110 1    
   107   55   56 1    
   108   55   59 1    
   109   55  111 1    
   110   56   57 am   BACKBONE|DICT|INTERRES
   111   56   58 2    
   112   57  112 1    
   113   57  113 1    
   114   59   60 1    
   115   59  114 1    
   116   59  115 1    
   117   60   61 1    
   118   61  116 1    
   119   61  117 1    
@<TRIPOS>SUBSTRUCTURE
     1 UNK         1 GROUP             0       ****    0 ROOT    
