@<TRIPOS>MOLECULE
3R8
117   119    1
SMALL
USER_CHARGES


@<TRIPOS>ATOM
      1 CA         19.2572  -24.4344  -49.5337 C.3       0 UNK        -0.2013 
      2 C          19.8207  -24.9999  -48.2385 C.2       0 UNK         0.4866 
      3 O          20.7142  -24.3956  -47.6441 O.2       0 UNK        -0.5176 
      4 N          19.3121  -26.1581  -47.8024 N.am      1 UNK        -0.4884 
      5 CA         19.6738  -26.8104  -46.5402 C.3       1 UNK         0.0853 
      6 C6         19.2970  -28.3167  -46.5484 C.3       10 UNK        -0.0849 
      7 S7         17.5337  -28.6550  -46.8896 S.3       10 UNK        -0.2776 
      8 C8         17.4433  -30.4506  -46.5921 C.3       10 UNK         0.0316 
      9 C9         17.4554  -30.8122  -45.1106 C.ar      10 UNK        -0.0863 
     10 C10        18.4783  -31.6096  -44.5877 C.ar      10 UNK        -0.1009 
     11 C11        18.4683  -31.9904  -43.2413 C.ar      10 UNK        -0.0712 
     12 C12        17.4206  -31.5703  -42.4168 C.ar      10 UNK        -0.0894 
     13 C13        16.3881  -30.7797  -42.9270 C.ar      10 UNK        -0.0745 
     14 C14        16.4122  -30.4017  -44.2735 C.ar      10 UNK        -0.0972 
     15 C15        15.2235  -30.3703  -42.0374 C.3       10 UNK         0.0209 
     16 S16        15.4197  -28.6817  -41.3931 S.3       10 UNK        -0.2568 
     17 C17        16.5623  -28.9155  -39.9832 C.3       10 UNK        -0.0983 
     18 CA         18.0554  -28.6369  -40.3113 C.3       3 UNK         0.0876 
     19 N          18.2124  -27.4121  -41.1051 N.am      3 UNK        -0.4424 
     20 C          19.2253  -27.1828  -41.9433 C.2       2 UNK         0.4918 
     21 O          20.2299  -27.8895  -42.0126 O.2       2 UNK        -0.4875 
     22 CA         19.0885  -25.9566  -42.8495 C.3       2 UNK         0.0481 
     23 CB         19.8041  -24.7324  -42.2577 C.3       2 UNK        -0.1831 
     24 N          19.6578  -26.2995  -44.1487 N.am      2 UNK        -0.4498 
     25 C          19.0591  -26.0843  -45.3241 C.2       1 UNK         0.5027 
     26 O          18.0435  -25.3944  -45.4603 O.2       1 UNK        -0.4969 
     27 C          18.9032  -28.6409  -39.0165 C.2       3 UNK         0.5005 
     28 O          18.8811  -29.6335  -38.2871 O.2       3 UNK        -0.5279 
     29 N          19.5862  -27.5240  -38.7223 N.am      4 UNK        -0.4463 
     30 CA         20.2821  -27.2437  -37.4632 C.3       4 UNK         0.0283 
     31 CB         20.7368  -25.7747  -37.4615 C.3       4 UNK        -0.1875 
     32 C          21.4729  -28.1647  -37.1439 C.2       4 UNK         0.4949 
     33 O          21.7519  -28.3826  -35.9641 O.2       4 UNK        -0.5039 
     34 N          22.1626  -28.6728  -38.1710 N.am      5 UNK        -0.4663 
     35 CA         23.3329  -29.5388  -38.0386 C.3       5 UNK         0.0242 
     36 CB         24.5819  -28.6932  -37.7209 C.3       5 UNK        -0.1982 
     37 C          23.5345  -30.3142  -39.3411 C.2       5 UNK         0.5017 
     38 O          23.1489  -29.8203  -40.4015 O.2       5 UNK        -0.5012 
     39 N          24.1951  -31.4772  -39.2496 N.am      6 UNK        -0.4439 
     40 CA         24.5101  -32.3642  -40.3781 C.3       6 UNK         0.0297 
     41 CB         25.1925  -33.6374  -39.8531 C.3       6 UNK        -0.2006 
     42 C          25.3682  -31.7112  -41.4777 C.2       6 UNK         0.4892 
     43 O          25.2273  -32.0686  -42.6465 O.2       6 UNK        -0.5089 
     44 N          26.2136  -30.7450  -41.0935 N.am      7 UNK        -0.4243 
     45 CA         27.0133  -29.9274  -42.0084 C.3       7 UNK         0.0196 
     46 CB         28.0844  -29.1757  -41.2014 C.3       7 UNK        -0.2007 
     47 C          26.1736  -28.9362  -42.8368 C.2       7 UNK         0.5020 
     48 O          26.6149  -28.5342  -43.9132 O.2       7 UNK        -0.5147 
     49 N          24.9914  -28.5562  -42.3328 N.am      8 UNK        -0.4734 
     50 CA         24.0677  -27.6249  -42.9840 C.3       8 UNK         0.0238 
     51 CB         23.4362  -26.7241  -41.9116 C.3       8 UNK        -0.1912 
     52 C          22.9854  -28.3418  -43.8118 C.2       8 UNK         0.5038 
     53 O          22.2388  -27.6665  -44.5221 O.2       8 UNK        -0.5046 
     54 N          22.9210  -29.6779  -43.7292 N.am      9 UNK        -0.4200 
     55 CA         22.0140  -30.5300  -44.5141 C.3       9 UNK         0.0839 
     56 C          22.3314  -30.5907  -46.0373 C.2       9 UNK         0.5513 
     57 N          23.4816  -30.1197  -46.5044 N.am      9 UNK        -0.7519 
     58 O          21.5095  -31.0737  -46.8110 O.2       9 UNK        -0.4960 
     59 C59        21.9169  -31.9580  -43.9197 C.3       10 UNK        -0.0876 
     60 S60        21.0847  -31.9840  -42.2960 S.3       10 UNK        -0.2414 
     61 C61        19.5564  -32.8950  -42.6793 C.3       10 UNK         0.0169 
     62 H62        18.8198  -23.4525  -49.3549 H         1 UNK         0.0903 
     63 H63        20.0507  -24.3250  -50.2725 H         1 UNK         0.0903 
     64 H64        18.4856  -25.0770  -49.9578 H         1 UNK         0.0903 
     65 H65        18.5507  -26.5947  -48.3033 H         1 UNK         0.3096 
     66 H66        20.7593  -26.7404  -46.4406 H         1 UNK         0.1121 
     67 H67        19.5612  -28.7784  -45.5964 H         1 UNK         0.0849 
     68 H68        19.8922  -28.8336  -47.3026 H         1 UNK         0.0849 
     69 H69        16.5217  -30.8308  -47.0350 H         1 UNK         0.0865 
     70 H70        18.2597  -30.9430  -47.1235 H         1 UNK         0.0865 
     71 H71        19.2742  -31.9480  -45.2357 H         1 UNK         0.1346 
     72 H72        17.4004  -31.8719  -41.3784 H         1 UNK         0.1412 
     73 H73        15.6108  -29.7962  -44.6752 H         1 UNK         0.1426 
     74 H74        15.0958  -31.0728  -41.2124 H         1 UNK         0.0716 
     75 H75        14.2985  -30.4153  -42.6141 H         1 UNK         0.0716 
     76 H76        16.4427  -29.9258  -39.5878 H         1 UNK         0.0695 
     77 H77        16.2207  -28.2453  -39.1917 H         1 UNK         0.0695 
     78 H78        18.4247  -29.4692  -40.9137 H         1 UNK         0.0983 
     79 H79        17.4168  -26.7898  -41.1100 H         1 UNK         0.3095 
     80 H80        18.0258  -25.7259  -42.9521 H         1 UNK         0.0454 
     81 H81        20.8608  -24.9230  -42.0807 H         1 UNK         0.0851 
     82 H82        19.3614  -24.4451  -41.3034 H         1 UNK         0.0851 
     83 H83        19.7269  -23.8717  -42.9220 H         1 UNK         0.0851 
     84 H84        20.4847  -26.8942  -44.1135 H         1 UNK         0.2976 
     85 H85        19.5483  -26.7722  -39.3942 H         1 UNK         0.3116 
     86 H86        19.5548  -27.3722  -36.6587 H         1 UNK         0.0646 
     87 H87        19.8917  -25.0945  -37.5688 H         1 UNK         0.0847 
     88 H88        21.2350  -25.5211  -36.5245 H         1 UNK         0.0847 
     89 H89        21.4409  -25.5692  -38.2690 H         1 UNK         0.0847 
     90 H90        21.8579  -28.5068  -39.1230 H         1 UNK         0.3040 
     91 H91        23.1562  -30.2557  -37.2333 H         1 UNK         0.1015 
     92 H92        24.7778  -27.9577  -38.5026 H         1 UNK         0.0786 
     93 H93        25.4706  -29.3188  -37.6291 H         1 UNK         0.0786 
     94 H94        24.4718  -28.1559  -36.7788 H         1 UNK         0.0786 
     95 H95        24.4908  -31.7933  -38.3366 H         1 UNK         0.3172 
     96 H96        23.5639  -32.6548  -40.8368 H         1 UNK         0.0595 
     97 H97        26.1344  -33.4149  -39.3501 H         1 UNK         0.0839 
     98 H98        25.4150  -34.3253  -40.6703 H         1 UNK         0.0839 
     99 H99        24.5525  -34.1716  -39.1506 H         1 UNK         0.0839 
    100 H100       26.2722  -30.5233  -40.1105 H         1 UNK         0.2998 
    101 H101       27.5175  -30.5956  -42.7101 H         1 UNK         0.0822 
    102 H102       28.7181  -28.5770  -41.8574 H         1 UNK         0.0787 
    103 H103       27.6392  -28.4981  -40.4716 H         1 UNK         0.0787 
    104 H104       28.7366  -29.8663  -40.6665 H         1 UNK         0.0787 
    105 H105       24.6541  -28.9806  -41.4748 H         1 UNK         0.3055 
    106 H106       24.6200  -26.9828  -43.6739 H         1 UNK         0.1106 
    107 H107       24.1957  -26.2268  -41.3083 H         1 UNK         0.0828 
    108 H108       22.8354  -25.9456  -42.3788 H         1 UNK         0.0828 
    109 H109       22.7853  -27.2849  -41.2404 H         1 UNK         0.0828 
    110 H110       23.5494  -30.1540  -43.0988 H         1 UNK         0.2931 
    111 H111       21.0234  -30.0810  -44.4366 H         1 UNK         0.0412 
    112 H112       23.6680  -30.1661  -47.4938 H         1 UNK         0.3472 
    113 H113       24.1654  -29.7241  -45.8792 H         1 UNK         0.3472 
    114 H114       21.3903  -32.6312  -44.5972 H         1 UNK         0.0970 
    115 H115       22.9112  -32.3912  -43.8080 H         1 UNK         0.0970 
    116 H116       19.2078  -33.3692  -41.7606 H         1 UNK         0.0612 
    117 H117       19.7634  -33.7118  -43.3719 H         1 UNK         0.0612 
@<TRIPOS>BOND
     1    1    2 1    
     2    1   62 1    
     3    1   63 1    
     4    1   64 1    
     5    2    3 2    
     6    2    4 am   BACKBONE|DICT|INTERRES
     7    4    5 1    
     8    4   65 1    
     9    5    6 1    
    10    5   25 1    
    11    5   66 1    
    12    6    7 1    
    13    6   67 1    
    14    6   68 1    
    15    7    8 1    
    16    8    9 1    
    17    8   69 1    
    18    8   70 1    
    19    9   10 ar   
    20    9   14 ar   
    21   10   11 ar   
    22   10   71 1    
    23   11   12 ar   
    24   11   61 1    
    25   12   13 ar   
    26   12   72 1    
    27   13   14 ar   
    28   13   15 1    
    29   14   73 1    
    30   15   16 1    
    31   15   74 1    
    32   15   75 1    
    33   16   17 1    
    34   17   18 1    
    35   17   76 1    
    36   17   77 1    
    37   18   19 1    
    38   18   27 1    
    39   18   78 1    
    40   19   20 am   BACKBONE|DICT|INTERRES
    41   19   79 1    
    42   20   21 2    
    43   20   22 1    
    44   22   23 1    
    45   22   24 1    
    46   22   80 1    
    47   23   81 1    
    48   23   82 1    
    49   23   83 1    
    50   24   25 am   BACKBONE|DICT|INTERRES
    51   24   84 1    
    52   25   26 2    
    53   27   28 2    
    54   27   29 am   BACKBONE|DICT|INTERRES
    55   29   30 1    
    56   29   85 1    
    57   30   31 1    
    58   30   32 1    
    59   30   86 1    
    60   31   87 1    
    61   31   88 1    
    62   31   89 1    
    63   32   33 2    
    64   32   34 am   BACKBONE|DICT|INTERRES
    65   34   35 1    
    66   34   90 1    
    67   35   36 1    
    68   35   37 1    
    69   35   91 1    
    70   36   92 1    
    71   36   93 1    
    72   36   94 1    
    73   37   38 2    
    74   37   39 am   BACKBONE|DICT|INTERRES
    75   39   40 1    
    76   39   95 1    
    77   40   41 1    
    78   40   42 1    
    79   40   96 1    
    80   41   97 1    
    81   41   98 1    
    82   41   99 1    
    83   42   43 2    
    84   42   44 am   BACKBONE|DICT|INTERRES
    85   44   45 1    
    86   44  100 1    
    87   45   46 1    
    88   45   47 1    
    89   45  101 1    
    90   46  102 1    
    91   46  103 1    
    92   46  104 1    
    93   47   48 2    
    94   47   49 am   BACKBONE|DICT|INTERRES
    95   49   50 1    
    96   49  105 1    
    97   50   51 1    
    98   50   52 1    
    99   50  106 1    
   100   51  107 1    
   101   51  108 1    
   102   51  109 1    
   103   52   53 2    
   104   52   54 am   BACKBONE|DICT|INTERRES
   105   54   55 1    
   106   54  110 1    
   107   55   56 1    
   108   55   59 1    
   109   55  111 1    
   110   56   57 am   BACKBONE|DICT|INTERRES
   111   56   58 2    
   112   57  112 1    
   113   57  113 1    
   114   59   60 1    
   115   59  114 1    
   116   59  115 1    
   117   60   61 1    
   118   61  116 1    
   119   61  117 1    
@<TRIPOS>SUBSTRUCTURE
     1 UNK         1 GROUP             0       ****    0 ROOT    
