@<TRIPOS>MOLECULE
3R8
117   119    1
SMALL
USER_CHARGES


@<TRIPOS>ATOM
      1 CA         16.6304  -23.6381  -46.7028 C.3       0 UNK        -0.2013 
      2 C          16.4756  -23.2597  -45.2314 C.2       0 UNK         0.4866 
      3 O          16.1085  -22.1231  -44.9407 O.2       0 UNK        -0.5176 
      4 N          16.7270  -24.1585  -44.2672 N.am      1 UNK        -0.4884 
      5 CA         17.2130  -25.5362  -44.4256 C.3       1 UNK         0.0853 
      6 C6         17.1931  -26.3016  -43.0804 C.3       10 UNK        -0.0849 
      7 S7         15.5193  -26.8045  -42.5627 S.3       10 UNK        -0.2776 
      8 C8         15.1820  -28.2485  -43.6317 C.3       10 UNK         0.0316 
      9 C9         16.3023  -29.2814  -43.6141 C.ar      10 UNK        -0.0863 
     10 C10        16.4202  -30.1821  -42.5505 C.ar      10 UNK        -0.1009 
     11 C11        17.4494  -31.1286  -42.5387 C.ar      10 UNK        -0.0712 
     12 C12        18.3560  -31.1708  -43.6003 C.ar      10 UNK        -0.0894 
     13 C13        18.2704  -30.2583  -44.6577 C.ar      10 UNK        -0.0745 
     14 C14        17.2262  -29.3297  -44.6647 C.ar      10 UNK        -0.0972 
     15 C15        19.2724  -30.2771  -45.8109 C.3       10 UNK         0.0209 
     16 S16        20.9595  -30.7498  -45.2965 S.3       10 UNK        -0.2568 
     17 C17        21.9679  -29.2976  -45.7600 C.3       10 UNK        -0.0983 
     18 CA         22.2423  -28.1985  -44.6864 C.3       3 UNK         0.0876 
     19 N          21.4977  -26.9662  -44.9728 N.am      3 UNK        -0.4424 
     20 C          21.8082  -25.7525  -44.4997 C.2       2 UNK         0.4918 
     21 O          22.7334  -25.5512  -43.7143 O.2       2 UNK        -0.4875 
     22 CA         20.9340  -24.5675  -44.9534 C.3       2 UNK         0.0481 
     23 CB         21.1228  -24.2690  -46.4539 C.3       2 UNK        -0.1831 
     24 N          19.5134  -24.6974  -44.5995 N.am      2 UNK        -0.4498 
     25 C          18.6284  -25.6099  -45.0276 C.2       1 UNK         0.5027 
     26 O          18.8856  -26.4918  -45.8473 O.2       1 UNK        -0.4969 
     27 C          22.1166  -28.6360  -43.2068 C.2       3 UNK         0.5005 
     28 O          23.0514  -29.2293  -42.6655 O.2       3 UNK        -0.5279 
     29 N          21.0031  -28.2729  -42.5520 N.am      4 UNK        -0.4463 
     30 CA         20.7779  -28.4842  -41.1195 C.3       4 UNK         0.0283 
     31 CB         19.3231  -28.1492  -40.7620 C.3       4 UNK        -0.1875 
     32 C          21.7423  -27.6855  -40.2265 C.2       4 UNK         0.4949 
     33 O          22.1165  -28.1775  -39.1634 O.2       4 UNK        -0.5039 
     34 N          22.1698  -26.4966  -40.6805 N.am      5 UNK        -0.4663 
     35 CA         23.1657  -25.6665  -39.9909 C.3       5 UNK         0.0242 
     36 CB         23.1294  -24.2359  -40.5516 C.3       5 UNK        -0.1982 
     37 C          24.5865  -26.2528  -40.0770 C.2       5 UNK         0.5017 
     38 O          25.3947  -26.0113  -39.1807 O.2       5 UNK        -0.5012 
     39 N          24.8483  -27.0425  -41.1280 N.am      6 UNK        -0.4439 
     40 CA         26.0588  -27.8498  -41.2970 C.3       6 UNK         0.0297 
     41 CB         26.3328  -28.0246  -42.8013 C.3       6 UNK        -0.2006 
     42 C          25.9609  -29.2212  -40.5956 C.2       6 UNK         0.4892 
     43 O          26.9366  -29.9719  -40.6271 O.2       6 UNK        -0.5089 
     44 N          24.7988  -29.5273  -39.9939 N.am      7 UNK        -0.4243 
     45 CA         24.4272  -30.7820  -39.3308 C.3       7 UNK         0.0196 
     46 CB         25.2834  -31.0150  -38.0675 C.3       7 UNK        -0.2007 
     47 C          24.4162  -31.9905  -40.2870 C.2       7 UNK         0.5020 
     48 O          24.7451  -33.1030  -39.8733 O.2       7 UNK        -0.5147 
     49 N          24.0253  -31.7619  -41.5487 N.am      8 UNK        -0.4734 
     50 CA         23.9892  -32.7803  -42.6035 C.3       8 UNK         0.0238 
     51 CB         24.3020  -32.1104  -43.9522 C.3       8 UNK        -0.1912 
     52 C          22.6740  -33.5859  -42.6493 C.2       8 UNK         0.5038 
     53 O          22.5047  -34.3904  -43.5672 O.2       8 UNK        -0.5046 
     54 N          21.7760  -33.3755  -41.6752 N.am      9 UNK        -0.4200 
     55 CA         20.5360  -34.1433  -41.4705 C.3       9 UNK         0.0839 
     56 C          20.7910  -35.6645  -41.2795 C.2       9 UNK         0.5513 
     57 N          19.9429  -36.5122  -41.8454 N.am      9 UNK        -0.7519 
     58 O          21.7167  -36.0770  -40.5837 O.2       9 UNK        -0.4960 
     59 C59        19.7112  -33.5982  -40.2737 C.3       10 UNK        -0.0876 
     60 S60        19.1719  -31.8738  -40.5077 S.3       10 UNK        -0.2414 
     61 C61        17.5946  -32.1149  -41.3901 C.3       10 UNK         0.0169 
     62 H62        16.0823  -22.9367  -47.3317 H         1 UNK         0.0903 
     63 H63        17.6780  -23.6002  -47.0004 H         1 UNK         0.0903 
     64 H64        16.2395  -24.6325  -46.9128 H         1 UNK         0.0903 
     65 H65        16.5683  -23.8739  -43.3108 H         1 UNK         0.3096 
     66 H66        16.5514  -26.0520  -45.1233 H         1 UNK         0.1121 
     67 H67        17.8239  -27.1897  -43.1083 H         1 UNK         0.0849 
     68 H68        17.6171  -25.6825  -42.2877 H         1 UNK         0.0849 
     69 H69        14.2525  -28.7168  -43.3046 H         1 UNK         0.0865 
     70 H70        14.9971  -27.9051  -44.6506 H         1 UNK         0.0865 
     71 H71        15.7140  -30.1406  -41.7324 H         1 UNK         0.1346 
     72 H72        19.1439  -31.9107  -43.5843 H         1 UNK         0.1412 
     73 H73        17.1405  -28.6323  -45.4870 H         1 UNK         0.1426 
     74 H74        18.9255  -30.9891  -46.5606 H         1 UNK         0.0716 
     75 H75        19.2976  -29.3022  -46.2996 H         1 UNK         0.0716 
     76 H76        22.9306  -29.7115  -46.0643 H         1 UNK         0.0695 
     77 H77        21.5674  -28.8612  -46.6765 H         1 UNK         0.0695 
     78 H78        23.2949  -27.9270  -44.8004 H         1 UNK         0.0983 
     79 H79        20.6715  -27.0440  -45.5601 H         1 UNK         0.3095 
     80 H80        21.2907  -23.6928  -44.4069 H         1 UNK         0.0454 
     81 H81        20.7831  -25.0883  -47.0878 H         1 UNK         0.0851 
     82 H82        20.5780  -23.3724  -46.7490 H         1 UNK         0.0851 
     83 H83        22.1748  -24.0976  -46.6858 H         1 UNK         0.0851 
     84 H84        19.1813  -24.0238  -43.9223 H         1 UNK         0.2976 
     85 H85        20.2746  -27.8110  -43.0737 H         1 UNK         0.3116 
     86 H86        20.9459  -29.5433  -40.9162 H         1 UNK         0.0646 
     87 H87        19.1177  -28.3887  -39.7179 H         1 UNK         0.0847 
     88 H88        18.6228  -28.7270  -41.3636 H         1 UNK         0.0847 
     89 H89        19.1035  -27.0908  -40.9005 H         1 UNK         0.0847 
     90 H90        21.8533  -26.1709  -41.5837 H         1 UNK         0.3040 
     91 H91        22.8961  -25.6216  -38.9330 H         1 UNK         0.1015 
     92 H92        22.1298  -23.8062  -40.4843 H         1 UNK         0.0786 
     93 H93        23.4436  -24.1984  -41.5946 H         1 UNK         0.0786 
     94 H94        23.7998  -23.5838  -39.9901 H         1 UNK         0.0786 
     95 H95        24.1149  -27.1864  -41.8092 H         1 UNK         0.3172 
     96 H96        26.9065  -27.3191  -40.8589 H         1 UNK         0.0595 
     97 H97        27.2740  -28.5504  -42.9672 H         1 UNK         0.0839 
     98 H98        26.4084  -27.0618  -43.3070 H         1 UNK         0.0839 
     99 H99        25.5503  -28.6027  -43.2931 H         1 UNK         0.0839 
    100 H100       24.0614  -28.8353  -40.0271 H         1 UNK         0.2998 
    101 H101       23.3943  -30.6536  -39.0040 H         1 UNK         0.0822 
    102 H102       25.2596  -30.1478  -37.4076 H         1 UNK         0.0787 
    103 H103       24.9125  -31.8661  -37.4952 H         1 UNK         0.0787 
    104 H104       26.3252  -31.2205  -38.3154 H         1 UNK         0.0787 
    105 H105       23.7486  -30.8209  -41.8233 H         1 UNK         0.3055 
    106 H106       24.7808  -33.5091  -42.4149 H         1 UNK         0.1106 
    107 H107       24.3270  -32.8396  -44.7628 H         1 UNK         0.0828 
    108 H108       23.5551  -31.3627  -44.2093 H         1 UNK         0.0828 
    109 H109       25.2733  -31.6160  -43.9320 H         1 UNK         0.0828 
    110 H110       21.9990  -32.6935  -40.9676 H         1 UNK         0.2931 
    111 H111       19.9415  -34.0168  -42.3775 H         1 UNK         0.0412 
    112 H112       19.1751  -36.1839  -42.4108 H         1 UNK         0.3472 
    113 H113       20.0815  -37.5029  -41.7178 H         1 UNK         0.3472 
    114 H114       20.2992  -33.6485  -39.3552 H         1 UNK         0.0970 
    115 H115       18.8287  -34.2155  -40.0927 H         1 UNK         0.0970 
    116 H116       16.7728  -32.0166  -40.6794 H         1 UNK         0.0612 
    117 H117       17.5358  -33.1257  -41.7959 H         1 UNK         0.0612 
@<TRIPOS>BOND
     1    1    2 1    
     2    1   62 1    
     3    1   63 1    
     4    1   64 1    
     5    2    3 2    
     6    2    4 am   BACKBONE|DICT|INTERRES
     7    4    5 1    
     8    4   65 1    
     9    5    6 1    
    10    5   25 1    
    11    5   66 1    
    12    6    7 1    
    13    6   67 1    
    14    6   68 1    
    15    7    8 1    
    16    8    9 1    
    17    8   69 1    
    18    8   70 1    
    19    9   10 ar   
    20    9   14 ar   
    21   10   11 ar   
    22   10   71 1    
    23   11   12 ar   
    24   11   61 1    
    25   12   13 ar   
    26   12   72 1    
    27   13   14 ar   
    28   13   15 1    
    29   14   73 1    
    30   15   16 1    
    31   15   74 1    
    32   15   75 1    
    33   16   17 1    
    34   17   18 1    
    35   17   76 1    
    36   17   77 1    
    37   18   19 1    
    38   18   27 1    
    39   18   78 1    
    40   19   20 am   BACKBONE|DICT|INTERRES
    41   19   79 1    
    42   20   21 2    
    43   20   22 1    
    44   22   23 1    
    45   22   24 1    
    46   22   80 1    
    47   23   81 1    
    48   23   82 1    
    49   23   83 1    
    50   24   25 am   BACKBONE|DICT|INTERRES
    51   24   84 1    
    52   25   26 2    
    53   27   28 2    
    54   27   29 am   BACKBONE|DICT|INTERRES
    55   29   30 1    
    56   29   85 1    
    57   30   31 1    
    58   30   32 1    
    59   30   86 1    
    60   31   87 1    
    61   31   88 1    
    62   31   89 1    
    63   32   33 2    
    64   32   34 am   BACKBONE|DICT|INTERRES
    65   34   35 1    
    66   34   90 1    
    67   35   36 1    
    68   35   37 1    
    69   35   91 1    
    70   36   92 1    
    71   36   93 1    
    72   36   94 1    
    73   37   38 2    
    74   37   39 am   BACKBONE|DICT|INTERRES
    75   39   40 1    
    76   39   95 1    
    77   40   41 1    
    78   40   42 1    
    79   40   96 1    
    80   41   97 1    
    81   41   98 1    
    82   41   99 1    
    83   42   43 2    
    84   42   44 am   BACKBONE|DICT|INTERRES
    85   44   45 1    
    86   44  100 1    
    87   45   46 1    
    88   45   47 1    
    89   45  101 1    
    90   46  102 1    
    91   46  103 1    
    92   46  104 1    
    93   47   48 2    
    94   47   49 am   BACKBONE|DICT|INTERRES
    95   49   50 1    
    96   49  105 1    
    97   50   51 1    
    98   50   52 1    
    99   50  106 1    
   100   51  107 1    
   101   51  108 1    
   102   51  109 1    
   103   52   53 2    
   104   52   54 am   BACKBONE|DICT|INTERRES
   105   54   55 1    
   106   54  110 1    
   107   55   56 1    
   108   55   59 1    
   109   55  111 1    
   110   56   57 am   BACKBONE|DICT|INTERRES
   111   56   58 2    
   112   57  112 1    
   113   57  113 1    
   114   59   60 1    
   115   59  114 1    
   116   59  115 1    
   117   60   61 1    
   118   61  116 1    
   119   61  117 1    
@<TRIPOS>SUBSTRUCTURE
     1 UNK         1 GROUP             0       ****    0 ROOT    
