@<TRIPOS>MOLECULE
3R8
117   119    1
SMALL
USER_CHARGES


@<TRIPOS>ATOM
      1 CA         17.7823  -29.7956  -50.5711 C.3       0 UNK        -0.2013 
      2 C          18.7139  -29.7481  -49.3692 C.2       0 UNK         0.4866 
      3 O          19.9113  -29.9987  -49.5117 O.2       0 UNK        -0.5176 
      4 N          18.1733  -29.4368  -48.1856 N.am      1 UNK        -0.4884 
      5 CA         18.9286  -29.2685  -46.9411 C.3       1 UNK         0.0853 
      6 C6         18.0088  -29.4046  -45.6966 C.3       10 UNK        -0.0849 
      7 S7         16.6574  -28.1793  -45.5988 S.3       10 UNK        -0.2776 
      8 C8         15.6430  -28.8583  -44.2461 C.3       10 UNK         0.0316 
      9 C9         16.3100  -28.7460  -42.8788 C.ar      10 UNK        -0.0863 
     10 C10        16.5958  -29.8974  -42.1375 C.ar      10 UNK        -0.1009 
     11 C11        17.1412  -29.7996  -40.8541 C.ar      10 UNK        -0.0712 
     12 C12        17.3867  -28.5375  -40.3071 C.ar      10 UNK        -0.0894 
     13 C13        17.1345  -27.3753  -41.0454 C.ar      10 UNK        -0.0745 
     14 C14        16.5907  -27.4895  -42.3296 C.ar      10 UNK        -0.0972 
     15 C15        17.4336  -25.9963  -40.4607 C.3       10 UNK         0.0209 
     16 S16        19.0715  -25.8851  -39.6565 S.3       10 UNK        -0.2568 
     17 C17        20.2171  -25.7959  -41.0781 C.3       10 UNK        -0.0983 
     18 CA         20.4790  -27.1576  -41.7917 C.3       3 UNK         0.0876 
     19 N          21.0848  -27.0153  -43.1104 N.am      3 UNK        -0.4424 
     20 C          20.5403  -26.4131  -44.1738 C.2       2 UNK         0.4918 
     21 O          19.4840  -25.7822  -44.1487 O.2       2 UNK        -0.4875 
     22 CA         21.2481  -26.6172  -45.5199 C.3       2 UNK         0.0481 
     23 CB         22.7812  -26.6904  -45.4131 C.3       2 UNK        -0.1831 
     24 N          20.7191  -27.8661  -46.0569 N.am      2 UNK        -0.4498 
     25 C          19.6998  -27.9318  -46.9201 C.2       1 UNK         0.5027 
     26 O          19.3256  -26.9847  -47.6193 O.2       1 UNK        -0.4969 
     27 C          21.3672  -28.1077  -40.9668 C.2       3 UNK         0.5005 
     28 O          22.4757  -28.4530  -41.3935 O.2       3 UNK        -0.5279 
     29 N          20.8844  -28.4745  -39.7733 N.am      4 UNK        -0.4463 
     30 CA         21.5925  -29.2559  -38.7561 C.3       4 UNK         0.0283 
     31 CB         20.6418  -29.5466  -37.5837 C.3       4 UNK        -0.1875 
     32 C          22.8625  -28.5598  -38.2399 C.2       4 UNK         0.4949 
     33 O          23.8239  -29.2432  -37.8937 O.2       4 UNK        -0.5039 
     34 N          22.8706  -27.2184  -38.2546 N.am      5 UNK        -0.4663 
     35 CA         24.0309  -26.3783  -37.9374 C.3       5 UNK         0.0242 
     36 CB         23.5854  -24.9081  -37.8856 C.3       5 UNK        -0.1982 
     37 C          25.2040  -26.5509  -38.9220 C.2       5 UNK         0.5017 
     38 O          26.3525  -26.3434  -38.5305 O.2       5 UNK        -0.5012 
     39 N          24.8960  -26.9476  -40.1646 N.am      6 UNK        -0.4439 
     40 CA         25.8628  -27.3082  -41.2035 C.3       6 UNK         0.0297 
     41 CB         25.3703  -26.7362  -42.5442 C.3       6 UNK        -0.2006 
     42 C          26.0601  -28.8342  -41.3060 C.2       6 UNK         0.4892 
     43 O          26.8294  -29.2746  -42.1608 O.2       6 UNK        -0.5089 
     44 N          25.3553  -29.6070  -40.4617 N.am      7 UNK        -0.4243 
     45 CA         25.2614  -31.0712  -40.4427 C.3       7 UNK         0.0196 
     46 CB         26.6032  -31.6988  -40.0090 C.3       7 UNK        -0.2007 
     47 C          24.7188  -31.6536  -41.7632 C.2       7 UNK         0.5020 
     48 O          25.1815  -32.7078  -42.2031 O.2       7 UNK        -0.5147 
     49 N          23.7569  -30.9559  -42.3819 N.am      8 UNK        -0.4734 
     50 CA         23.2259  -31.2838  -43.7026 C.3       8 UNK         0.0238 
     51 CB         24.0244  -30.5274  -44.7806 C.3       8 UNK        -0.1912 
     52 C          21.7157  -31.0263  -43.7520 C.2       8 UNK         0.5038 
     53 O          21.2574  -30.1337  -44.4697 O.2       8 UNK        -0.5046 
     54 N          20.9734  -31.8309  -42.9834 N.am      9 UNK        -0.4200 
     55 CA         19.5169  -31.9979  -43.1048 C.3       9 UNK         0.0839 
     56 C          19.1203  -32.7780  -44.3948 C.2       9 UNK         0.5513 
     57 N          17.8332  -32.8583  -44.7041 N.am      9 UNK        -0.7519 
     58 O          19.9547  -33.3344  -45.1061 O.2       9 UNK        -0.4960 
     59 C59        18.9160  -32.6704  -41.8426 C.3       10 UNK        -0.0876 
     60 S60        19.1310  -31.6667  -40.3359 S.3       10 UNK        -0.2414 
     61 C61        17.4419  -31.0497  -40.0392 C.3       10 UNK         0.0169 
     62 H62        16.7517  -29.5694  -50.2977 H         1 UNK         0.0903 
     63 H63        18.1007  -29.0718  -51.3208 H         1 UNK         0.0903 
     64 H64        17.8031  -30.7868  -51.0234 H         1 UNK         0.0903 
     65 H65        17.1938  -29.1954  -48.1272 H         1 UNK         0.3096 
     66 H66        19.6704  -30.0702  -46.8922 H         1 UNK         0.1121 
     67 H67        17.5591  -30.3963  -45.6968 H         1 UNK         0.0849 
     68 H68        18.5950  -29.3392  -44.7785 H         1 UNK         0.0849 
     69 H69        14.6975  -28.3151  -44.2162 H         1 UNK         0.0865 
     70 H70        15.3869  -29.8938  -44.4753 H         1 UNK         0.0865 
     71 H71        16.3755  -30.8717  -42.5490 H         1 UNK         0.1346 
     72 H72        17.7835  -28.4618  -39.3044 H         1 UNK         0.1412 
     73 H73        16.3767  -26.5991  -42.9056 H         1 UNK         0.1426 
     74 H74        16.6674  -25.7655  -39.7196 H         1 UNK         0.0716 
     75 H75        17.3628  -25.2235  -41.2278 H         1 UNK         0.0716 
     76 H76        19.7968  -25.0627  -41.7651 H         1 UNK         0.0695 
     77 H77        21.1578  -25.3587  -40.7383 H         1 UNK         0.0695 
     78 H78        19.5394  -27.6793  -41.9633 H         1 UNK         0.0983 
     79 H79        21.9374  -27.5517  -43.2103 H         1 UNK         0.3095 
     80 H80        20.9980  -25.7722  -46.1648 H         1 UNK         0.0454 
     81 H81        23.1843  -25.7912  -44.9453 H         1 UNK         0.0851 
     82 H82        23.2367  -26.7730  -46.3999 H         1 UNK         0.0851 
     83 H83        23.1120  -27.5445  -44.8287 H         1 UNK         0.0851 
     84 H84        20.9361  -28.7018  -45.5129 H         1 UNK         0.2976 
     85 H85        19.9828  -28.1034  -39.5060 H         1 UNK         0.3116 
     86 H86        21.8889  -30.2038  -39.2103 H         1 UNK         0.0646 
     87 H87        20.3110  -28.6303  -37.0930 H         1 UNK         0.0847 
     88 H88        19.7552  -30.0891  -37.9092 H         1 UNK         0.0847 
     89 H89        21.1333  -30.1611  -36.8280 H         1 UNK         0.0847 
     90 H90        22.0260  -26.7402  -38.5336 H         1 UNK         0.3040 
     91 H91        24.3928  -26.6662  -36.9477 H         1 UNK         0.1015 
     92 H92        24.4209  -24.2560  -37.6267 H         1 UNK         0.0786 
     93 H93        22.8119  -24.7535  -37.1330 H         1 UNK         0.0786 
     94 H94        23.1933  -24.5697  -38.8457 H         1 UNK         0.0786 
     95 H95        23.9247  -27.1264  -40.3884 H         1 UNK         0.3172 
     96 H96        26.8366  -26.8672  -40.9817 H         1 UNK         0.0595 
     97 H97        24.4155  -27.1716  -42.8365 H         1 UNK         0.0839 
     98 H98        26.0812  -26.9420  -43.3455 H         1 UNK         0.0839 
     99 H99        25.2456  -25.6545  -42.4936 H         1 UNK         0.0839 
    100 H100       24.7851  -29.1425  -39.7659 H         1 UNK         0.2998 
    101 H101       24.5215  -31.3188  -39.6801 H         1 UNK         0.0822 
    102 H102       26.5039  -32.7755  -39.8661 H         1 UNK         0.0787 
    103 H103       26.9493  -31.2788  -39.0646 H         1 UNK         0.0787 
    104 H104       27.3839  -31.5403  -40.7536 H         1 UNK         0.0787 
    105 H105       23.3957  -30.1067  -41.9521 H         1 UNK         0.3055 
    106 H106       23.3448  -32.3516  -43.9018 H         1 UNK         0.1106 
    107 H107       24.1155  -29.4702  -44.5433 H         1 UNK         0.0828 
    108 H108       25.0350  -30.9271  -44.8661 H         1 UNK         0.0828 
    109 H109       23.5581  -30.6150  -45.7628 H         1 UNK         0.0828 
    110 H110       21.4458  -32.5128  -42.4093 H         1 UNK         0.2931 
    111 H111       19.0824  -31.0016  -43.1946 H         1 UNK         0.0412 
    112 H112       17.5666  -33.3759  -45.5273 H         1 UNK         0.3472 
    113 H113       17.1217  -32.4384  -44.1300 H         1 UNK         0.3472 
    114 H114       17.8538  -32.8794  -41.9746 H         1 UNK         0.0970 
    115 H115       19.3837  -33.6419  -41.6733 H         1 UNK         0.0970 
    116 H116       17.3420  -30.8258  -38.9761 H         1 UNK         0.0612 
    117 H117       16.7092  -31.8305  -40.2472 H         1 UNK         0.0612 
@<TRIPOS>BOND
     1    1    2 1    
     2    1   62 1    
     3    1   63 1    
     4    1   64 1    
     5    2    3 2    
     6    2    4 am   BACKBONE|DICT|INTERRES
     7    4    5 1    
     8    4   65 1    
     9    5    6 1    
    10    5   25 1    
    11    5   66 1    
    12    6    7 1    
    13    6   67 1    
    14    6   68 1    
    15    7    8 1    
    16    8    9 1    
    17    8   69 1    
    18    8   70 1    
    19    9   10 ar   
    20    9   14 ar   
    21   10   11 ar   
    22   10   71 1    
    23   11   12 ar   
    24   11   61 1    
    25   12   13 ar   
    26   12   72 1    
    27   13   14 ar   
    28   13   15 1    
    29   14   73 1    
    30   15   16 1    
    31   15   74 1    
    32   15   75 1    
    33   16   17 1    
    34   17   18 1    
    35   17   76 1    
    36   17   77 1    
    37   18   19 1    
    38   18   27 1    
    39   18   78 1    
    40   19   20 am   BACKBONE|DICT|INTERRES
    41   19   79 1    
    42   20   21 2    
    43   20   22 1    
    44   22   23 1    
    45   22   24 1    
    46   22   80 1    
    47   23   81 1    
    48   23   82 1    
    49   23   83 1    
    50   24   25 am   BACKBONE|DICT|INTERRES
    51   24   84 1    
    52   25   26 2    
    53   27   28 2    
    54   27   29 am   BACKBONE|DICT|INTERRES
    55   29   30 1    
    56   29   85 1    
    57   30   31 1    
    58   30   32 1    
    59   30   86 1    
    60   31   87 1    
    61   31   88 1    
    62   31   89 1    
    63   32   33 2    
    64   32   34 am   BACKBONE|DICT|INTERRES
    65   34   35 1    
    66   34   90 1    
    67   35   36 1    
    68   35   37 1    
    69   35   91 1    
    70   36   92 1    
    71   36   93 1    
    72   36   94 1    
    73   37   38 2    
    74   37   39 am   BACKBONE|DICT|INTERRES
    75   39   40 1    
    76   39   95 1    
    77   40   41 1    
    78   40   42 1    
    79   40   96 1    
    80   41   97 1    
    81   41   98 1    
    82   41   99 1    
    83   42   43 2    
    84   42   44 am   BACKBONE|DICT|INTERRES
    85   44   45 1    
    86   44  100 1    
    87   45   46 1    
    88   45   47 1    
    89   45  101 1    
    90   46  102 1    
    91   46  103 1    
    92   46  104 1    
    93   47   48 2    
    94   47   49 am   BACKBONE|DICT|INTERRES
    95   49   50 1    
    96   49  105 1    
    97   50   51 1    
    98   50   52 1    
    99   50  106 1    
   100   51  107 1    
   101   51  108 1    
   102   51  109 1    
   103   52   53 2    
   104   52   54 am   BACKBONE|DICT|INTERRES
   105   54   55 1    
   106   54  110 1    
   107   55   56 1    
   108   55   59 1    
   109   55  111 1    
   110   56   57 am   BACKBONE|DICT|INTERRES
   111   56   58 2    
   112   57  112 1    
   113   57  113 1    
   114   59   60 1    
   115   59  114 1    
   116   59  115 1    
   117   60   61 1    
   118   61  116 1    
   119   61  117 1    
@<TRIPOS>SUBSTRUCTURE
     1 UNK         1 GROUP             0       ****    0 ROOT    
