@<TRIPOS>MOLECULE
3R8
117   119    1
SMALL
USER_CHARGES


@<TRIPOS>ATOM
      1 CA         22.7300  -24.4475  -40.7050 C.3       0 UNK        -0.2013 
      2 C          21.2676  -24.2198  -41.0554 C.2       0 UNK         0.4866 
      3 O          20.5815  -23.4652  -40.3654 O.2       0 UNK        -0.5176 
      4 N          20.7902  -24.8721  -42.1176 N.am      1 UNK        -0.4884 
      5 CA         19.4379  -24.7513  -42.6660 C.3       1 UNK         0.0853 
      6 C6         18.5885  -26.0267  -42.3952 C.3       10 UNK        -0.0849 
      7 S7         19.2967  -27.5411  -43.1229 S.3       10 UNK        -0.2776 
      8 C8         17.9660  -28.7605  -42.9141 C.3       10 UNK         0.0316 
      9 C9         18.2418  -29.9320  -43.8390 C.ar      10 UNK        -0.0863 
     10 C10        18.8705  -31.0931  -43.3772 C.ar      10 UNK        -0.1009 
     11 C11        19.2155  -32.1108  -44.2751 C.ar      10 UNK        -0.0712 
     12 C12        18.9341  -31.9525  -45.6373 C.ar      10 UNK        -0.0894 
     13 C13        18.2929  -30.8005  -46.1033 C.ar      10 UNK        -0.0745 
     14 C14        17.9253  -29.8097  -45.1922 C.ar      10 UNK        -0.0972 
     15 C15        18.0035  -30.6227  -47.5872 C.3       10 UNK         0.0209 
     16 S16        19.3241  -29.6929  -48.4363 S.3       10 UNK        -0.2568 
     17 C17        18.8681  -27.9500  -48.0910 C.3       10 UNK        -0.0983 
     18 CA         20.0046  -26.9196  -47.7765 C.3       3 UNK         0.0876 
     19 N          19.5602  -25.8028  -46.9383 N.am      3 UNK        -0.4424 
     20 C          18.5766  -24.9454  -47.2370 C.2       2 UNK         0.4918 
     21 O          17.8948  -25.0314  -48.2597 O.2       2 UNK        -0.4875 
     22 CA         18.3059  -23.7917  -46.2408 C.3       2 UNK         0.0481 
     23 CB         16.9358  -23.1267  -46.4734 C.3       2 UNK        -0.1831 
     24 N          18.4064  -24.1759  -44.8264 N.am      2 UNK        -0.4498 
     25 C          19.5490  -24.3969  -44.1641 C.2       1 UNK         0.5027 
     26 O          20.6534  -24.3447  -44.7133 O.2       1 UNK        -0.4969 
     27 C          21.3029  -27.5205  -47.2007 C.2       3 UNK         0.5005 
     28 O          22.2325  -27.7680  -47.9725 O.2       3 UNK        -0.5279 
     29 N          21.3642  -27.7378  -45.8781 N.am      4 UNK        -0.4463 
     30 CA         22.4643  -28.4435  -45.2163 C.3       4 UNK         0.0283 
     31 CB         22.1165  -29.9422  -45.1362 C.3       4 UNK        -0.1875 
     32 C          22.7966  -27.8260  -43.8470 C.2       4 UNK         0.4949 
     33 O          22.4933  -26.6586  -43.6007 O.2       4 UNK        -0.5039 
     34 N          23.4419  -28.6148  -42.9794 N.am      5 UNK        -0.4663 
     35 CA         23.9950  -28.1926  -41.6890 C.3       5 UNK         0.0242 
     36 CB         25.3110  -28.9572  -41.4587 C.3       5 UNK        -0.1982 
     37 C          23.0222  -28.3553  -40.5020 C.2       5 UNK         0.5017 
     38 O          23.4818  -28.4620  -39.3632 O.2       5 UNK        -0.5012 
     39 N          21.7073  -28.3772  -40.7680 N.am      6 UNK        -0.4439 
     40 CA         20.6151  -28.5219  -39.7952 C.3       6 UNK         0.0297 
     41 CB         20.4477  -27.2317  -38.9613 C.3       6 UNK        -0.2006 
     42 C          20.7623  -29.7994  -38.9489 C.2       6 UNK         0.4892 
     43 O          20.7382  -30.8919  -39.5133 O.2       6 UNK        -0.5089 
     44 N          20.9390  -29.6516  -37.6288 N.am      7 UNK        -0.4243 
     45 CA         21.1184  -30.7462  -36.6704 C.3       7 UNK         0.0196 
     46 CB         21.1134  -30.1697  -35.2452 C.3       7 UNK        -0.2007 
     47 C          22.3833  -31.5943  -36.9025 C.2       7 UNK         0.5020 
     48 O          22.4161  -32.7440  -36.4637 O.2       7 UNK        -0.5147 
     49 N          23.3929  -31.0338  -37.5840 N.am      8 UNK        -0.4734 
     50 CA         24.6172  -31.7440  -37.9623 C.3       8 UNK         0.0238 
     51 CB         25.7841  -30.7452  -38.0235 C.3       8 UNK        -0.1912 
     52 C          24.4797  -32.5302  -39.2807 C.2       8 UNK         0.5038 
     53 O          25.3927  -33.2894  -39.6084 O.2       8 UNK        -0.5046 
     54 N          23.3694  -32.3530  -40.0133 N.am      9 UNK        -0.4200 
     55 CA         23.0266  -33.1476  -41.2002 C.3       9 UNK         0.0839 
     56 C          22.6485  -34.6024  -40.8039 C.2       9 UNK         0.5513 
     57 N          23.2133  -35.6001  -41.4701 N.am      9 UNK        -0.7519 
     58 O          21.8273  -34.8287  -39.9178 O.2       9 UNK        -0.4960 
     59 C59        21.9078  -32.4559  -42.0207 C.3       10 UNK        -0.0876 
     60 S60        21.7111  -33.1656  -43.6912 S.3       10 UNK        -0.2414 
     61 C61        19.9052  -33.3778  -43.7883 C.3       10 UNK         0.0169 
     62 H62        23.2770  -24.8881  -41.5380 H         1 UNK         0.0903 
     63 H63        23.2099  -23.5025  -40.4520 H         1 UNK         0.0903 
     64 H64        22.8119  -25.1143  -39.8470 H         1 UNK         0.0903 
     65 H65        21.4149  -25.4419  -42.6889 H         1 UNK         0.3096 
     66 H66        18.9310  -23.9038  -42.1993 H         1 UNK         0.1121 
     67 H67        17.5705  -25.8974  -42.7657 H         1 UNK         0.0849 
     68 H68        18.4904  -26.1789  -41.3198 H         1 UNK         0.0849 
     69 H69        17.0023  -28.3113  -43.1589 H         1 UNK         0.0865 
     70 H70        17.9082  -29.0845  -41.8744 H         1 UNK         0.0865 
     71 H71        19.1170  -31.1909  -42.3288 H         1 UNK         0.1346 
     72 H72        19.2210  -32.7254  -46.3372 H         1 UNK         0.1412 
     73 H73        17.4228  -28.9167  -45.5319 H         1 UNK         0.1426 
     74 H74        17.0447  -30.1226  -47.7323 H         1 UNK         0.0716 
     75 H75        17.9075  -31.6000  -48.0627 H         1 UNK         0.0716 
     76 H76        18.1511  -27.9422  -47.2750 H         1 UNK         0.0695 
     77 H77        18.3006  -27.5978  -48.9535 H         1 UNK         0.0695 
     78 H78        20.2989  -26.4783  -48.7314 H         1 UNK         0.0983 
     79 H79        20.1328  -25.5866  -46.1270 H         1 UNK         0.3095 
     80 H80        19.0676  -23.0343  -46.4374 H         1 UNK         0.0454 
     81 H81        16.7811  -22.2854  -45.7978 H         1 UNK         0.0851 
     82 H82        16.1162  -23.8314  -46.3278 H         1 UNK         0.0851 
     83 H83        16.8538  -22.7367  -47.4889 H         1 UNK         0.0851 
     84 H84        17.5315  -24.2694  -44.3306 H         1 UNK         0.2976 
     85 H85        20.5886  -27.4856  -45.2788 H         1 UNK         0.3116 
     86 H86        23.3743  -28.3367  -45.8099 H         1 UNK         0.0646 
     87 H87        22.9728  -30.5426  -44.8291 H         1 UNK         0.0847 
     88 H88        21.7935  -30.3308  -46.1023 H         1 UNK         0.0847 
     89 H89        21.3090  -30.1217  -44.4270 H         1 UNK         0.0847 
     90 H90        23.6339  -29.5672  -43.2544 H         1 UNK         0.3040 
     91 H91        24.2413  -27.1303  -41.7418 H         1 UNK         0.1015 
     92 H92        25.1372  -30.0201  -41.2863 H         1 UNK         0.0786 
     93 H93        25.8453  -28.5619  -40.5943 H         1 UNK         0.0786 
     94 H94        25.9822  -28.8607  -42.3125 H         1 UNK         0.0786 
     95 H95        21.4220  -28.2910  -41.7344 H         1 UNK         0.3172 
     96 H96        19.7005  -28.6565  -40.3711 H         1 UNK         0.0595 
     97 H97        21.3514  -26.9700  -38.4100 H         1 UNK         0.0839 
     98 H98        19.6297  -27.3226  -38.2453 H         1 UNK         0.0839 
     99 H99        20.1990  -26.3892  -39.6024 H         1 UNK         0.0839 
    100 H100       20.9771  -28.7138  -37.2570 H         1 UNK         0.2998 
    101 H101       20.2614  -31.4154  -36.7730 H         1 UNK         0.0822 
    102 H102       20.1820  -29.6450  -35.0312 H         1 UNK         0.0787 
    103 H103       21.2133  -30.9628  -34.5026 H         1 UNK         0.0787 
    104 H104       21.9375  -29.4722  -35.0895 H         1 UNK         0.0787 
    105 H105       23.2885  -30.0873  -37.9356 H         1 UNK         0.3055 
    106 H106       24.8569  -32.4782  -37.1895 H         1 UNK         0.1106 
    107 H107       26.7149  -31.2421  -38.3004 H         1 UNK         0.0828 
    108 H108       25.6047  -29.9585  -38.7530 H         1 UNK         0.0828 
    109 H109       25.9480  -30.2704  -37.0562 H         1 UNK         0.0828 
    110 H110       22.6302  -31.7629  -39.6492 H         1 UNK         0.2931 
    111 H111       23.9202  -33.1786  -41.8277 H         1 UNK         0.0412 
    112 H112       23.8744  -35.4195  -42.2098 H         1 UNK         0.3472 
    113 H113       22.9711  -36.5498  -41.2342 H         1 UNK         0.3472 
    114 H114       22.1268  -31.3938  -42.1384 H         1 UNK         0.0970 
    115 H115       20.9619  -32.5072  -41.4808 H         1 UNK         0.0970 
    116 H116       19.6935  -34.1992  -44.4746 H         1 UNK         0.0612 
    117 H117       19.5030  -33.6866  -42.8224 H         1 UNK         0.0612 
@<TRIPOS>BOND
     1    1    2 1    
     2    1   62 1    
     3    1   63 1    
     4    1   64 1    
     5    2    3 2    
     6    2    4 am   BACKBONE|DICT|INTERRES
     7    4    5 1    
     8    4   65 1    
     9    5    6 1    
    10    5   25 1    
    11    5   66 1    
    12    6    7 1    
    13    6   67 1    
    14    6   68 1    
    15    7    8 1    
    16    8    9 1    
    17    8   69 1    
    18    8   70 1    
    19    9   10 ar   
    20    9   14 ar   
    21   10   11 ar   
    22   10   71 1    
    23   11   12 ar   
    24   11   61 1    
    25   12   13 ar   
    26   12   72 1    
    27   13   14 ar   
    28   13   15 1    
    29   14   73 1    
    30   15   16 1    
    31   15   74 1    
    32   15   75 1    
    33   16   17 1    
    34   17   18 1    
    35   17   76 1    
    36   17   77 1    
    37   18   19 1    
    38   18   27 1    
    39   18   78 1    
    40   19   20 am   BACKBONE|DICT|INTERRES
    41   19   79 1    
    42   20   21 2    
    43   20   22 1    
    44   22   23 1    
    45   22   24 1    
    46   22   80 1    
    47   23   81 1    
    48   23   82 1    
    49   23   83 1    
    50   24   25 am   BACKBONE|DICT|INTERRES
    51   24   84 1    
    52   25   26 2    
    53   27   28 2    
    54   27   29 am   BACKBONE|DICT|INTERRES
    55   29   30 1    
    56   29   85 1    
    57   30   31 1    
    58   30   32 1    
    59   30   86 1    
    60   31   87 1    
    61   31   88 1    
    62   31   89 1    
    63   32   33 2    
    64   32   34 am   BACKBONE|DICT|INTERRES
    65   34   35 1    
    66   34   90 1    
    67   35   36 1    
    68   35   37 1    
    69   35   91 1    
    70   36   92 1    
    71   36   93 1    
    72   36   94 1    
    73   37   38 2    
    74   37   39 am   BACKBONE|DICT|INTERRES
    75   39   40 1    
    76   39   95 1    
    77   40   41 1    
    78   40   42 1    
    79   40   96 1    
    80   41   97 1    
    81   41   98 1    
    82   41   99 1    
    83   42   43 2    
    84   42   44 am   BACKBONE|DICT|INTERRES
    85   44   45 1    
    86   44  100 1    
    87   45   46 1    
    88   45   47 1    
    89   45  101 1    
    90   46  102 1    
    91   46  103 1    
    92   46  104 1    
    93   47   48 2    
    94   47   49 am   BACKBONE|DICT|INTERRES
    95   49   50 1    
    96   49  105 1    
    97   50   51 1    
    98   50   52 1    
    99   50  106 1    
   100   51  107 1    
   101   51  108 1    
   102   51  109 1    
   103   52   53 2    
   104   52   54 am   BACKBONE|DICT|INTERRES
   105   54   55 1    
   106   54  110 1    
   107   55   56 1    
   108   55   59 1    
   109   55  111 1    
   110   56   57 am   BACKBONE|DICT|INTERRES
   111   56   58 2    
   112   57  112 1    
   113   57  113 1    
   114   59   60 1    
   115   59  114 1    
   116   59  115 1    
   117   60   61 1    
   118   61  116 1    
   119   61  117 1    
@<TRIPOS>SUBSTRUCTURE
     1 UNK         1 GROUP             0       ****    0 ROOT    
