@<TRIPOS>MOLECULE
3R8
117   119    1
SMALL
USER_CHARGES


@<TRIPOS>ATOM
      1 CA         19.6244  -24.4180  -40.4561 C.3       0 UNK        -0.2013 
      2 C          18.3447  -24.4699  -41.2789 C.2       0 UNK         0.4866 
      3 O          17.2796  -24.0985  -40.7843 O.2       0 UNK        -0.5176 
      4 N          18.4433  -24.9287  -42.5280 N.am      1 UNK        -0.4884 
      5 CA         17.3323  -25.0965  -43.4671 C.3       1 UNK         0.0853 
      6 C6         16.5348  -26.4164  -43.2274 C.3       10 UNK        -0.0849 
      7 S7         17.5889  -27.9088  -43.1421 S.3       10 UNK        -0.2776 
      8 C8         16.7774  -29.0794  -44.2740 C.3       10 UNK         0.0316 
      9 C9         17.6427  -30.3194  -44.4479 C.ar      10 UNK        -0.0863 
     10 C10        17.2825  -31.5337  -43.8576 C.ar      10 UNK        -0.1009 
     11 C11        18.0915  -32.6642  -44.0096 C.ar      10 UNK        -0.0712 
     12 C12        19.2856  -32.5610  -44.7321 C.ar      10 UNK        -0.0894 
     13 C13        19.6708  -31.3490  -45.3190 C.ar      10 UNK        -0.0745 
     14 C14        18.8220  -30.2421  -45.1929 C.ar      10 UNK        -0.0972 
     15 C15        21.0167  -31.2902  -46.0516 C.3       10 UNK         0.0209 
     16 S16        21.5219  -29.6682  -46.7385 S.3       10 UNK        -0.2568 
     17 C17        21.8598  -28.6776  -45.2394 C.3       10 UNK        -0.0983 
     18 CA         21.6173  -27.1604  -45.4566 C.3       3 UNK         0.0876 
     19 N          20.2380  -26.8755  -45.8413 N.am      3 UNK        -0.4424 
     20 C          19.8304  -26.3184  -46.9870 C.2       2 UNK         0.4918 
     21 O          20.5735  -26.0636  -47.9351 O.2       2 UNK        -0.4875 
     22 CA         18.3299  -25.9746  -47.0912 C.3       2 UNK         0.0481 
     23 CB         17.6002  -27.0279  -47.9404 C.3       2 UNK        -0.1831 
     24 N          17.6764  -25.8740  -45.7813 N.am      2 UNK        -0.4498 
     25 C          17.8995  -24.9015  -44.8861 C.2       1 UNK         0.5027 
     26 O          18.5610  -23.8915  -45.1367 O.2       1 UNK        -0.4969 
     27 C          21.9025  -26.3643  -44.1675 C.2       3 UNK         0.5005 
     28 O          20.9648  -25.9385  -43.4829 O.2       3 UNK        -0.5279 
     29 N          23.1917  -26.1747  -43.8603 N.am      4 UNK        -0.4463 
     30 CA         23.6786  -25.5033  -42.6507 C.3       4 UNK         0.0283 
     31 CB         25.1784  -25.2069  -42.8304 C.3       4 UNK        -0.1875 
     32 C          23.4415  -26.3326  -41.3740 C.2       4 UNK         0.4949 
     33 O          23.0779  -27.5067  -41.4540 O.2       4 UNK        -0.5039 
     34 N          23.6938  -25.7197  -40.2088 N.am      5 UNK        -0.4663 
     35 CA         23.6550  -26.3773  -38.8966 C.3       5 UNK         0.0242 
     36 CB         24.0094  -25.3551  -37.8051 C.3       5 UNK        -0.1982 
     37 C          24.6008  -27.5923  -38.8303 C.2       5 UNK         0.5017 
     38 O          25.7142  -27.5236  -39.3564 O.2       5 UNK        -0.5012 
     39 N          24.1183  -28.6902  -38.2321 N.am      6 UNK        -0.4439 
     40 CA         24.7122  -30.0364  -38.1693 C.3       6 UNK         0.0297 
     41 CB         26.1076  -30.0317  -37.5145 C.3       6 UNK        -0.2006 
     42 C          24.7259  -30.7832  -39.5187 C.2       6 UNK         0.4892 
     43 O          24.4075  -31.9733  -39.5405 O.2       6 UNK        -0.5089 
     44 N          25.0476  -30.0820  -40.6166 N.am      7 UNK        -0.4243 
     45 CA         24.9865  -30.5827  -41.9956 C.3       7 UNK         0.0196 
     46 CB         25.5797  -29.5378  -42.9540 C.3       7 UNK        -0.2007 
     47 C          23.5616  -30.9707  -42.4284 C.2       7 UNK         0.5020 
     48 O          23.3987  -31.9146  -43.2022 O.2       7 UNK        -0.5147 
     49 N          22.5578  -30.2717  -41.8831 N.am      8 UNK        -0.4734 
     50 CA         21.1264  -30.5679  -41.9523 C.3       8 UNK         0.0238 
     51 CB         20.3495  -29.3444  -41.4353 C.3       8 UNK        -0.1912 
     52 C          20.7396  -31.8628  -41.2114 C.2       8 UNK         0.5038 
     53 O          19.9798  -31.8110  -40.2424 O.2       8 UNK        -0.5046 
     54 N          21.2875  -32.9871  -41.6913 N.am      9 UNK        -0.4200 
     55 CA         21.0640  -34.3745  -41.2593 C.3       9 UNK         0.0839 
     56 C          21.1774  -34.6481  -39.7285 C.2       9 UNK         0.5513 
     57 N          22.0576  -33.9576  -39.0120 N.am      9 UNK        -0.7519 
     58 O          20.4985  -35.5166  -39.1857 O.2       9 UNK        -0.4960 
     59 C59        19.8551  -35.0490  -41.9747 C.3       10 UNK        -0.0876 
     60 S60        18.2221  -34.2650  -41.7199 S.3       10 UNK        -0.2414 
     61 C61        17.6446  -34.0009  -43.4287 C.3       10 UNK         0.0169 
     62 H62        19.8504  -23.3898  -40.1754 H         1 UNK         0.0903 
     63 H63        19.5088  -25.0043  -39.5450 H         1 UNK         0.0903 
     64 H64        20.4776  -24.8160  -41.0058 H         1 UNK         0.0903 
     65 H65        19.3547  -25.2134  -42.8886 H         1 UNK         0.3096 
     66 H66        16.6392  -24.2638  -43.3270 H         1 UNK         0.1121 
     67 H67        16.0126  -26.3419  -42.2722 H         1 UNK         0.0849 
     68 H68        15.7448  -26.5426  -43.9698 H         1 UNK         0.0849 
     69 H69        15.7952  -29.3422  -43.8778 H         1 UNK         0.0865 
     70 H70        16.6073  -28.6163  -45.2459 H         1 UNK         0.0865 
     71 H71        16.3668  -31.6041  -43.2863 H         1 UNK         0.1346 
     72 H72        19.9198  -33.4301  -44.8396 H         1 UNK         0.1412 
     73 H73        19.0817  -29.2992  -45.6466 H         1 UNK         0.1426 
     74 H74        21.8026  -31.6344  -45.3784 H         1 UNK         0.0716 
     75 H75        20.9865  -32.0037  -46.8760 H         1 UNK         0.0716 
     76 H76        22.8915  -28.8678  -44.9384 H         1 UNK         0.0695 
     77 H77        21.2356  -29.0367  -44.4234 H         1 UNK         0.0695 
     78 H78        22.3016  -26.7991  -46.2274 H         1 UNK         0.0983 
     79 H79        19.5745  -26.9542  -45.0839 H         1 UNK         0.3095 
     80 H80        18.2431  -25.0088  -47.5932 H         1 UNK         0.0454 
     81 H81        16.5446  -26.7834  -48.0593 H         1 UNK         0.0851 
     82 H82        17.6698  -28.0240  -47.5020 H         1 UNK         0.0851 
     83 H83        18.0313  -27.0855  -48.9409 H         1 UNK         0.0851 
     84 H84        17.1190  -26.6631  -45.4909 H         1 UNK         0.2976 
     85 H85        23.8968  -26.5767  -44.4602 H         1 UNK         0.3116 
     86 H86        23.1416  -24.5584  -42.5440 H         1 UNK         0.0646 
     87 H87        25.3621  -24.6118  -43.7252 H         1 UNK         0.0847 
     88 H88        25.5772  -24.6423  -41.9869 H         1 UNK         0.0847 
     89 H89        25.7644  -26.1236  -42.9101 H         1 UNK         0.0847 
     90 H90        24.0175  -24.7636  -40.2235 H         1 UNK         0.3040 
     91 H91        22.6300  -26.7189  -38.7364 H         1 UNK         0.1015 
     92 H92        25.0178  -24.9600  -37.9358 H         1 UNK         0.0786 
     93 H93        23.9638  -25.8095  -36.8143 H         1 UNK         0.0786 
     94 H94        23.3152  -24.5144  -37.8063 H         1 UNK         0.0786 
     95 H95        23.1853  -28.6319  -37.8465 H         1 UNK         0.3172 
     96 H96        24.0537  -30.6064  -37.5115 H         1 UNK         0.0595 
     97 H97        26.8518  -29.5277  -38.1316 H         1 UNK         0.0839 
     98 H98        26.4620  -31.0510  -37.3556 H         1 UNK         0.0839 
     99 H99        26.0887  -29.5402  -36.5419 H         1 UNK         0.0839 
    100 H100       25.3002  -29.1072  -40.4877 H         1 UNK         0.2998 
    101 H101       25.6006  -31.4842  -42.0461 H         1 UNK         0.0822 
    102 H102       26.6108  -29.2991  -42.6931 H         1 UNK         0.0787 
    103 H103       25.5815  -29.9083  -43.9800 H         1 UNK         0.0787 
    104 H104       25.0076  -28.6104  -42.9446 H         1 UNK         0.0787 
    105 H105       22.8080  -29.4343  -41.3645 H         1 UNK         0.3055 
    106 H106       20.8576  -30.7228  -42.9947 H         1 UNK         0.1106 
    107 H107       20.5203  -28.4686  -42.0615 H         1 UNK         0.0828 
    108 H108       19.2766  -29.5380  -41.4358 H         1 UNK         0.0828 
    109 H109       20.6339  -29.0865  -40.4148 H         1 UNK         0.0828 
    110 H110       21.9776  -32.8664  -42.4276 H         1 UNK         0.2931 
    111 H111       21.9382  -34.8972  -41.6494 H         1 UNK         0.0412 
    112 H112       22.6555  -33.2617  -39.4400 H         1 UNK         0.3472 
    113 H113       22.1380  -34.1438  -38.0252 H         1 UNK         0.3472 
    114 H114       19.7754  -36.0953  -41.6751 H         1 UNK         0.0970 
    115 H115       20.0652  -35.0838  -43.0436 H         1 UNK         0.0970 
    116 H116       16.5545  -34.0455  -43.4273 H         1 UNK         0.0612 
    117 H117       17.9701  -34.8234  -44.0672 H         1 UNK         0.0612 
@<TRIPOS>BOND
     1    1    2 1    
     2    1   62 1    
     3    1   63 1    
     4    1   64 1    
     5    2    3 2    
     6    2    4 am   BACKBONE|DICT|INTERRES
     7    4    5 1    
     8    4   65 1    
     9    5    6 1    
    10    5   25 1    
    11    5   66 1    
    12    6    7 1    
    13    6   67 1    
    14    6   68 1    
    15    7    8 1    
    16    8    9 1    
    17    8   69 1    
    18    8   70 1    
    19    9   10 ar   
    20    9   14 ar   
    21   10   11 ar   
    22   10   71 1    
    23   11   12 ar   
    24   11   61 1    
    25   12   13 ar   
    26   12   72 1    
    27   13   14 ar   
    28   13   15 1    
    29   14   73 1    
    30   15   16 1    
    31   15   74 1    
    32   15   75 1    
    33   16   17 1    
    34   17   18 1    
    35   17   76 1    
    36   17   77 1    
    37   18   19 1    
    38   18   27 1    
    39   18   78 1    
    40   19   20 am   BACKBONE|DICT|INTERRES
    41   19   79 1    
    42   20   21 2    
    43   20   22 1    
    44   22   23 1    
    45   22   24 1    
    46   22   80 1    
    47   23   81 1    
    48   23   82 1    
    49   23   83 1    
    50   24   25 am   BACKBONE|DICT|INTERRES
    51   24   84 1    
    52   25   26 2    
    53   27   28 2    
    54   27   29 am   BACKBONE|DICT|INTERRES
    55   29   30 1    
    56   29   85 1    
    57   30   31 1    
    58   30   32 1    
    59   30   86 1    
    60   31   87 1    
    61   31   88 1    
    62   31   89 1    
    63   32   33 2    
    64   32   34 am   BACKBONE|DICT|INTERRES
    65   34   35 1    
    66   34   90 1    
    67   35   36 1    
    68   35   37 1    
    69   35   91 1    
    70   36   92 1    
    71   36   93 1    
    72   36   94 1    
    73   37   38 2    
    74   37   39 am   BACKBONE|DICT|INTERRES
    75   39   40 1    
    76   39   95 1    
    77   40   41 1    
    78   40   42 1    
    79   40   96 1    
    80   41   97 1    
    81   41   98 1    
    82   41   99 1    
    83   42   43 2    
    84   42   44 am   BACKBONE|DICT|INTERRES
    85   44   45 1    
    86   44  100 1    
    87   45   46 1    
    88   45   47 1    
    89   45  101 1    
    90   46  102 1    
    91   46  103 1    
    92   46  104 1    
    93   47   48 2    
    94   47   49 am   BACKBONE|DICT|INTERRES
    95   49   50 1    
    96   49  105 1    
    97   50   51 1    
    98   50   52 1    
    99   50  106 1    
   100   51  107 1    
   101   51  108 1    
   102   51  109 1    
   103   52   53 2    
   104   52   54 am   BACKBONE|DICT|INTERRES
   105   54   55 1    
   106   54  110 1    
   107   55   56 1    
   108   55   59 1    
   109   55  111 1    
   110   56   57 am   BACKBONE|DICT|INTERRES
   111   56   58 2    
   112   57  112 1    
   113   57  113 1    
   114   59   60 1    
   115   59  114 1    
   116   59  115 1    
   117   60   61 1    
   118   61  116 1    
   119   61  117 1    
@<TRIPOS>SUBSTRUCTURE
     1 UNK         1 GROUP             0       ****    0 ROOT    
