@<TRIPOS>MOLECULE
3R8
117   119    1
SMALL
USER_CHARGES


@<TRIPOS>ATOM
      1 CA         18.9103  -25.7595  -39.0453 C.3       0 UNK        -0.2013 
      2 C          18.5375  -25.3766  -40.4701 C.2       0 UNK         0.4866 
      3 O          18.6313  -24.2038  -40.8337 O.2       0 UNK        -0.5176 
      4 N          18.1093  -26.3551  -41.2767 N.am      1 UNK        -0.4884 
      5 CA         17.8114  -26.1918  -42.7039 C.3       1 UNK         0.0853 
      6 C6         16.9079  -27.3421  -43.2035 C.3       10 UNK        -0.0849 
      7 S7         16.0011  -26.9198  -44.7313 S.3       10 UNK        -0.2776 
      8 C8         15.0715  -28.4593  -45.0348 C.3       10 UNK         0.0316 
      9 C9         16.0011  -29.6589  -45.1357 C.ar      10 UNK        -0.0863 
     10 C10        16.0979  -30.5656  -44.0769 C.ar      10 UNK        -0.1009 
     11 C11        17.0133  -31.6201  -44.1269 C.ar      10 UNK        -0.0712 
     12 C12        17.8251  -31.7756  -45.2551 C.ar      10 UNK        -0.0894 
     13 C13        17.7274  -30.8801  -46.3255 C.ar      10 UNK        -0.0745 
     14 C14        16.8040  -29.8322  -46.2651 C.ar      10 UNK        -0.0972 
     15 C15        18.6264  -31.0300  -47.5441 C.3       10 UNK         0.0209 
     16 S16        19.7218  -29.5913  -47.7647 S.3       10 UNK        -0.2568 
     17 C17        20.8516  -29.7746  -46.3474 C.3       10 UNK        -0.0983 
     18 CA         21.8029  -28.5590  -46.2082 C.3       3 UNK         0.0876 
     19 N          21.1418  -27.3828  -45.6441 N.am      3 UNK        -0.4424 
     20 C          20.7765  -26.2919  -46.3246 C.2       2 UNK         0.4918 
     21 O          20.8673  -26.1940  -47.5499 O.2       2 UNK        -0.4875 
     22 CA         20.2516  -25.0944  -45.4995 C.3       2 UNK         0.0481 
     23 CB         19.9060  -23.8784  -46.3801 C.3       2 UNK        -0.1831 
     24 N          19.0905  -25.4050  -44.6585 N.am      2 UNK        -0.4498 
     25 C          19.1238  -26.0977  -43.5136 C.2       1 UNK         0.5027 
     26 O          20.1393  -26.6554  -43.0965 O.2       1 UNK        -0.4969 
     27 C          22.9931  -28.9015  -45.2996 C.2       3 UNK         0.5005 
     28 O          22.8188  -29.0021  -44.0824 O.2       3 UNK        -0.5279 
     29 N          24.1694  -29.0963  -45.9167 N.am      4 UNK        -0.4463 
     30 CA         25.4416  -29.5043  -45.3086 C.3       4 UNK         0.0283 
     31 CB         25.4087  -31.0152  -44.9860 C.3       4 UNK        -0.1875 
     32 C          25.8453  -28.6106  -44.1174 C.2       4 UNK         0.4949 
     33 O          26.0119  -27.4042  -44.3010 O.2       4 UNK        -0.5039 
     34 N          25.9927  -29.2090  -42.9286 N.am      5 UNK        -0.4663 
     35 CA         26.3437  -28.5329  -41.6775 C.3       5 UNK         0.0242 
     36 CB         26.9167  -29.5755  -40.7017 C.3       5 UNK        -0.1982 
     37 C          25.1698  -27.7818  -41.0218 C.2       5 UNK         0.5017 
     38 O          25.3990  -27.0800  -40.0356 O.2       5 UNK        -0.5012 
     39 N          23.9432  -27.9622  -41.5351 N.am      6 UNK        -0.4439 
     40 CA         22.6569  -27.4282  -41.0682 C.3       6 UNK         0.0297 
     41 CB         22.6302  -25.8879  -41.0847 C.3       6 UNK        -0.2006 
     42 C          22.1816  -27.9907  -39.7194 C.2       6 UNK         0.4892 
     43 O          21.0239  -28.3996  -39.6135 O.2       6 UNK        -0.5089 
     44 N          23.0782  -28.0444  -38.7262 N.am      7 UNK        -0.4243 
     45 CA         22.8878  -28.7171  -37.4416 C.3       7 UNK         0.0196 
     46 CB         24.1210  -28.4787  -36.5553 C.3       7 UNK        -0.2007 
     47 C          22.6467  -30.2172  -37.6684 C.2       7 UNK         0.5020 
     48 O          23.5263  -30.8963  -38.2028 O.2       7 UNK        -0.5147 
     49 N          21.4302  -30.6761  -37.3407 N.am      8 UNK        -0.4734 
     50 CA         20.8903  -32.0159  -37.6222 C.3       8 UNK         0.0238 
     51 CB         21.5984  -33.0776  -36.7531 C.3       8 UNK        -0.1912 
     52 C          20.8954  -32.3790  -39.1250 C.2       8 UNK         0.5038 
     53 O          21.0040  -33.5589  -39.4639 O.2       8 UNK        -0.5046 
     54 N          20.7953  -31.3582  -39.9908 N.am      9 UNK        -0.4200 
     55 CA         20.9141  -31.4410  -41.4566 C.3       9 UNK         0.0839 
     56 C          22.3424  -31.8290  -41.9511 C.2       9 UNK         0.5513 
     57 N          23.3904  -31.6856  -41.1451 N.am      9 UNK        -0.7519 
     58 O          22.5084  -32.2724  -43.0841 O.2       9 UNK        -0.4960 
     59 C59        19.8022  -32.3036  -42.1248 C.3       10 UNK        -0.0876 
     60 S60        18.1110  -31.8594  -41.6003 S.3       10 UNK        -0.2414 
     61 C61        17.1223  -32.5762  -42.9496 C.3       10 UNK         0.0169 
     62 H62        18.2960  -25.2085  -38.3339 H         1 UNK         0.0903 
     63 H63        18.7720  -26.8248  -38.8607 H         1 UNK         0.0903 
     64 H64        19.9555  -25.5188  -38.8532 H         1 UNK         0.0903 
     65 H65        18.1102  -27.3063  -40.9366 H         1 UNK         0.3096 
     66 H66        17.2722  -25.2484  -42.8191 H         1 UNK         0.1121 
     67 H67        16.1592  -27.5869  -42.4478 H         1 UNK         0.0849 
     68 H68        17.4959  -28.2502  -43.3512 H         1 UNK         0.0849 
     69 H69        14.3390  -28.6011  -44.2385 H         1 UNK         0.0865 
     70 H70        14.5023  -28.3583  -45.9601 H         1 UNK         0.0865 
     71 H71        15.4852  -30.4334  -43.1954 H         1 UNK         0.1346 
     72 H72        18.5387  -32.5870  -45.2953 H         1 UNK         0.1412 
     73 H73        16.7401  -29.1260  -47.0820 H         1 UNK         0.1426 
     74 H74        18.0029  -31.1378  -48.4326 H         1 UNK         0.0716 
     75 H75        19.2312  -31.9359  -47.4798 H         1 UNK         0.0716 
     76 H76        21.4152  -30.6972  -46.5021 H         1 UNK         0.0695 
     77 H77        20.2742  -29.9163  -45.4315 H         1 UNK         0.0695 
     78 H78        22.2019  -28.3150  -47.1955 H         1 UNK         0.0983 
     79 H79        21.0454  -27.3743  -44.6308 H         1 UNK         0.3095 
     80 H80        21.0693  -24.7915  -44.8417 H         1 UNK         0.0454 
     81 H81        19.0882  -24.0976  -47.0677 H         1 UNK         0.0851 
     82 H82        20.7638  -23.5721  -46.9805 H         1 UNK         0.0851 
     83 H83        19.6166  -23.0185  -45.7759 H         1 UNK         0.0851 
     84 H84        18.2014  -25.0428  -44.9736 H         1 UNK         0.2976 
     85 H85        24.2069  -28.9483  -46.9160 H         1 UNK         0.3116 
     86 H86        26.2087  -29.3507  -46.0691 H         1 UNK         0.0646 
     87 H87        24.6475  -31.2590  -44.2453 H         1 UNK         0.0847 
     88 H88        26.3711  -31.3647  -44.6098 H         1 UNK         0.0847 
     89 H89        25.1898  -31.6000  -45.8795 H         1 UNK         0.0847 
     90 H90        25.8190  -30.2018  -42.8725 H         1 UNK         0.3040 
     91 H91        27.1203  -27.7938  -41.8871 H         1 UNK         0.1015 
     92 H92        26.1732  -30.3265  -40.4304 H         1 UNK         0.0786 
     93 H93        27.2515  -29.1037  -39.7766 H         1 UNK         0.0786 
     94 H94        27.7776  -30.0904  -41.1285 H         1 UNK         0.0786 
     95 H95        23.8622  -28.5528  -42.3583 H         1 UNK         0.3172 
     96 H96        21.9377  -27.7821  -41.8045 H         1 UNK         0.0595 
     97 H97        23.3158  -25.4541  -40.3567 H         1 UNK         0.0839 
     98 H98        21.6315  -25.5176  -40.8520 H         1 UNK         0.0839 
     99 H99        22.8923  -25.5017  -42.0696 H         1 UNK         0.0839 
    100 H100       24.0112  -27.6981  -38.9336 H         1 UNK         0.2998 
    101 H101       22.0172  -28.2757  -36.9521 H         1 UNK         0.0822 
    102 H102       24.0068  -28.9700  -35.5881 H         1 UNK         0.0787 
    103 H103       25.0302  -28.8688  -37.0152 H         1 UNK         0.0787 
    104 H104       24.2725  -27.4161  -36.3643 H         1 UNK         0.0787 
    105 H105       20.7704  -30.0205  -36.9432 H         1 UNK         0.3055 
    106 H106       19.8398  -31.9950  -37.3275 H         1 UNK         0.1106 
    107 H107       21.1144  -34.0503  -36.8493 H         1 UNK         0.0828 
    108 H108       22.6424  -33.2051  -37.0413 H         1 UNK         0.0828 
    109 H109       21.5721  -32.8089  -35.6972 H         1 UNK         0.0828 
    110 H110       20.7342  -30.4144  -39.6236 H         1 UNK         0.2931 
    111 H111       20.7727  -30.4177  -41.8074 H         1 UNK         0.0412 
    112 H112       24.2951  -31.9805  -41.4705 H         1 UNK         0.3472 
    113 H113       23.2795  -31.3693  -40.1883 H         1 UNK         0.3472 
    114 H114       19.8624  -32.1969  -43.2089 H         1 UNK         0.0970 
    115 H115       19.9599  -33.3630  -41.9169 H         1 UNK         0.0970 
    116 H116       16.1235  -32.7982  -42.5709 H         1 UNK         0.0612 
    117 H117       17.5500  -33.5314  -43.2584 H         1 UNK         0.0612 
@<TRIPOS>BOND
     1    1    2 1    
     2    1   62 1    
     3    1   63 1    
     4    1   64 1    
     5    2    3 2    
     6    2    4 am   BACKBONE|DICT|INTERRES
     7    4    5 1    
     8    4   65 1    
     9    5    6 1    
    10    5   25 1    
    11    5   66 1    
    12    6    7 1    
    13    6   67 1    
    14    6   68 1    
    15    7    8 1    
    16    8    9 1    
    17    8   69 1    
    18    8   70 1    
    19    9   10 ar   
    20    9   14 ar   
    21   10   11 ar   
    22   10   71 1    
    23   11   12 ar   
    24   11   61 1    
    25   12   13 ar   
    26   12   72 1    
    27   13   14 ar   
    28   13   15 1    
    29   14   73 1    
    30   15   16 1    
    31   15   74 1    
    32   15   75 1    
    33   16   17 1    
    34   17   18 1    
    35   17   76 1    
    36   17   77 1    
    37   18   19 1    
    38   18   27 1    
    39   18   78 1    
    40   19   20 am   BACKBONE|DICT|INTERRES
    41   19   79 1    
    42   20   21 2    
    43   20   22 1    
    44   22   23 1    
    45   22   24 1    
    46   22   80 1    
    47   23   81 1    
    48   23   82 1    
    49   23   83 1    
    50   24   25 am   BACKBONE|DICT|INTERRES
    51   24   84 1    
    52   25   26 2    
    53   27   28 2    
    54   27   29 am   BACKBONE|DICT|INTERRES
    55   29   30 1    
    56   29   85 1    
    57   30   31 1    
    58   30   32 1    
    59   30   86 1    
    60   31   87 1    
    61   31   88 1    
    62   31   89 1    
    63   32   33 2    
    64   32   34 am   BACKBONE|DICT|INTERRES
    65   34   35 1    
    66   34   90 1    
    67   35   36 1    
    68   35   37 1    
    69   35   91 1    
    70   36   92 1    
    71   36   93 1    
    72   36   94 1    
    73   37   38 2    
    74   37   39 am   BACKBONE|DICT|INTERRES
    75   39   40 1    
    76   39   95 1    
    77   40   41 1    
    78   40   42 1    
    79   40   96 1    
    80   41   97 1    
    81   41   98 1    
    82   41   99 1    
    83   42   43 2    
    84   42   44 am   BACKBONE|DICT|INTERRES
    85   44   45 1    
    86   44  100 1    
    87   45   46 1    
    88   45   47 1    
    89   45  101 1    
    90   46  102 1    
    91   46  103 1    
    92   46  104 1    
    93   47   48 2    
    94   47   49 am   BACKBONE|DICT|INTERRES
    95   49   50 1    
    96   49  105 1    
    97   50   51 1    
    98   50   52 1    
    99   50  106 1    
   100   51  107 1    
   101   51  108 1    
   102   51  109 1    
   103   52   53 2    
   104   52   54 am   BACKBONE|DICT|INTERRES
   105   54   55 1    
   106   54  110 1    
   107   55   56 1    
   108   55   59 1    
   109   55  111 1    
   110   56   57 am   BACKBONE|DICT|INTERRES
   111   56   58 2    
   112   57  112 1    
   113   57  113 1    
   114   59   60 1    
   115   59  114 1    
   116   59  115 1    
   117   60   61 1    
   118   61  116 1    
   119   61  117 1    
@<TRIPOS>SUBSTRUCTURE
     1 UNK         1 GROUP             0       ****    0 ROOT    
