@<TRIPOS>MOLECULE
3R8
117   119    1
SMALL
USER_CHARGES


@<TRIPOS>ATOM
      1 CA         15.9307  -21.7647  -46.0382 C.3       0 UNK        -0.2013 
      2 C          16.7047  -23.0172  -45.6561 C.2       0 UNK         0.4866 
      3 O          17.5160  -22.9730  -44.7302 O.2       0 UNK        -0.5176 
      4 N          16.4651  -24.1282  -46.3678 N.am      1 UNK        -0.4884 
      5 CA         17.0633  -25.4635  -46.2042 C.3       1 UNK         0.0853 
      6 C6         16.7957  -26.1083  -44.8142 C.3       10 UNK        -0.0849 
      7 S7         15.1465  -26.8836  -44.7346 S.3       10 UNK        -0.2776 
      8 C8         15.2576  -27.8974  -43.2110 C.3       10 UNK         0.0316 
      9 C9         16.3392  -28.9845  -43.1895 C.ar      10 UNK        -0.0863 
     10 C10        16.7219  -29.5290  -41.9572 C.ar      10 UNK        -0.1009 
     11 C11        17.7022  -30.5261  -41.8810 C.ar      10 UNK        -0.0712 
     12 C12        18.3185  -30.9644  -43.0551 C.ar      10 UNK        -0.0894 
     13 C13        17.9563  -30.4309  -44.2926 C.ar      10 UNK        -0.0745 
     14 C14        16.9470  -29.4671  -44.3556 C.ar      10 UNK        -0.0972 
     15 C15        18.6316  -30.9111  -45.5680 C.3       10 UNK         0.0209 
     16 S16        19.4958  -29.5603  -46.4330 S.3       10 UNK        -0.2568 
     17 C17        21.1455  -29.5363  -45.6451 C.3       10 UNK        -0.0983 
     18 CA         21.4951  -28.2454  -44.8535 C.3       3 UNK         0.0876 
     19 N          21.0726  -27.0195  -45.5438 N.am      3 UNK        -0.4424 
     20 C          21.5867  -25.7977  -45.3523 C.2       2 UNK         0.4918 
     21 O          22.5748  -25.5818  -44.6518 O.2       2 UNK        -0.4875 
     22 CA         20.8593  -24.6039  -46.0043 C.3       2 UNK         0.0481 
     23 CB         21.3655  -24.3552  -47.4382 C.3       2 UNK        -0.1831 
     24 N          19.3898  -24.6815  -45.9404 N.am      2 UNK        -0.4498 
     25 C          18.5607  -25.5231  -46.5723 C.2       1 UNK         0.5027 
     26 O          18.9406  -26.3591  -47.3909 O.2       1 UNK        -0.4969 
     27 C          21.0271  -28.3040  -43.3816 C.2       3 UNK         0.5005 
     28 O          21.5509  -29.1190  -42.6209 O.2       3 UNK        -0.5279 
     29 N          20.0973  -27.4208  -42.9846 N.am      4 UNK        -0.4463 
     30 CA         19.6516  -27.2369  -41.6034 C.3       4 UNK         0.0283 
     31 CB         18.5325  -26.1863  -41.5494 C.3       4 UNK        -0.1875 
     32 C          20.8147  -26.8331  -40.6851 C.2       4 UNK         0.4949 
     33 O          21.4612  -25.8148  -40.9368 O.2       4 UNK        -0.5039 
     34 N          21.0519  -27.6520  -39.6528 N.am      5 UNK        -0.4663 
     35 CA         22.1250  -27.5379  -38.6577 C.3       5 UNK         0.0242 
     36 CB         21.9839  -26.2431  -37.8276 C.3       5 UNK        -0.1982 
     37 C          23.5454  -27.7301  -39.2308 C.2       5 UNK         0.5017 
     38 O          24.5137  -27.3200  -38.5871 O.2       5 UNK        -0.5012 
     39 N          23.6620  -28.3832  -40.3974 N.am      6 UNK        -0.4439 
     40 CA         24.9294  -28.8880  -40.9352 C.3       6 UNK         0.0297 
     41 CB         24.7611  -29.1684  -42.4388 C.3       6 UNK        -0.2006 
     42 C          25.3806  -30.1558  -40.1837 C.2       6 UNK         0.4892 
     43 O          24.6425  -30.6682  -39.3368 O.2       6 UNK        -0.5089 
     44 N          26.5749  -30.6623  -40.5236 N.am      7 UNK        -0.4243 
     45 CA         27.1408  -31.9133  -40.0041 C.3       7 UNK         0.0196 
     46 CB         28.5258  -32.1457  -40.6310 C.3       7 UNK        -0.2007 
     47 C          26.2025  -33.1043  -40.2706 C.2       7 UNK         0.5020 
     48 O          26.0073  -33.4738  -41.4301 O.2       7 UNK        -0.5147 
     49 N          25.5757  -33.6123  -39.1984 N.am      8 UNK        -0.4734 
     50 CA         24.5025  -34.6203  -39.1886 C.3       8 UNK         0.0238 
     51 CB         25.0517  -35.9975  -39.6192 C.3       8 UNK        -0.1912 
     52 C          23.2491  -34.2083  -39.9956 C.2       8 UNK         0.5038 
     53 O          22.5045  -35.0804  -40.4471 O.2       8 UNK        -0.5046 
     54 N          23.0453  -32.8944  -40.1757 N.am      9 UNK        -0.4200 
     55 CA         22.0550  -32.2837  -41.0763 C.3       9 UNK         0.0839 
     56 C          22.2852  -32.6241  -42.5847 C.2       9 UNK         0.5513 
     57 N          23.5005  -32.9599  -43.0060 N.am      9 UNK        -0.7519 
     58 O          21.3646  -32.5844  -43.3941 O.2       9 UNK        -0.4960 
     59 C59        20.5872  -32.4761  -40.5707 C.3       10 UNK        -0.0876 
     60 S60        19.8094  -30.8971  -40.0714 S.3       10 UNK        -0.2414 
     61 C61        18.0640  -31.1513  -40.5370 C.3       10 UNK         0.0169 
     62 H62        15.3458  -21.4130  -45.1888 H         1 UNK         0.0903 
     63 H63        16.6200  -20.9723  -46.3286 H         1 UNK         0.0903 
     64 H64        15.2483  -21.9426  -46.8692 H         1 UNK         0.0903 
     65 H65        15.7974  -24.0689  -47.1251 H         1 UNK         0.3096 
     66 H66        16.5749  -26.0874  -46.9557 H         1 UNK         0.1121 
     67 H67        17.5386  -26.8748  -44.5930 H         1 UNK         0.0849 
     68 H68        16.8804  -25.3780  -44.0098 H         1 UNK         0.0849 
     69 H69        15.3958  -27.2242  -42.3640 H         1 UNK         0.0865 
     70 H70        14.2917  -28.3801  -43.0568 H         1 UNK         0.0865 
     71 H71        16.2449  -29.1806  -41.0511 H         1 UNK         0.1346 
     72 H72        19.0790  -31.7268  -43.0059 H         1 UNK         0.1412 
     73 H73        16.6590  -29.0829  -45.3237 H         1 UNK         0.1426 
     74 H74        17.8678  -31.3159  -46.2332 H         1 UNK         0.0716 
     75 H75        19.3263  -31.7288  -45.3688 H         1 UNK         0.0716 
     76 H76        21.8688  -29.6497  -46.4538 H         1 UNK         0.0695 
     77 H77        21.2772  -30.4253  -45.0261 H         1 UNK         0.0695 
     78 H78        22.5851  -28.2118  -44.7915 H         1 UNK         0.0983 
     79 H79        20.2898  -27.1153  -46.1848 H         1 UNK         0.3095 
     80 H80        21.1207  -23.7236  -45.4148 H         1 UNK         0.0454 
     81 H81        21.1878  -25.2087  -48.0928 H         1 UNK         0.0851 
     82 H82        22.4400  -24.1680  -47.4412 H         1 UNK         0.0851 
     83 H83        20.8842  -23.4845  -47.8834 H         1 UNK         0.0851 
     84 H84        18.9422  -24.0173  -45.3103 H         1 UNK         0.2976 
     85 H85        19.7593  -26.7595  -43.6646 H         1 UNK         0.3116 
     86 H86        19.2411  -28.1870  -41.2603 H         1 UNK         0.0646 
     87 H87        18.2295  -25.9918  -40.5197 H         1 UNK         0.0847 
     88 H88        17.6479  -26.5298  -42.0795 H         1 UNK         0.0847 
     89 H89        18.8442  -25.2351  -41.9830 H         1 UNK         0.0847 
     90 H90        20.4820  -28.4860  -39.5770 H         1 UNK         0.3040 
     91 H91        21.9797  -28.3760  -37.9740 H         1 UNK         0.1015 
     92 H92        22.2043  -25.3545  -38.4197 H         1 UNK         0.0786 
     93 H93        22.6708  -26.2444  -36.9805 H         1 UNK         0.0786 
     94 H94        20.9769  -26.1374  -37.4241 H         1 UNK         0.0786 
     95 H95        22.8179  -28.6824  -40.8736 H         1 UNK         0.3172 
     96 H96        25.6971  -28.1222  -40.8075 H         1 UNK         0.0595 
     97 H97        24.0705  -29.9923  -42.6216 H         1 UNK         0.0839 
     98 H98        25.7106  -29.4338  -42.9045 H         1 UNK         0.0839 
     99 H99        24.3829  -28.2911  -42.9639 H         1 UNK         0.0839 
    100 H100       27.1107  -30.1940  -41.2398 H         1 UNK         0.2998 
    101 H101       27.2719  -31.7973  -38.9262 H         1 UNK         0.0822 
    102 H102       29.2136  -31.3354  -40.3883 H         1 UNK         0.0787 
    103 H103       28.9709  -33.0697  -40.2593 H         1 UNK         0.0787 
    104 H104       28.4703  -32.2257  -41.7176 H         1 UNK         0.0787 
    105 H105       25.7777  -33.1949  -38.2993 H         1 UNK         0.3055 
    106 H106       24.1703  -34.7066  -38.1527 H         1 UNK         0.1106 
    107 H107       25.3369  -36.0079  -40.6717 H         1 UNK         0.0828 
    108 H108       24.3053  -36.7802  -39.4781 H         1 UNK         0.0828 
    109 H109       25.9258  -36.2782  -39.0318 H         1 UNK         0.0828 
    110 H110       23.7041  -32.2393  -39.7620 H         1 UNK         0.2931 
    111 H111       22.2915  -31.2207  -41.0277 H         1 UNK         0.0412 
    112 H112       24.2803  -33.0470  -42.3631 H         1 UNK         0.3472 
    113 H113       23.6328  -33.1774  -43.9804 H         1 UNK         0.3472 
    114 H114       20.5565  -33.1318  -39.6996 H         1 UNK         0.0970 
    115 H115       19.9643  -32.9803  -41.3096 H         1 UNK         0.0970 
    116 H116       17.8305  -32.2165  -40.5559 H         1 UNK         0.0612 
    117 H117       17.4449  -30.7243  -39.7468 H         1 UNK         0.0612 
@<TRIPOS>BOND
     1    1    2 1    
     2    1   62 1    
     3    1   63 1    
     4    1   64 1    
     5    2    3 2    
     6    2    4 am   BACKBONE|DICT|INTERRES
     7    4    5 1    
     8    4   65 1    
     9    5    6 1    
    10    5   25 1    
    11    5   66 1    
    12    6    7 1    
    13    6   67 1    
    14    6   68 1    
    15    7    8 1    
    16    8    9 1    
    17    8   69 1    
    18    8   70 1    
    19    9   10 ar   
    20    9   14 ar   
    21   10   11 ar   
    22   10   71 1    
    23   11   12 ar   
    24   11   61 1    
    25   12   13 ar   
    26   12   72 1    
    27   13   14 ar   
    28   13   15 1    
    29   14   73 1    
    30   15   16 1    
    31   15   74 1    
    32   15   75 1    
    33   16   17 1    
    34   17   18 1    
    35   17   76 1    
    36   17   77 1    
    37   18   19 1    
    38   18   27 1    
    39   18   78 1    
    40   19   20 am   BACKBONE|DICT|INTERRES
    41   19   79 1    
    42   20   21 2    
    43   20   22 1    
    44   22   23 1    
    45   22   24 1    
    46   22   80 1    
    47   23   81 1    
    48   23   82 1    
    49   23   83 1    
    50   24   25 am   BACKBONE|DICT|INTERRES
    51   24   84 1    
    52   25   26 2    
    53   27   28 2    
    54   27   29 am   BACKBONE|DICT|INTERRES
    55   29   30 1    
    56   29   85 1    
    57   30   31 1    
    58   30   32 1    
    59   30   86 1    
    60   31   87 1    
    61   31   88 1    
    62   31   89 1    
    63   32   33 2    
    64   32   34 am   BACKBONE|DICT|INTERRES
    65   34   35 1    
    66   34   90 1    
    67   35   36 1    
    68   35   37 1    
    69   35   91 1    
    70   36   92 1    
    71   36   93 1    
    72   36   94 1    
    73   37   38 2    
    74   37   39 am   BACKBONE|DICT|INTERRES
    75   39   40 1    
    76   39   95 1    
    77   40   41 1    
    78   40   42 1    
    79   40   96 1    
    80   41   97 1    
    81   41   98 1    
    82   41   99 1    
    83   42   43 2    
    84   42   44 am   BACKBONE|DICT|INTERRES
    85   44   45 1    
    86   44  100 1    
    87   45   46 1    
    88   45   47 1    
    89   45  101 1    
    90   46  102 1    
    91   46  103 1    
    92   46  104 1    
    93   47   48 2    
    94   47   49 am   BACKBONE|DICT|INTERRES
    95   49   50 1    
    96   49  105 1    
    97   50   51 1    
    98   50   52 1    
    99   50  106 1    
   100   51  107 1    
   101   51  108 1    
   102   51  109 1    
   103   52   53 2    
   104   52   54 am   BACKBONE|DICT|INTERRES
   105   54   55 1    
   106   54  110 1    
   107   55   56 1    
   108   55   59 1    
   109   55  111 1    
   110   56   57 am   BACKBONE|DICT|INTERRES
   111   56   58 2    
   112   57  112 1    
   113   57  113 1    
   114   59   60 1    
   115   59  114 1    
   116   59  115 1    
   117   60   61 1    
   118   61  116 1    
   119   61  117 1    
@<TRIPOS>SUBSTRUCTURE
     1 UNK         1 GROUP             0       ****    0 ROOT    
