@<TRIPOS>MOLECULE
3R8
117   119    1
SMALL
USER_CHARGES


@<TRIPOS>ATOM
      1 CA         17.1447  -24.4972  -50.0040 C.3       0 UNK        -0.2013 
      2 C          18.1035  -25.2655  -49.1066 C.2       0 UNK         0.4866 
      3 O          19.3190  -25.1493  -49.2678 O.2       0 UNK        -0.5176 
      4 N          17.5682  -26.0559  -48.1675 N.am      1 UNK        -0.4884 
      5 CA         18.3404  -26.8098  -47.1747 C.3       1 UNK         0.0853 
      6 C6         17.4818  -27.9308  -46.5391 C.3       10 UNK        -0.0849 
      7 S7         18.4960  -29.2847  -45.8568 S.3       10 UNK        -0.2776 
      8 C8         17.2092  -30.4385  -45.2834 C.3       10 UNK         0.0316 
      9 C9         16.9415  -30.2799  -43.7939 C.ar      10 UNK        -0.0863 
     10 C10        17.4632  -31.2069  -42.8855 C.ar      10 UNK        -0.1009 
     11 C11        17.2275  -31.0740  -41.5097 C.ar      10 UNK        -0.0712 
     12 C12        16.4525  -30.0019  -41.0593 C.ar      10 UNK        -0.0894 
     13 C13        15.9373  -29.0602  -41.9547 C.ar      10 UNK        -0.0745 
     14 C14        16.1721  -29.2128  -43.3228 C.ar      10 UNK        -0.0972 
     15 C15        15.1577  -27.8609  -41.4365 C.3       10 UNK         0.0209 
     16 S16        16.1900  -26.7963  -40.3764 S.3       10 UNK        -0.2568 
     17 C17        17.4231  -26.1342  -41.5527 C.3       10 UNK        -0.0983 
     18 CA         18.7127  -26.9973  -41.6852 C.3       3 UNK         0.0876 
     19 N          19.4578  -26.6808  -42.9095 N.am      3 UNK        -0.4424 
     20 C          20.1213  -25.5417  -43.1650 C.2       2 UNK         0.4918 
     21 O          20.2157  -24.6003  -42.3777 O.2       2 UNK        -0.4875 
     22 CA         20.7997  -25.4272  -44.5426 C.3       2 UNK         0.0481 
     23 CB         22.2623  -25.8873  -44.4505 C.3       2 UNK        -0.1831 
     24 N          20.1147  -26.1808  -45.5983 N.am      2 UNK        -0.4498 
     25 C          18.9115  -25.8637  -46.0974 C.2       1 UNK         0.5027 
     26 O          18.2465  -24.8942  -45.7216 O.2       1 UNK        -0.4969 
     27 C          19.6276  -27.0018  -40.4362 C.2       3 UNK         0.5005 
     28 O          19.3331  -26.3443  -39.4354 O.2       3 UNK        -0.5279 
     29 N          20.7422  -27.7403  -40.5253 N.am      4 UNK        -0.4463 
     30 CA         21.7008  -27.9375  -39.4427 C.3       4 UNK         0.0283 
     31 CB         22.7023  -26.7694  -39.3952 C.3       4 UNK        -0.1875 
     32 C          22.4272  -29.2656  -39.6608 C.2       4 UNK         0.4949 
     33 O          22.7519  -29.6006  -40.8034 O.2       4 UNK        -0.5039 
     34 N          22.7044  -29.9757  -38.5594 N.am      5 UNK        -0.4663 
     35 CA         23.4506  -31.2415  -38.5350 C.3       5 UNK         0.0242 
     36 CB         23.2360  -31.9289  -37.1775 C.3       5 UNK        -0.1982 
     37 C          24.9518  -31.0744  -38.8272 C.2       5 UNK         0.5017 
     38 O          25.5996  -32.0331  -39.2451 O.2       5 UNK        -0.5012 
     39 N          25.4692  -29.8559  -38.6239 N.am      6 UNK        -0.4439 
     40 CA         26.8213  -29.4409  -39.0020 C.3       6 UNK         0.0297 
     41 CB         27.2165  -28.2196  -38.1539 C.3       6 UNK        -0.2006 
     42 C          26.9574  -29.1218  -40.5052 C.2       6 UNK         0.4892 
     43 O          28.0776  -28.8856  -40.9605 O.2       6 UNK        -0.5089 
     44 N          25.8360  -29.0933  -41.2380 N.am      7 UNK        -0.4243 
     45 CA         25.7586  -28.7799  -42.6594 C.3       7 UNK         0.0196 
     46 CB         25.1806  -27.3586  -42.8287 C.3       7 UNK        -0.2007 
     47 C          24.9590  -29.8846  -43.3683 C.2       7 UNK         0.5020 
     48 O          25.2943  -31.0606  -43.2223 O.2       7 UNK        -0.5147 
     49 N          23.9337  -29.4960  -44.1373 N.am      8 UNK        -0.4734 
     50 CA         23.1508  -30.3503  -45.0371 C.3       8 UNK         0.0238 
     51 CB         22.1390  -29.4779  -45.7961 C.3       8 UNK        -0.1912 
     52 C          22.4339  -31.5451  -44.3822 C.2       8 UNK         0.5038 
     53 O          22.2057  -32.5384  -45.0743 O.2       8 UNK        -0.5046 
     54 N          22.0968  -31.4433  -43.0888 N.am      9 UNK        -0.4200 
     55 CA         21.5128  -32.5459  -42.3077 C.3       9 UNK         0.0839 
     56 C          22.5760  -33.5035  -41.6888 C.2       9 UNK         0.5513 
     57 N          23.8720  -33.2639  -41.8504 N.am      9 UNK        -0.7519 
     58 O          22.2228  -34.4926  -41.0530 O.2       9 UNK        -0.4960 
     59 C59        20.4875  -32.0244  -41.2611 C.3       10 UNK        -0.0876 
     60 S60        19.0933  -33.1793  -41.0265 S.3       10 UNK        -0.2414 
     61 C61        17.7672  -32.0569  -40.4676 C.3       10 UNK         0.0169 
     62 H62        17.3071  -24.7691  -51.0467 H         1 UNK         0.0903 
     63 H63        16.1027  -24.7021  -49.7588 H         1 UNK         0.0903 
     64 H64        17.3125  -23.4254  -49.9010 H         1 UNK         0.0903 
     65 H65        16.5642  -26.0829  -48.0576 H         1 UNK         0.3096 
     66 H66        19.1762  -27.2716  -47.7065 H         1 UNK         0.1121 
     67 H67        16.8159  -27.5323  -45.7725 H         1 UNK         0.0849 
     68 H68        16.8347  -28.3742  -47.2982 H         1 UNK         0.0849 
     69 H69        16.2860  -30.2957  -45.8469 H         1 UNK         0.0865 
     70 H70        17.5368  -31.4563  -45.5010 H         1 UNK         0.0865 
     71 H71        18.0524  -32.0310  -43.2613 H         1 UNK         0.1346 
     72 H72        16.2660  -29.8827  -40.0003 H         1 UNK         0.1412 
     73 H73        15.7661  -28.4930  -44.0185 H         1 UNK         0.1426 
     74 H74        14.3037  -28.2150  -40.8577 H         1 UNK         0.0716 
     75 H75        14.7500  -27.2679  -42.2568 H         1 UNK         0.0716 
     76 H76        16.9391  -26.0408  -42.5263 H         1 UNK         0.0695 
     77 H77        17.6746  -25.1158  -41.2518 H         1 UNK         0.0695 
     78 H78        18.4061  -28.0346  -41.8102 H         1 UNK         0.0983 
     79 H79        19.4325  -27.3850  -43.6327 H         1 UNK         0.3095 
     80 H80        20.7949  -24.3730  -44.8278 H         1 UNK         0.0454 
     81 H81        22.3348  -26.9276  -44.1374 H         1 UNK         0.0851 
     82 H82        22.7771  -25.7811  -45.4056 H         1 UNK         0.0851 
     83 H83        22.8110  -25.2898  -43.7209 H         1 UNK         0.0851 
     84 H84        20.5926  -26.9900  -45.9667 H         1 UNK         0.2976 
     85 H85        20.9388  -28.2661  -41.3664 H         1 UNK         0.3116 
     86 H86        21.1621  -27.9888  -38.4938 H         1 UNK         0.0646 
     87 H87        23.4289  -26.9044  -38.5933 H         1 UNK         0.0847 
     88 H88        22.1963  -25.8210  -39.2136 H         1 UNK         0.0847 
     89 H89        23.2577  -26.6745  -40.3281 H         1 UNK         0.0847 
     90 H90        22.3921  -29.6237  -37.6646 H         1 UNK         0.3040 
     91 H91        23.0515  -31.8932  -39.3121 H         1 UNK         0.1015 
     92 H92        22.1797  -32.1305  -36.9977 H         1 UNK         0.0786 
     93 H93        23.6094  -31.3217  -36.3519 H         1 UNK         0.0786 
     94 H94        23.7567  -32.8870  -37.1391 H         1 UNK         0.0786 
     95 H95        24.8606  -29.1414  -38.2527 H         1 UNK         0.3172 
     96 H96        27.5153  -30.2531  -38.7755 H         1 UNK         0.0595 
     97 H97        27.1706  -28.4436  -37.0879 H         1 UNK         0.0839 
     98 H98        26.5673  -27.3647  -38.3476 H         1 UNK         0.0839 
     99 H99        28.2387  -27.9066  -38.3716 H         1 UNK         0.0839 
    100 H100       24.9617  -29.3692  -40.8084 H         1 UNK         0.2998 
    101 H101       26.7550  -28.7972  -43.1057 H         1 UNK         0.0822 
    102 H102       25.7897  -26.6263  -42.2981 H         1 UNK         0.0787 
    103 H103       25.1667  -27.0540  -43.8760 H         1 UNK         0.0787 
    104 H104       24.1662  -27.2839  -42.4365 H         1 UNK         0.0787 
    105 H105       23.7444  -28.5071  -44.1833 H         1 UNK         0.3055 
    106 H106       23.8500  -30.7695  -45.7641 H         1 UNK         0.1106 
    107 H107       21.4232  -29.0180  -45.1151 H         1 UNK         0.0828 
    108 H108       22.6340  -28.6876  -46.3605 H         1 UNK         0.0828 
    109 H109       21.5686  -30.0735  -46.5108 H         1 UNK         0.0828 
    110 H110       22.3817  -30.6257  -42.5612 H         1 UNK         0.2931 
    111 H111       20.9539  -33.1667  -43.0106 H         1 UNK         0.0412 
    112 H112       24.2036  -32.4589  -42.3720 H         1 UNK         0.3472 
    113 H113       24.5412  -33.8885  -41.4300 H         1 UNK         0.3472 
    114 H114       20.0778  -31.0671  -41.5858 H         1 UNK         0.0970 
    115 H115       20.9537  -31.8309  -40.2954 H         1 UNK         0.0970 
    116 H116       18.1337  -31.5048  -39.6005 H         1 UNK         0.0612 
    117 H117       16.9355  -32.6681  -40.1151 H         1 UNK         0.0612 
@<TRIPOS>BOND
     1    1    2 1    
     2    1   62 1    
     3    1   63 1    
     4    1   64 1    
     5    2    3 2    
     6    2    4 am   BACKBONE|DICT|INTERRES
     7    4    5 1    
     8    4   65 1    
     9    5    6 1    
    10    5   25 1    
    11    5   66 1    
    12    6    7 1    
    13    6   67 1    
    14    6   68 1    
    15    7    8 1    
    16    8    9 1    
    17    8   69 1    
    18    8   70 1    
    19    9   10 ar   
    20    9   14 ar   
    21   10   11 ar   
    22   10   71 1    
    23   11   12 ar   
    24   11   61 1    
    25   12   13 ar   
    26   12   72 1    
    27   13   14 ar   
    28   13   15 1    
    29   14   73 1    
    30   15   16 1    
    31   15   74 1    
    32   15   75 1    
    33   16   17 1    
    34   17   18 1    
    35   17   76 1    
    36   17   77 1    
    37   18   19 1    
    38   18   27 1    
    39   18   78 1    
    40   19   20 am   BACKBONE|DICT|INTERRES
    41   19   79 1    
    42   20   21 2    
    43   20   22 1    
    44   22   23 1    
    45   22   24 1    
    46   22   80 1    
    47   23   81 1    
    48   23   82 1    
    49   23   83 1    
    50   24   25 am   BACKBONE|DICT|INTERRES
    51   24   84 1    
    52   25   26 2    
    53   27   28 2    
    54   27   29 am   BACKBONE|DICT|INTERRES
    55   29   30 1    
    56   29   85 1    
    57   30   31 1    
    58   30   32 1    
    59   30   86 1    
    60   31   87 1    
    61   31   88 1    
    62   31   89 1    
    63   32   33 2    
    64   32   34 am   BACKBONE|DICT|INTERRES
    65   34   35 1    
    66   34   90 1    
    67   35   36 1    
    68   35   37 1    
    69   35   91 1    
    70   36   92 1    
    71   36   93 1    
    72   36   94 1    
    73   37   38 2    
    74   37   39 am   BACKBONE|DICT|INTERRES
    75   39   40 1    
    76   39   95 1    
    77   40   41 1    
    78   40   42 1    
    79   40   96 1    
    80   41   97 1    
    81   41   98 1    
    82   41   99 1    
    83   42   43 2    
    84   42   44 am   BACKBONE|DICT|INTERRES
    85   44   45 1    
    86   44  100 1    
    87   45   46 1    
    88   45   47 1    
    89   45  101 1    
    90   46  102 1    
    91   46  103 1    
    92   46  104 1    
    93   47   48 2    
    94   47   49 am   BACKBONE|DICT|INTERRES
    95   49   50 1    
    96   49  105 1    
    97   50   51 1    
    98   50   52 1    
    99   50  106 1    
   100   51  107 1    
   101   51  108 1    
   102   51  109 1    
   103   52   53 2    
   104   52   54 am   BACKBONE|DICT|INTERRES
   105   54   55 1    
   106   54  110 1    
   107   55   56 1    
   108   55   59 1    
   109   55  111 1    
   110   56   57 am   BACKBONE|DICT|INTERRES
   111   56   58 2    
   112   57  112 1    
   113   57  113 1    
   114   59   60 1    
   115   59  114 1    
   116   59  115 1    
   117   60   61 1    
   118   61  116 1    
   119   61  117 1    
@<TRIPOS>SUBSTRUCTURE
     1 UNK         1 GROUP             0       ****    0 ROOT    
