@<TRIPOS>MOLECULE
3R8
117   119    1
SMALL
USER_CHARGES


@<TRIPOS>ATOM
      1 CA         17.9135  -28.9134  -51.2534 C.3       0 UNK        -0.2013 
      2 C          18.2767  -29.4695  -49.8846 C.2       0 UNK         0.4866 
      3 O          18.2428  -30.6845  -49.6878 O.2       0 UNK        -0.5176 
      4 N          18.6272  -28.5923  -48.9408 N.am      1 UNK        -0.4884 
      5 CA         19.0157  -28.9263  -47.5717 C.3       1 UNK         0.0853 
      6 C6         17.8005  -29.2784  -46.6621 C.3       10 UNK        -0.0849 
      7 S7         16.5650  -27.9370  -46.5100 S.3       10 UNK        -0.2776 
      8 C8         15.3945  -28.6365  -45.3039 C.3       10 UNK         0.0316 
      9 C9         15.9204  -28.5957  -43.8737 C.ar      10 UNK        -0.0863 
     10 C10        16.2171  -29.7829  -43.1974 C.ar      10 UNK        -0.1009 
     11 C11        16.6341  -29.7553  -41.8628 C.ar      10 UNK        -0.0712 
     12 C12        16.7524  -28.5287  -41.2026 C.ar      10 UNK        -0.0894 
     13 C13        16.4789  -27.3324  -41.8723 C.ar      10 UNK        -0.0745 
     14 C14        16.0589  -27.3735  -43.2064 C.ar      10 UNK        -0.0972 
     15 C15        16.6033  -25.9975  -41.1492 C.3       10 UNK         0.0209 
     16 S16        18.1519  -25.1303  -41.5630 S.3       10 UNK        -0.2568 
     17 C17        19.3850  -25.9770  -40.5109 C.3       10 UNK        -0.0983 
     18 CA         20.1002  -27.1564  -41.2266 C.3       3 UNK         0.0876 
     19 N          20.6139  -26.7639  -42.5433 N.am      3 UNK        -0.4424 
     20 C          20.7623  -27.6238  -43.5514 C.2       2 UNK         0.4918 
     21 O          20.6397  -28.8407  -43.4257 O.2       2 UNK        -0.4875 
     22 CA         21.0322  -27.0435  -44.9431 C.3       2 UNK         0.0481 
     23 CB         22.5250  -26.7808  -45.1908 C.3       2 UNK        -0.1831 
     24 N          20.5216  -28.0310  -45.8864 N.am      2 UNK        -0.4498 
     25 C          19.8435  -27.7620  -47.0014 C.2       1 UNK         0.5027 
     26 O          19.8141  -26.6523  -47.5442 O.2       1 UNK        -0.4969 
     27 C          21.1650  -27.8555  -40.3455 C.2       3 UNK         0.5005 
     28 O          22.2232  -28.2719  -40.8340 O.2       3 UNK        -0.5279 
     29 N          20.8605  -27.9876  -39.0452 N.am      4 UNK        -0.4463 
     30 CA         21.7482  -28.5276  -38.0125 C.3       4 UNK         0.0283 
     31 CB         21.0236  -28.5113  -36.6580 C.3       4 UNK        -0.1875 
     32 C          23.0706  -27.7474  -37.9265 C.2       4 UNK         0.4949 
     33 O          23.0691  -26.5259  -38.0920 O.2       4 UNK        -0.5039 
     34 N          24.1742  -28.4765  -37.7189 N.am      5 UNK        -0.4663 
     35 CA         25.5799  -28.0378  -37.7394 C.3       5 UNK         0.0242 
     36 CB         25.8574  -26.9489  -36.6837 C.3       5 UNK        -0.1982 
     37 C          26.1008  -27.6146  -39.1285 C.2       5 UNK         0.5017 
     38 O          27.2676  -27.8734  -39.4247 O.2       5 UNK        -0.5012 
     39 N          25.2467  -26.9999  -39.9587 N.am      6 UNK        -0.4439 
     40 CA         25.5366  -26.6220  -41.3439 C.3       6 UNK         0.0297 
     41 CB         24.4453  -25.6731  -41.8643 C.3       6 UNK        -0.2006 
     42 C          25.6921  -27.8442  -42.2654 C.2       6 UNK         0.4892 
     43 O          26.6082  -27.8619  -43.0885 O.2       6 UNK        -0.5089 
     44 N          24.8234  -28.8480  -42.0888 N.am      7 UNK        -0.4243 
     45 CA         24.9117  -30.1478  -42.7598 C.3       7 UNK         0.0196 
     46 CB         24.2540  -30.0929  -44.1486 C.3       7 UNK        -0.2007 
     47 C          24.3025  -31.2742  -41.9173 C.2       7 UNK         0.5020 
     48 O          24.8443  -32.3792  -41.9255 O.2       7 UNK        -0.5147 
     49 N          23.2001  -30.9788  -41.2129 N.am      8 UNK        -0.4734 
     50 CA         22.3995  -31.8913  -40.3851 C.3       8 UNK         0.0238 
     51 CB         23.1638  -32.2001  -39.0781 C.3       8 UNK        -0.1912 
     52 C          21.9380  -33.1856  -41.1089 C.2       8 UNK         0.5038 
     53 O          22.2834  -34.2755  -40.6514 O.2       8 UNK        -0.5046 
     54 N          21.1745  -33.1348  -42.2111 N.am      9 UNK        -0.4200 
     55 CA         20.6581  -31.9704  -42.9520 C.3       9 UNK         0.0839 
     56 C          21.0251  -32.0205  -44.4672 C.2       9 UNK         0.5513 
     57 N          21.9403  -32.8827  -44.8954 N.am      9 UNK        -0.7519 
     58 O          20.4861  -31.2647  -45.2731 O.2       9 UNK        -0.4960 
     59 C59        19.1371  -31.7582  -42.7265 C.3       10 UNK        -0.0876 
     60 S60        18.7230  -31.3627  -40.9946 S.3       10 UNK        -0.2414 
     61 C61        16.9355  -31.0511  -41.1236 C.3       10 UNK         0.0169 
     62 H62        17.9848  -27.8262  -51.2837 H         1 UNK         0.0903 
     63 H63        18.5816  -29.3186  -52.0129 H         1 UNK         0.0903 
     64 H64        16.8927  -29.1930  -51.5126 H         1 UNK         0.0903 
     65 H65        18.6795  -27.6001  -49.1405 H         1 UNK         0.3096 
     66 H66        19.6796  -29.7937  -47.6125 H         1 UNK         0.1121 
     67 H67        17.2976  -30.1645  -47.0516 H         1 UNK         0.0849 
     68 H68        18.1430  -29.5541  -45.6625 H         1 UNK         0.0849 
     69 H69        14.4656  -28.0663  -45.3509 H         1 UNK         0.0865 
     70 H70        15.1364  -29.6548  -45.5993 H         1 UNK         0.0865 
     71 H71        16.1102  -30.7320  -43.7048 H         1 UNK         0.1346 
     72 H72        17.0665  -28.5082  -40.1681 H         1 UNK         0.1412 
     73 H73        15.8312  -26.4521  -43.7253 H         1 UNK         0.1426 
     74 H74        16.5273  -26.1293  -40.0689 H         1 UNK         0.0716 
     75 H75        15.7644  -25.3599  -41.4320 H         1 UNK         0.0716 
     76 H76        18.8808  -26.3090  -39.6025 H         1 UNK         0.0695 
     77 H77        20.1178  -25.2314  -40.1959 H         1 UNK         0.0695 
     78 H78        19.3464  -27.9254  -41.3986 H         1 UNK         0.0983 
     79 H79        20.7248  -25.7745  -42.7052 H         1 UNK         0.3095 
     80 H80        20.4741  -26.1096  -45.0409 H         1 UNK         0.0454 
     81 H81        22.9131  -26.0444  -44.4877 H         1 UNK         0.0851 
     82 H82        22.6947  -26.3912  -46.1945 H         1 UNK         0.0851 
     83 H83        23.1194  -27.6849  -45.0807 H         1 UNK         0.0851 
     84 H84        20.4695  -28.9662  -45.4892 H         1 UNK         0.2976 
     85 H85        19.9847  -27.6084  -38.7183 H         1 UNK         0.3116 
     86 H86        21.9607  -29.5628  -38.2795 H         1 UNK         0.0646 
     87 H87        20.1067  -29.1003  -36.6887 H         1 UNK         0.0847 
     88 H88        20.7632  -27.4971  -36.3518 H         1 UNK         0.0847 
     89 H89        21.6519  -28.9355  -35.8735 H         1 UNK         0.0847 
     90 H90        24.0535  -29.4725  -37.5987 H         1 UNK         0.3040 
     91 H91        26.1615  -28.9168  -37.4551 H         1 UNK         0.1015 
     92 H92        26.9250  -26.7337  -36.6221 H         1 UNK         0.0786 
     93 H93        25.5333  -27.2653  -35.6923 H         1 UNK         0.0786 
     94 H94        25.3549  -26.0103  -36.9183 H         1 UNK         0.0786 
     95 H95        24.3177  -26.7977  -39.6018 H         1 UNK         0.3172 
     96 H96        26.4839  -26.0787  -41.3485 H         1 UNK         0.0595 
     97 H97        24.6770  -25.3355  -42.8751 H         1 UNK         0.0839 
     98 H98        24.3604  -24.7843  -41.2389 H         1 UNK         0.0839 
     99 H99        23.4683  -26.1548  -41.8958 H         1 UNK         0.0839 
    100 H100       24.0730  -28.7206  -41.4164 H         1 UNK         0.2998 
    101 H101       25.9673  -30.3971  -42.8914 H         1 UNK         0.0822 
    102 H102       24.3042  -31.0638  -44.6429 H         1 UNK         0.0787 
    103 H103       24.7573  -29.3768  -44.7976 H         1 UNK         0.0787 
    104 H104       23.2016  -29.8161  -44.0814 H         1 UNK         0.0787 
    105 H105       22.8123  -30.0419  -41.2957 H         1 UNK         0.3055 
    106 H106       21.4947  -31.3477  -40.1128 H         1 UNK         0.1106 
    107 H107       23.4839  -31.2917  -38.5727 H         1 UNK         0.0828 
    108 H108       22.5364  -32.7573  -38.3812 H         1 UNK         0.0828 
    109 H109       24.0554  -32.8001  -39.2646 H         1 UNK         0.0828 
    110 H110       20.9188  -34.0179  -42.6271 H         1 UNK         0.2931 
    111 H111       21.1496  -31.0756  -42.5917 H         1 UNK         0.0412 
    112 H112       22.4249  -33.4874  -44.2515 H         1 UNK         0.3472 
    113 H113       22.1675  -32.9061  -45.8769 H         1 UNK         0.3472 
    114 H114       18.5733  -32.6381  -43.0403 H         1 UNK         0.0970 
    115 H115       18.7838  -30.9285  -43.3408 H         1 UNK         0.0970 
    116 H116       16.4537  -31.8991  -41.6128 H         1 UNK         0.0612 
    117 H117       16.5155  -31.0006  -40.1180 H         1 UNK         0.0612 
@<TRIPOS>BOND
     1    1    2 1    
     2    1   62 1    
     3    1   63 1    
     4    1   64 1    
     5    2    3 2    
     6    2    4 am   BACKBONE|DICT|INTERRES
     7    4    5 1    
     8    4   65 1    
     9    5    6 1    
    10    5   25 1    
    11    5   66 1    
    12    6    7 1    
    13    6   67 1    
    14    6   68 1    
    15    7    8 1    
    16    8    9 1    
    17    8   69 1    
    18    8   70 1    
    19    9   10 ar   
    20    9   14 ar   
    21   10   11 ar   
    22   10   71 1    
    23   11   12 ar   
    24   11   61 1    
    25   12   13 ar   
    26   12   72 1    
    27   13   14 ar   
    28   13   15 1    
    29   14   73 1    
    30   15   16 1    
    31   15   74 1    
    32   15   75 1    
    33   16   17 1    
    34   17   18 1    
    35   17   76 1    
    36   17   77 1    
    37   18   19 1    
    38   18   27 1    
    39   18   78 1    
    40   19   20 am   BACKBONE|DICT|INTERRES
    41   19   79 1    
    42   20   21 2    
    43   20   22 1    
    44   22   23 1    
    45   22   24 1    
    46   22   80 1    
    47   23   81 1    
    48   23   82 1    
    49   23   83 1    
    50   24   25 am   BACKBONE|DICT|INTERRES
    51   24   84 1    
    52   25   26 2    
    53   27   28 2    
    54   27   29 am   BACKBONE|DICT|INTERRES
    55   29   30 1    
    56   29   85 1    
    57   30   31 1    
    58   30   32 1    
    59   30   86 1    
    60   31   87 1    
    61   31   88 1    
    62   31   89 1    
    63   32   33 2    
    64   32   34 am   BACKBONE|DICT|INTERRES
    65   34   35 1    
    66   34   90 1    
    67   35   36 1    
    68   35   37 1    
    69   35   91 1    
    70   36   92 1    
    71   36   93 1    
    72   36   94 1    
    73   37   38 2    
    74   37   39 am   BACKBONE|DICT|INTERRES
    75   39   40 1    
    76   39   95 1    
    77   40   41 1    
    78   40   42 1    
    79   40   96 1    
    80   41   97 1    
    81   41   98 1    
    82   41   99 1    
    83   42   43 2    
    84   42   44 am   BACKBONE|DICT|INTERRES
    85   44   45 1    
    86   44  100 1    
    87   45   46 1    
    88   45   47 1    
    89   45  101 1    
    90   46  102 1    
    91   46  103 1    
    92   46  104 1    
    93   47   48 2    
    94   47   49 am   BACKBONE|DICT|INTERRES
    95   49   50 1    
    96   49  105 1    
    97   50   51 1    
    98   50   52 1    
    99   50  106 1    
   100   51  107 1    
   101   51  108 1    
   102   51  109 1    
   103   52   53 2    
   104   52   54 am   BACKBONE|DICT|INTERRES
   105   54   55 1    
   106   54  110 1    
   107   55   56 1    
   108   55   59 1    
   109   55  111 1    
   110   56   57 am   BACKBONE|DICT|INTERRES
   111   56   58 2    
   112   57  112 1    
   113   57  113 1    
   114   59   60 1    
   115   59  114 1    
   116   59  115 1    
   117   60   61 1    
   118   61  116 1    
   119   61  117 1    
@<TRIPOS>SUBSTRUCTURE
     1 UNK         1 GROUP             0       ****    0 ROOT    
