@<TRIPOS>MOLECULE
3R8
117   119    1
SMALL
USER_CHARGES


@<TRIPOS>ATOM
      1 CA         18.4726  -27.5096  -40.9100 C.3       0 UNK        -0.2013 
      2 C          17.5353  -26.7951  -41.8690 C.2       0 UNK         0.4866 
      3 O          16.7016  -26.0006  -41.4322 O.2       0 UNK        -0.5176 
      4 N          17.6666  -27.0797  -43.1706 N.am      1 UNK        -0.4884 
      5 CA         16.8929  -26.4555  -44.2515 C.3       1 UNK         0.0853 
      6 C6         16.5405  -27.4664  -45.3803 C.3       10 UNK        -0.0849 
      7 S7         15.7410  -28.9811  -44.7417 S.3       10 UNK        -0.2776 
      8 C8         16.8025  -30.3065  -45.4100 C.3       10 UNK         0.0316 
      9 C9         18.2604  -30.1807  -44.9825 C.ar      10 UNK        -0.0863 
     10 C10        18.6311  -30.3973  -43.6506 C.ar      10 UNK        -0.1009 
     11 C11        19.9745  -30.3036  -43.2552 C.ar      10 UNK        -0.0712 
     12 C12        20.9337  -29.9729  -44.2164 C.ar      10 UNK        -0.0894 
     13 C13        20.5832  -29.7771  -45.5540 C.ar      10 UNK        -0.0745 
     14 C14        19.2432  -29.8807  -45.9310 C.ar      10 UNK        -0.0972 
     15 C15        21.6596  -29.4947  -46.5953 C.3       10 UNK         0.0209 
     16 S16        21.6516  -27.7672  -47.1683 S.3       10 UNK        -0.2568 
     17 C17        22.1365  -26.8825  -45.6485 C.3       10 UNK        -0.0983 
     18 CA         21.8447  -25.3610  -45.7033 C.3       3 UNK         0.0876 
     19 N          20.4648  -25.0997  -46.1206 N.am      3 UNK        -0.4424 
     20 C          19.9486  -23.9182  -46.4810 C.2       2 UNK         0.4918 
     21 O          20.6084  -22.8849  -46.5892 O.2       2 UNK        -0.4875 
     22 CA         18.4251  -23.8804  -46.7290 C.3       2 UNK         0.0481 
     23 CB         18.1304  -23.9020  -48.2371 C.3       2 UNK        -0.1831 
     24 N          17.6778  -24.9674  -46.0747 N.am      2 UNK        -0.4498 
     25 C          17.6466  -25.1998  -44.7517 C.2       1 UNK         0.5027 
     26 O          18.2346  -24.4779  -43.9423 O.2       1 UNK        -0.4969 
     27 C          22.1886  -24.7377  -44.3310 C.2       3 UNK         0.5005 
     28 O          23.3712  -24.6395  -44.0030 O.2       3 UNK        -0.5279 
     29 N          21.1661  -24.3913  -43.5311 N.am      4 UNK        -0.4463 
     30 CA         21.1934  -23.9357  -42.1348 C.3       4 UNK         0.0283 
     31 CB         22.0876  -22.6970  -41.9309 C.3       4 UNK        -0.1875 
     32 C          21.5287  -25.0515  -41.1299 C.2       4 UNK         0.4949 
     33 O          20.8525  -25.1487  -40.1064 O.2       4 UNK        -0.5039 
     34 N          22.5283  -25.8862  -41.4343 N.am      5 UNK        -0.4663 
     35 CA         22.9322  -27.0520  -40.6515 C.3       5 UNK         0.0242 
     36 CB         23.6860  -26.6100  -39.3810 C.3       5 UNK        -0.1982 
     37 C          23.8175  -27.9664  -41.5073 C.2       5 UNK         0.5017 
     38 O          24.4435  -27.4981  -42.4604 O.2       5 UNK        -0.5012 
     39 N          23.8842  -29.2416  -41.1152 N.am      6 UNK        -0.4439 
     40 CA         24.7888  -30.2757  -41.6115 C.3       6 UNK         0.0297 
     41 CB         24.4316  -30.7120  -43.0464 C.3       6 UNK        -0.2006 
     42 C          24.6812  -31.4638  -40.6495 C.2       6 UNK         0.4892 
     43 O          23.7295  -31.5253  -39.8652 O.2       6 UNK        -0.5089 
     44 N          25.6209  -32.4117  -40.7638 N.am      7 UNK        -0.4243 
     45 CA         25.6902  -33.6428  -39.9626 C.3       7 UNK         0.0196 
     46 CB         26.9960  -34.3832  -40.2965 C.3       7 UNK        -0.2007 
     47 C          24.4808  -34.5879  -40.1183 C.2       7 UNK         0.5020 
     48 O          24.2815  -35.4552  -39.2677 O.2       7 UNK        -0.5147 
     49 N          23.6914  -34.4039  -41.1859 N.am      8 UNK        -0.4734 
     50 CA         22.4147  -35.0844  -41.4160 C.3       8 UNK         0.0238 
     51 CB         21.9623  -34.8203  -42.8621 C.3       8 UNK        -0.1912 
     52 C          21.3074  -34.6658  -40.4287 C.2       8 UNK         0.5038 
     53 O          20.3801  -35.4478  -40.2134 O.2       8 UNK        -0.5046 
     54 N          21.4144  -33.4573  -39.8620 N.am      9 UNK        -0.4200 
     55 CA         20.4904  -32.9082  -38.8627 C.3       9 UNK         0.0839 
     56 C          21.0455  -33.1065  -37.4284 C.2       9 UNK         0.5513 
     57 N          20.1683  -33.2120  -36.4396 N.am      9 UNK        -0.7519 
     58 O          22.2516  -33.1334  -37.1930 O.2       9 UNK        -0.4960 
     59 C59        20.1864  -31.4138  -39.1423 C.3       10 UNK        -0.0876 
     60 S60        19.2018  -31.1957  -40.6632 S.3       10 UNK        -0.2414 
     61 C61        20.4571  -30.5586  -41.8232 C.3       10 UNK         0.0169 
     62 H62        19.4122  -27.7678  -41.3958 H         1 UNK         0.0903 
     63 H63        18.7034  -26.8717  -40.0572 H         1 UNK         0.0903 
     64 H64        18.0066  -28.4210  -40.5378 H         1 UNK         0.0903 
     65 H65        18.3454  -27.7683  -43.4639 H         1 UNK         0.3096 
     66 H66        15.9471  -26.0909  -43.8443 H         1 UNK         0.1121 
     67 H67        15.8456  -27.0161  -46.0913 H         1 UNK         0.0849 
     68 H68        17.4295  -27.7356  -45.9517 H         1 UNK         0.0849 
     69 H69        16.7164  -30.3117  -46.4978 H         1 UNK         0.0865 
     70 H70        16.4155  -31.2694  -45.0733 H         1 UNK         0.0865 
     71 H71        17.8593  -30.6415  -42.9349 H         1 UNK         0.1346 
     72 H72        21.9674  -29.8761  -43.9251 H         1 UNK         0.1412 
     73 H73        18.9702  -29.7313  -46.9671 H         1 UNK         0.1426 
     74 H74        21.5054  -30.1488  -47.4546 H         1 UNK         0.0716 
     75 H75        22.6499  -29.7361  -46.2054 H         1 UNK         0.0716 
     76 H76        23.1994  -27.0635  -45.4748 H         1 UNK         0.0695 
     77 H77        21.6101  -27.3292  -44.8037 H         1 UNK         0.0695 
     78 H78        22.5078  -24.9054  -46.4418 H         1 UNK         0.0983 
     79 H79        19.8521  -25.9007  -46.1140 H         1 UNK         0.3095 
     80 H80        18.0549  -22.9372  -46.3223 H         1 UNK         0.0454 
     81 H81        18.4571  -24.8341  -48.7000 H         1 UNK         0.0851 
     82 H82        18.6467  -23.0876  -48.7475 H         1 UNK         0.0851 
     83 H83        17.0657  -23.7808  -48.4371 H         1 UNK         0.0851 
     84 H84        17.1703  -25.5890  -46.6877 H         1 UNK         0.2976 
     85 H85        20.2253  -24.5177  -43.8939 H         1 UNK         0.3116 
     86 H86        20.1682  -23.6277  -41.9218 H         1 UNK         0.0646 
     87 H87        21.9673  -22.2978  -40.9231 H         1 UNK         0.0847 
     88 H88        21.8284  -21.9009  -42.6286 H         1 UNK         0.0847 
     89 H89        23.1457  -22.9261  -42.0588 H         1 UNK         0.0847 
     90 H90        23.0531  -25.7373  -42.2936 H         1 UNK         0.3040 
     91 H91        22.0348  -27.6063  -40.3681 H         1 UNK         0.1015 
     92 H92        23.0546  -26.0094  -38.7262 H         1 UNK         0.0786 
     93 H93        24.5697  -26.0194  -39.6258 H         1 UNK         0.0786 
     94 H94        24.0192  -27.4705  -38.7993 H         1 UNK         0.0786 
     95 H95        23.3622  -29.5510  -40.3024 H         1 UNK         0.3172 
     96 H96        25.8086  -29.8868  -41.5831 H         1 UNK         0.0595 
     97 H97        23.4883  -31.2566  -43.0786 H         1 UNK         0.0839 
     98 H98        25.1952  -31.3772  -43.4505 H         1 UNK         0.0839 
     99 H99        24.3639  -29.8645  -43.7282 H         1 UNK         0.0839 
    100 H100       26.3558  -32.2811  -41.4448 H         1 UNK         0.2998 
    101 H101       25.7232  -33.3461  -38.9120 H         1 UNK         0.0822 
    102 H102       27.8689  -33.7621  -40.0940 H         1 UNK         0.0787 
    103 H103       27.0988  -35.2869  -39.6938 H         1 UNK         0.0787 
    104 H104       27.0318  -34.6849  -41.3441 H         1 UNK         0.0787 
    105 H105       23.9505  -33.6853  -41.8450 H         1 UNK         0.3055 
    106 H106       22.5737  -36.1580  -41.2916 H         1 UNK         0.1106 
    107 H107       21.0287  -35.3414  -43.0792 H         1 UNK         0.0828 
    108 H108       21.7907  -33.7586  -43.0457 H         1 UNK         0.0828 
    109 H109       22.7016  -35.1724  -43.5817 H         1 UNK         0.0828 
    110 H110       22.2556  -32.9123  -40.0161 H         1 UNK         0.2931 
    111 H111       19.5439  -33.4505  -38.9164 H         1 UNK         0.0412 
    112 H112       19.1757  -33.1855  -36.6170 H         1 UNK         0.3472 
    113 H113       20.5050  -33.3291  -35.4963 H         1 UNK         0.3472 
    114 H114       21.1074  -30.8309  -39.1970 H         1 UNK         0.0970 
    115 H115       19.6066  -30.9818  -38.3243 H         1 UNK         0.0970 
    116 H116       20.8693  -29.6336  -41.4208 H         1 UNK         0.0612 
    117 H117       21.2782  -31.2760  -41.8546 H         1 UNK         0.0612 
@<TRIPOS>BOND
     1    1    2 1    
     2    1   62 1    
     3    1   63 1    
     4    1   64 1    
     5    2    3 2    
     6    2    4 am   BACKBONE|DICT|INTERRES
     7    4    5 1    
     8    4   65 1    
     9    5    6 1    
    10    5   25 1    
    11    5   66 1    
    12    6    7 1    
    13    6   67 1    
    14    6   68 1    
    15    7    8 1    
    16    8    9 1    
    17    8   69 1    
    18    8   70 1    
    19    9   10 ar   
    20    9   14 ar   
    21   10   11 ar   
    22   10   71 1    
    23   11   12 ar   
    24   11   61 1    
    25   12   13 ar   
    26   12   72 1    
    27   13   14 ar   
    28   13   15 1    
    29   14   73 1    
    30   15   16 1    
    31   15   74 1    
    32   15   75 1    
    33   16   17 1    
    34   17   18 1    
    35   17   76 1    
    36   17   77 1    
    37   18   19 1    
    38   18   27 1    
    39   18   78 1    
    40   19   20 am   BACKBONE|DICT|INTERRES
    41   19   79 1    
    42   20   21 2    
    43   20   22 1    
    44   22   23 1    
    45   22   24 1    
    46   22   80 1    
    47   23   81 1    
    48   23   82 1    
    49   23   83 1    
    50   24   25 am   BACKBONE|DICT|INTERRES
    51   24   84 1    
    52   25   26 2    
    53   27   28 2    
    54   27   29 am   BACKBONE|DICT|INTERRES
    55   29   30 1    
    56   29   85 1    
    57   30   31 1    
    58   30   32 1    
    59   30   86 1    
    60   31   87 1    
    61   31   88 1    
    62   31   89 1    
    63   32   33 2    
    64   32   34 am   BACKBONE|DICT|INTERRES
    65   34   35 1    
    66   34   90 1    
    67   35   36 1    
    68   35   37 1    
    69   35   91 1    
    70   36   92 1    
    71   36   93 1    
    72   36   94 1    
    73   37   38 2    
    74   37   39 am   BACKBONE|DICT|INTERRES
    75   39   40 1    
    76   39   95 1    
    77   40   41 1    
    78   40   42 1    
    79   40   96 1    
    80   41   97 1    
    81   41   98 1    
    82   41   99 1    
    83   42   43 2    
    84   42   44 am   BACKBONE|DICT|INTERRES
    85   44   45 1    
    86   44  100 1    
    87   45   46 1    
    88   45   47 1    
    89   45  101 1    
    90   46  102 1    
    91   46  103 1    
    92   46  104 1    
    93   47   48 2    
    94   47   49 am   BACKBONE|DICT|INTERRES
    95   49   50 1    
    96   49  105 1    
    97   50   51 1    
    98   50   52 1    
    99   50  106 1    
   100   51  107 1    
   101   51  108 1    
   102   51  109 1    
   103   52   53 2    
   104   52   54 am   BACKBONE|DICT|INTERRES
   105   54   55 1    
   106   54  110 1    
   107   55   56 1    
   108   55   59 1    
   109   55  111 1    
   110   56   57 am   BACKBONE|DICT|INTERRES
   111   56   58 2    
   112   57  112 1    
   113   57  113 1    
   114   59   60 1    
   115   59  114 1    
   116   59  115 1    
   117   60   61 1    
   118   61  116 1    
   119   61  117 1    
@<TRIPOS>SUBSTRUCTURE
     1 UNK         1 GROUP             0       ****    0 ROOT    
