@<TRIPOS>MOLECULE
3R8
117   119    1
SMALL
USER_CHARGES


@<TRIPOS>ATOM
      1 CA         14.7040  -22.3675  -46.6033 C.3       0 UNK        -0.2013 
      2 C          16.0549  -23.0641  -46.5348 C.2       0 UNK         0.4866 
      3 O          17.0825  -22.4333  -46.7855 O.2       0 UNK        -0.5176 
      4 N          16.0623  -24.3620  -46.2053 N.am      1 UNK        -0.4884 
      5 CA         17.2723  -25.1689  -46.0225 C.3       1 UNK         0.0853 
      6 C6         16.9396  -26.6784  -46.0713 C.3       10 UNK        -0.0849 
      7 S7         18.4070  -27.7237  -46.3652 S.3       10 UNK        -0.2776 
      8 C8         17.6945  -29.3883  -46.1527 C.3       10 UNK         0.0316 
      9 C9         17.9961  -29.9748  -44.7790 C.ar      10 UNK        -0.0863 
     10 C10        18.8191  -31.0980  -44.6595 C.ar      10 UNK        -0.1009 
     11 C11        19.0860  -31.6636  -43.4064 C.ar      10 UNK        -0.0712 
     12 C12        18.5270  -31.0801  -42.2625 C.ar      10 UNK        -0.0894 
     13 C13        17.6832  -29.9678  -42.3677 C.ar      10 UNK        -0.0745 
     14 C14        17.4190  -29.4292  -43.6303 C.ar      10 UNK        -0.0972 
     15 C15        16.9840  -29.4035  -41.1340 C.3       10 UNK         0.0209 
     16 S16        17.0598  -27.5811  -41.0255 S.3       10 UNK        -0.2568 
     17 C17        18.6135  -27.3183  -40.1141 C.3       10 UNK        -0.0983 
     18 CA         19.8295  -27.0619  -41.0340 C.3       3 UNK         0.0876 
     19 N          19.6442  -25.9009  -41.9189 N.am      3 UNK        -0.4424 
     20 C          20.5331  -25.4710  -42.8250 C.2       2 UNK         0.4918 
     21 O          21.6249  -26.0087  -43.0188 O.2       2 UNK        -0.4875 
     22 CA         20.1460  -24.2251  -43.6349 C.3       2 UNK         0.0481 
     23 CB         21.3828  -23.4704  -44.1564 C.3       2 UNK        -0.1831 
     24 N          19.3031  -24.5969  -44.7679 N.am      2 UNK        -0.4498 
     25 C          17.9783  -24.7768  -44.7073 C.2       1 UNK         0.5027 
     26 O          17.3164  -24.6476  -43.6735 O.2       1 UNK        -0.4969 
     27 C          21.1096  -26.9757  -40.1761 C.2       3 UNK         0.5005 
     28 O          21.7355  -28.0036  -39.9268 O.2       3 UNK        -0.5279 
     29 N          21.4975  -25.7576  -39.7687 N.am      4 UNK        -0.4463 
     30 CA         22.7270  -25.4825  -39.0188 C.3       4 UNK         0.0283 
     31 CB         22.7134  -24.0223  -38.5388 C.3       4 UNK        -0.1875 
     32 C          24.0151  -25.7734  -39.8124 C.2       4 UNK         0.4949 
     33 O          25.0254  -26.1254  -39.2036 O.2       4 UNK        -0.5039 
     34 N          23.9601  -25.6245  -41.1431 N.am      5 UNK        -0.4663 
     35 CA         25.0601  -25.9444  -42.0539 C.3       5 UNK         0.0242 
     36 CB         25.0227  -24.9889  -43.2583 C.3       5 UNK        -0.1982 
     37 C          24.9898  -27.4065  -42.5188 C.2       5 UNK         0.5017 
     38 O          26.0273  -28.0647  -42.5975 O.2       5 UNK        -0.5012 
     39 N          23.7729  -27.8817  -42.8213 N.am      6 UNK        -0.4439 
     40 CA         23.4905  -29.2389  -43.2941 C.3       6 UNK         0.0297 
     41 CB         22.0468  -29.2909  -43.8189 C.3       6 UNK        -0.2006 
     42 C          23.7292  -30.3216  -42.2236 C.2       6 UNK         0.4892 
     43 O          24.1801  -31.4168  -42.5643 O.2       6 UNK        -0.5089 
     44 N          23.4478  -29.9862  -40.9553 N.am      7 UNK        -0.4243 
     45 CA         23.5631  -30.8276  -39.7629 C.3       7 UNK         0.0196 
     46 CB         25.0452  -31.1514  -39.4608 C.3       7 UNK        -0.2007 
     47 C          22.6368  -32.0549  -39.8529 C.2       7 UNK         0.5020 
     48 O          21.4544  -31.8980  -40.1596 O.2       7 UNK        -0.5147 
     49 N          23.1731  -33.2490  -39.5743 N.am      8 UNK        -0.4734 
     50 CA         22.4521  -34.5219  -39.6617 C.3       8 UNK         0.0238 
     51 CB         23.1454  -35.5468  -38.7475 C.3       8 UNK        -0.1912 
     52 C          22.3428  -35.0681  -41.0979 C.2       8 UNK         0.5038 
     53 O          21.5905  -36.0200  -41.3095 O.2       8 UNK        -0.5046 
     54 N          23.0992  -34.4882  -42.0426 N.am      9 UNK        -0.4200 
     55 CA         23.2113  -34.9112  -43.4505 C.3       9 UNK         0.0839 
     56 C          23.8561  -36.3179  -43.6543 C.2       9 UNK         0.5513 
     57 N          24.5985  -36.8491  -42.6898 N.am      9 UNK        -0.7519 
     58 O          23.7132  -36.9278  -44.7113 O.2       9 UNK        -0.4960 
     59 C59        21.8874  -34.7297  -44.2477 C.3       10 UNK        -0.0876 
     60 S60        21.3760  -32.9831  -44.3556 S.3       10 UNK        -0.2414 
     61 C61        19.9007  -32.9512  -43.2857 C.3       10 UNK         0.0169 
     62 H62        14.6721  -21.5413  -45.8935 H         1 UNK         0.0903 
     63 H63        14.5395  -21.9651  -47.6025 H         1 UNK         0.0903 
     64 H64        13.8826  -23.0454  -46.3715 H         1 UNK         0.0903 
     65 H65        15.1909  -24.8183  -45.9747 H         1 UNK         0.3096 
     66 H66        17.9392  -24.9409  -46.8577 H         1 UNK         0.1121 
     67 H67        16.2460  -26.8741  -46.8910 H         1 UNK         0.0849 
     68 H68        16.4219  -26.9889  -45.1638 H         1 UNK         0.0849 
     69 H69        16.6155  -29.3651  -46.3123 H         1 UNK         0.0865 
     70 H70        18.0972  -30.0322  -46.9361 H         1 UNK         0.0865 
     71 H71        19.2376  -31.5481  -45.5490 H         1 UNK         0.1346 
     72 H72        18.7186  -31.5191  -41.2924 H         1 UNK         0.1412 
     73 H73        16.7494  -28.5870  -43.7132 H         1 UNK         0.1426 
     74 H74        17.3788  -29.8482  -40.2195 H         1 UNK         0.0716 
     75 H75        15.9343  -29.6962  -41.1812 H         1 UNK         0.0716 
     76 H76        18.4616  -26.4705  -39.4432 H         1 UNK         0.0695 
     77 H77        18.7927  -28.1804  -39.4684 H         1 UNK         0.0695 
     78 H78        19.9434  -27.9326  -41.6821 H         1 UNK         0.0983 
     79 H79        18.7424  -25.4443  -41.8737 H         1 UNK         0.3095 
     80 H80        19.5990  -23.5461  -42.9772 H         1 UNK         0.0454 
     81 H81        22.0478  -23.1951  -43.3367 H         1 UNK         0.0851 
     82 H82        21.9625  -24.0719  -44.8578 H         1 UNK         0.0851 
     83 H83        21.0982  -22.5486  -44.6639 H         1 UNK         0.0851 
     84 H84        19.7794  -24.7709  -45.6416 H         1 UNK         0.2976 
     85 H85        20.9191  -24.9653  -40.0087 H         1 UNK         0.3116 
     86 H86        22.7318  -26.1303  -38.1395 H         1 UNK         0.0646 
     87 H87        23.6058  -23.7968  -37.9530 H         1 UNK         0.0847 
     88 H88        21.8522  -23.8203  -37.9017 H         1 UNK         0.0847 
     89 H89        22.6876  -23.3212  -39.3739 H         1 UNK         0.0847 
     90 H90        23.0755  -25.3813  -41.5700 H         1 UNK         0.3040 
     91 H91        26.0145  -25.8018  -41.5413 H         1 UNK         0.1015 
     92 H92        25.1029  -23.9490  -42.9416 H         1 UNK         0.0786 
     93 H93        24.1026  -25.0939  -43.8340 H         1 UNK         0.0786 
     94 H94        25.8542  -25.1862  -43.9363 H         1 UNK         0.0786 
     95 H95        22.9830  -27.2418  -42.7803 H         1 UNK         0.3172 
     96 H96        24.1623  -29.4410  -44.1308 H         1 UNK         0.0595 
     97 H97        21.8301  -28.4647  -44.4964 H         1 UNK         0.0839 
     98 H98        21.3173  -29.2626  -43.0096 H         1 UNK         0.0839 
     99 H99        21.8734  -30.2088  -44.3765 H         1 UNK         0.0839 
    100 H100       22.9911  -29.0930  -40.7858 H         1 UNK         0.2998 
    101 H101       23.1828  -30.2271  -38.9352 H         1 UNK         0.0822 
    102 H102       25.1543  -31.6559  -38.5000 H         1 UNK         0.0787 
    103 H103       25.4956  -31.7842  -40.2264 H         1 UNK         0.0787 
    104 H104       25.6368  -30.2372  -39.4050 H         1 UNK         0.0787 
    105 H105       24.1507  -33.2911  -39.3232 H         1 UNK         0.3055 
    106 H106       21.4322  -34.3757  -39.2979 H         1 UNK         0.1106 
    107 H107       24.1725  -35.7397  -39.0592 H         1 UNK         0.0828 
    108 H108       23.1664  -35.2050  -37.7125 H         1 UNK         0.0828 
    109 H109       22.6175  -36.5015  -38.7587 H         1 UNK         0.0828 
    110 H110       23.6544  -33.6826  -41.7886 H         1 UNK         0.2931 
    111 H111       23.9386  -34.2266  -43.8886 H         1 UNK         0.0412 
    112 H112       25.0208  -37.7533  -42.8331 H         1 UNK         0.3472 
    113 H113       24.7423  -36.3556  -41.8238 H         1 UNK         0.3472 
    114 H114       21.0876  -35.3386  -43.8246 H         1 UNK         0.0970 
    115 H115       22.0087  -35.0759  -45.2755 H         1 UNK         0.0970 
    116 H116       20.2189  -33.1102  -42.2549 H         1 UNK         0.0612 
    117 H117       19.2515  -33.7878  -43.5465 H         1 UNK         0.0612 
@<TRIPOS>BOND
     1    1    2 1    
     2    1   62 1    
     3    1   63 1    
     4    1   64 1    
     5    2    3 2    
     6    2    4 am   BACKBONE|DICT|INTERRES
     7    4    5 1    
     8    4   65 1    
     9    5    6 1    
    10    5   25 1    
    11    5   66 1    
    12    6    7 1    
    13    6   67 1    
    14    6   68 1    
    15    7    8 1    
    16    8    9 1    
    17    8   69 1    
    18    8   70 1    
    19    9   10 ar   
    20    9   14 ar   
    21   10   11 ar   
    22   10   71 1    
    23   11   12 ar   
    24   11   61 1    
    25   12   13 ar   
    26   12   72 1    
    27   13   14 ar   
    28   13   15 1    
    29   14   73 1    
    30   15   16 1    
    31   15   74 1    
    32   15   75 1    
    33   16   17 1    
    34   17   18 1    
    35   17   76 1    
    36   17   77 1    
    37   18   19 1    
    38   18   27 1    
    39   18   78 1    
    40   19   20 am   BACKBONE|DICT|INTERRES
    41   19   79 1    
    42   20   21 2    
    43   20   22 1    
    44   22   23 1    
    45   22   24 1    
    46   22   80 1    
    47   23   81 1    
    48   23   82 1    
    49   23   83 1    
    50   24   25 am   BACKBONE|DICT|INTERRES
    51   24   84 1    
    52   25   26 2    
    53   27   28 2    
    54   27   29 am   BACKBONE|DICT|INTERRES
    55   29   30 1    
    56   29   85 1    
    57   30   31 1    
    58   30   32 1    
    59   30   86 1    
    60   31   87 1    
    61   31   88 1    
    62   31   89 1    
    63   32   33 2    
    64   32   34 am   BACKBONE|DICT|INTERRES
    65   34   35 1    
    66   34   90 1    
    67   35   36 1    
    68   35   37 1    
    69   35   91 1    
    70   36   92 1    
    71   36   93 1    
    72   36   94 1    
    73   37   38 2    
    74   37   39 am   BACKBONE|DICT|INTERRES
    75   39   40 1    
    76   39   95 1    
    77   40   41 1    
    78   40   42 1    
    79   40   96 1    
    80   41   97 1    
    81   41   98 1    
    82   41   99 1    
    83   42   43 2    
    84   42   44 am   BACKBONE|DICT|INTERRES
    85   44   45 1    
    86   44  100 1    
    87   45   46 1    
    88   45   47 1    
    89   45  101 1    
    90   46  102 1    
    91   46  103 1    
    92   46  104 1    
    93   47   48 2    
    94   47   49 am   BACKBONE|DICT|INTERRES
    95   49   50 1    
    96   49  105 1    
    97   50   51 1    
    98   50   52 1    
    99   50  106 1    
   100   51  107 1    
   101   51  108 1    
   102   51  109 1    
   103   52   53 2    
   104   52   54 am   BACKBONE|DICT|INTERRES
   105   54   55 1    
   106   54  110 1    
   107   55   56 1    
   108   55   59 1    
   109   55  111 1    
   110   56   57 am   BACKBONE|DICT|INTERRES
   111   56   58 2    
   112   57  112 1    
   113   57  113 1    
   114   59   60 1    
   115   59  114 1    
   116   59  115 1    
   117   60   61 1    
   118   61  116 1    
   119   61  117 1    
@<TRIPOS>SUBSTRUCTURE
     1 UNK         1 GROUP             0       ****    0 ROOT    
