@<TRIPOS>MOLECULE
3R8
117   119    1
SMALL
USER_CHARGES


@<TRIPOS>ATOM
      1 CA         19.1512  -24.8610  -39.8871 C.3       0 UNK        -0.2013 
      2 C          18.5237  -24.5337  -41.2341 C.2       0 UNK         0.4866 
      3 O          18.2192  -23.3709  -41.5026 O.2       0 UNK        -0.5176 
      4 N          18.3202  -25.5533  -42.0772 N.am      1 UNK        -0.4884 
      5 CA         17.7774  -25.4334  -43.4358 C.3       1 UNK         0.0853 
      6 C6         17.3652  -26.8136  -44.0027 C.3       10 UNK        -0.0849 
      7 S7         16.1579  -27.7046  -42.9542 S.3       10 UNK        -0.2776 
      8 C8         15.8906  -29.2529  -43.8888 C.3       10 UNK         0.0316 
      9 C9         17.1912  -30.0191  -44.0761 C.ar      10 UNK        -0.0863 
     10 C10        17.6654  -30.8808  -43.0830 C.ar      10 UNK        -0.1009 
     11 C11        18.9251  -31.4782  -43.2058 C.ar      10 UNK        -0.0712 
     12 C12        19.7134  -31.2037  -44.3296 C.ar      10 UNK        -0.0894 
     13 C13        19.2402  -30.3451  -45.3275 C.ar      10 UNK        -0.0745 
     14 C14        17.9627  -29.7959  -45.2170 C.ar      10 UNK        -0.0972 
     15 C15        20.1383  -29.8833  -46.4603 C.3       10 UNK         0.0209 
     16 S16        20.8512  -28.2827  -45.9820 S.3       10 UNK        -0.2568 
     17 C17        21.3754  -27.5463  -47.5659 C.3       10 UNK        -0.0983 
     18 CA         21.6398  -26.0195  -47.4449 C.3       3 UNK         0.0876 
     19 N          20.4185  -25.3020  -47.0569 N.am      3 UNK        -0.4424 
     20 C          20.2360  -23.9788  -47.1429 C.2       2 UNK         0.4918 
     21 O          21.0414  -23.2183  -47.6802 O.2       2 UNK        -0.4875 
     22 CA         18.9618  -23.3856  -46.5057 C.3       2 UNK         0.0481 
     23 CB         17.9629  -22.9834  -47.6032 C.3       2 UNK        -0.1831 
     24 N          18.2646  -24.2183  -45.5117 N.am      2 UNK        -0.4498 
     25 C          18.7806  -24.7370  -44.3860 C.2       1 UNK         0.5027 
     26 O          19.9845  -24.7141  -44.1098 O.2       1 UNK        -0.4969 
     27 C          22.8427  -25.7375  -46.5063 C.2       3 UNK         0.5005 
     28 O          23.9643  -26.1000  -46.8648 O.2       3 UNK        -0.5279 
     29 N          22.5822  -25.1445  -45.3263 N.am      4 UNK        -0.4463 
     30 CA         23.4474  -25.0531  -44.1449 C.3       4 UNK         0.0283 
     31 CB         24.8020  -24.3753  -44.4450 C.3       4 UNK        -0.1875 
     32 C          23.5728  -26.4459  -43.5069 C.2       4 UNK         0.4949 
     33 O          24.6508  -27.0413  -43.5106 O.2       4 UNK        -0.5039 
     34 N          22.4251  -26.9491  -43.0262 N.am      5 UNK        -0.4663 
     35 CA         22.2082  -28.3241  -42.5611 C.3       5 UNK         0.0242 
     36 CB         20.7436  -28.4856  -42.1223 C.3       5 UNK        -0.1982 
     37 C          23.1441  -28.7958  -41.4395 C.2       5 UNK         0.5017 
     38 O          23.5306  -29.9637  -41.4404 O.2       5 UNK        -0.5012 
     39 N          23.4575  -27.8981  -40.4913 N.am      6 UNK        -0.4439 
     40 CA         24.3831  -28.0860  -39.3605 C.3       6 UNK         0.0297 
     41 CB         25.8372  -28.0991  -39.8777 C.3       6 UNK        -0.2006 
     42 C          24.0771  -29.3087  -38.4633 C.2       6 UNK         0.4892 
     43 O          24.9914  -29.8486  -37.8382 O.2       6 UNK        -0.5089 
     44 N          22.8023  -29.7297  -38.4352 N.am      7 UNK        -0.4243 
     45 CA         22.2697  -30.9340  -37.7843 C.3       7 UNK         0.0196 
     46 CB         22.3799  -30.8255  -36.2482 C.3       7 UNK        -0.2007 
     47 C          22.8534  -32.2570  -38.3299 C.2       7 UNK         0.5020 
     48 O          22.8399  -33.2623  -37.6173 O.2       7 UNK        -0.5147 
     49 N          23.3221  -32.2643  -39.5895 N.am      8 UNK        -0.4734 
     50 CA         23.9412  -33.4240  -40.2511 C.3       8 UNK         0.0238 
     51 CB         24.5323  -32.9870  -41.6010 C.3       8 UNK        -0.1912 
     52 C          23.0053  -34.6320  -40.4457 C.2       8 UNK         0.5038 
     53 O          23.4959  -35.7496  -40.6128 O.2       8 UNK        -0.5046 
     54 N          21.6890  -34.3926  -40.4042 N.am      9 UNK        -0.4200 
     55 CA         20.6435  -35.4259  -40.3892 C.3       9 UNK         0.0839 
     56 C          20.5615  -36.2267  -39.0545 C.2       9 UNK         0.5513 
     57 N          21.2032  -35.8016  -37.9710 N.am      9 UNK        -0.7519 
     58 O          19.9007  -37.2609  -39.0045 O.2       9 UNK        -0.4960 
     59 C59        19.2549  -34.8415  -40.7592 C.3       10 UNK        -0.0876 
     60 S60        19.1872  -34.1203  -42.4359 S.3       10 UNK        -0.2414 
     61 C61        19.4591  -32.3568  -42.0855 C.3       10 UNK         0.0169 
     62 H62        18.5038  -24.5211  -39.0791 H         1 UNK         0.0903 
     63 H63        19.3150  -25.9310  -39.7613 H         1 UNK         0.0903 
     64 H64        20.1119  -24.3562  -39.7895 H         1 UNK         0.0903 
     65 H65        18.5629  -26.4909  -41.7944 H         1 UNK         0.3096 
     66 H66        16.8868  -24.8032  -43.3786 H         1 UNK         0.1121 
     67 H67        16.9323  -26.7120  -44.9997 H         1 UNK         0.0849 
     68 H68        18.2568  -27.4296  -44.1136 H         1 UNK         0.0849 
     69 H69        15.1682  -29.8725  -43.3554 H         1 UNK         0.0865 
     70 H70        15.4392  -29.0216  -44.8550 H         1 UNK         0.0865 
     71 H71        17.0717  -31.0521  -42.1953 H         1 UNK         0.1346 
     72 H72        20.7090  -31.6194  -44.4026 H         1 UNK         0.1412 
     73 H73        17.6121  -29.1091  -45.9754 H         1 UNK         0.1426 
     74 H74        19.5619  -29.7825  -47.3812 H         1 UNK         0.0716 
     75 H75        20.9347  -30.6032  -46.6545 H         1 UNK         0.0716 
     76 H76        20.6018  -27.7273  -48.3136 H         1 UNK         0.0695 
     77 H77        22.2656  -28.0694  -47.9206 H         1 UNK         0.0695 
     78 H78        21.9317  -25.6557  -48.4326 H         1 UNK         0.0983 
     79 H79        19.7135  -25.8569  -46.5951 H         1 UNK         0.3095 
     80 H80        19.2720  -22.4767  -45.9865 H         1 UNK         0.0454 
     81 H81        18.4320  -22.3327  -48.3428 H         1 UNK         0.0851 
     82 H82        17.1151  -22.4362  -47.1907 H         1 UNK         0.0851 
     83 H83        17.5765  -23.8537  -48.1351 H         1 UNK         0.0851 
     84 H84        17.2706  -24.3198  -45.6614 H         1 UNK         0.2976 
     85 H85        21.6092  -24.9177  -45.1369 H         1 UNK         0.3116 
     86 H86        22.9211  -24.4196  -43.4289 H         1 UNK         0.0646 
     87 H87        25.4392  -24.9836  -45.0868 H         1 UNK         0.0847 
     88 H88        24.6634  -23.4085  -44.9283 H         1 UNK         0.0847 
     89 H89        25.3556  -24.2017  -43.5217 H         1 UNK         0.0847 
     90 H90        21.5972  -26.3742  -43.1092 H         1 UNK         0.3040 
     91 H91        22.3834  -28.9831  -43.4143 H         1 UNK         0.1015 
     92 H92        20.5567  -29.4899  -41.7407 H         1 UNK         0.0786 
     93 H93        20.0632  -28.3352  -42.9592 H         1 UNK         0.0786 
     94 H94        20.4754  -27.7825  -41.3337 H         1 UNK         0.0786 
     95 H95        23.0606  -26.9734  -40.5852 H         1 UNK         0.3172 
     96 H96        24.2663  -27.2091  -38.7222 H         1 UNK         0.0595 
     97 H97        26.0406  -28.9867  -40.4782 H         1 UNK         0.0839 
     98 H98        26.5512  -28.0918  -39.0532 H         1 UNK         0.0839 
     99 H99        26.0477  -27.2248  -40.4937 H         1 UNK         0.0839 
    100 H100       22.1386  -29.2055  -38.9875 H         1 UNK         0.2998 
    101 H101       21.2073  -30.9606  -38.0313 H         1 UNK         0.0822 
    102 H102       21.8445  -31.6395  -35.7579 H         1 UNK         0.0787 
    103 H103       21.9497  -29.8926  -35.8838 H         1 UNK         0.0787 
    104 H104       23.4161  -30.8716  -35.9120 H         1 UNK         0.0787 
    105 H105       23.3195  -31.3973  -40.1217 H         1 UNK         0.3055 
    106 H106       24.7613  -33.7620  -39.6139 H         1 UNK         0.1106 
    107 H107       25.2690  -32.1936  -41.4733 H         1 UNK         0.0828 
    108 H108       25.0357  -33.8179  -42.0973 H         1 UNK         0.0828 
    109 H109       23.7599  -32.6212  -42.2787 H         1 UNK         0.0828 
    110 H110       21.3868  -33.4434  -40.2541 H         1 UNK         0.2931 
    111 H111       20.9035  -36.1558  -41.1586 H         1 UNK         0.0412 
    112 H112       21.1367  -36.3388  -37.1210 H         1 UNK         0.3472 
    113 H113       21.7574  -34.9524  -37.9838 H         1 UNK         0.3472 
    114 H114       18.4990  -35.6290  -40.7309 H         1 UNK         0.0970 
    115 H115       18.9362  -34.1056  -40.0191 H         1 UNK         0.0970 
    116 H116       18.9767  -32.0837  -41.1458 H         1 UNK         0.0612 
    117 H117       20.5263  -32.1763  -41.9482 H         1 UNK         0.0612 
@<TRIPOS>BOND
     1    1    2 1    
     2    1   62 1    
     3    1   63 1    
     4    1   64 1    
     5    2    3 2    
     6    2    4 am   BACKBONE|DICT|INTERRES
     7    4    5 1    
     8    4   65 1    
     9    5    6 1    
    10    5   25 1    
    11    5   66 1    
    12    6    7 1    
    13    6   67 1    
    14    6   68 1    
    15    7    8 1    
    16    8    9 1    
    17    8   69 1    
    18    8   70 1    
    19    9   10 ar   
    20    9   14 ar   
    21   10   11 ar   
    22   10   71 1    
    23   11   12 ar   
    24   11   61 1    
    25   12   13 ar   
    26   12   72 1    
    27   13   14 ar   
    28   13   15 1    
    29   14   73 1    
    30   15   16 1    
    31   15   74 1    
    32   15   75 1    
    33   16   17 1    
    34   17   18 1    
    35   17   76 1    
    36   17   77 1    
    37   18   19 1    
    38   18   27 1    
    39   18   78 1    
    40   19   20 am   BACKBONE|DICT|INTERRES
    41   19   79 1    
    42   20   21 2    
    43   20   22 1    
    44   22   23 1    
    45   22   24 1    
    46   22   80 1    
    47   23   81 1    
    48   23   82 1    
    49   23   83 1    
    50   24   25 am   BACKBONE|DICT|INTERRES
    51   24   84 1    
    52   25   26 2    
    53   27   28 2    
    54   27   29 am   BACKBONE|DICT|INTERRES
    55   29   30 1    
    56   29   85 1    
    57   30   31 1    
    58   30   32 1    
    59   30   86 1    
    60   31   87 1    
    61   31   88 1    
    62   31   89 1    
    63   32   33 2    
    64   32   34 am   BACKBONE|DICT|INTERRES
    65   34   35 1    
    66   34   90 1    
    67   35   36 1    
    68   35   37 1    
    69   35   91 1    
    70   36   92 1    
    71   36   93 1    
    72   36   94 1    
    73   37   38 2    
    74   37   39 am   BACKBONE|DICT|INTERRES
    75   39   40 1    
    76   39   95 1    
    77   40   41 1    
    78   40   42 1    
    79   40   96 1    
    80   41   97 1    
    81   41   98 1    
    82   41   99 1    
    83   42   43 2    
    84   42   44 am   BACKBONE|DICT|INTERRES
    85   44   45 1    
    86   44  100 1    
    87   45   46 1    
    88   45   47 1    
    89   45  101 1    
    90   46  102 1    
    91   46  103 1    
    92   46  104 1    
    93   47   48 2    
    94   47   49 am   BACKBONE|DICT|INTERRES
    95   49   50 1    
    96   49  105 1    
    97   50   51 1    
    98   50   52 1    
    99   50  106 1    
   100   51  107 1    
   101   51  108 1    
   102   51  109 1    
   103   52   53 2    
   104   52   54 am   BACKBONE|DICT|INTERRES
   105   54   55 1    
   106   54  110 1    
   107   55   56 1    
   108   55   59 1    
   109   55  111 1    
   110   56   57 am   BACKBONE|DICT|INTERRES
   111   56   58 2    
   112   57  112 1    
   113   57  113 1    
   114   59   60 1    
   115   59  114 1    
   116   59  115 1    
   117   60   61 1    
   118   61  116 1    
   119   61  117 1    
@<TRIPOS>SUBSTRUCTURE
     1 UNK         1 GROUP             0       ****    0 ROOT    
