@<TRIPOS>MOLECULE
3R8
117   119    1
SMALL
USER_CHARGES


@<TRIPOS>ATOM
      1 CA         17.3482  -25.8696  -38.5270 C.3       0 UNK        -0.2013 
      2 C          16.8402  -26.1203  -39.9391 C.2       0 UNK         0.4866 
      3 O          15.6337  -26.2549  -40.1422 O.2       0 UNK        -0.5176 
      4 N          17.7509  -26.1808  -40.9148 N.am      1 UNK        -0.4884 
      5 CA         17.4661  -26.3376  -42.3385 C.3       1 UNK         0.0853 
      6 C6         17.1264  -27.7998  -42.7334 C.3       10 UNK        -0.0849 
      7 S7         16.1329  -27.8766  -44.2587 S.3       10 UNK        -0.2776 
      8 C8         15.6226  -29.6273  -44.2684 C.3       10 UNK         0.0316 
      9 C9         16.7621  -30.5921  -44.5845 C.ar      10 UNK        -0.0863 
     10 C10        16.9586  -31.7285  -43.7923 C.ar      10 UNK        -0.1009 
     11 C11        17.9493  -32.6622  -44.1142 C.ar      10 UNK        -0.0712 
     12 C12        18.7572  -32.4389  -45.2359 C.ar      10 UNK        -0.0894 
     13 C13        18.5970  -31.2938  -46.0194 C.ar      10 UNK        -0.0745 
     14 C14        17.5820  -30.3859  -45.6993 C.ar      10 UNK        -0.0972 
     15 C15        19.4962  -31.0823  -47.2337 C.3       10 UNK         0.0209 
     16 S16        20.1034  -29.3730  -47.4147 S.3       10 UNK        -0.2568 
     17 C17        21.2582  -29.2149  -46.0101 C.3       10 UNK        -0.0983 
     18 CA         21.7168  -27.7450  -45.8527 C.3       3 UNK         0.0876 
     19 N          20.6011  -26.8497  -45.5248 N.am      3 UNK        -0.4424 
     20 C          20.6431  -25.5150  -45.6387 C.2       2 UNK         0.4918 
     21 O          21.6289  -24.8941  -46.0379 O.2       2 UNK        -0.4875 
     22 CA         19.3749  -24.7251  -45.2689 C.3       2 UNK         0.0481 
     23 CB         18.6331  -24.2892  -46.5430 C.3       2 UNK        -0.1831 
     24 N          18.4352  -25.4283  -44.3907 N.am      2 UNK        -0.4498 
     25 C          18.6653  -25.7667  -43.1158 C.2       1 UNK         0.5027 
     26 O          19.7545  -25.6279  -42.5503 O.2       1 UNK        -0.4969 
     27 C          22.8962  -27.5858  -44.8687 C.2       3 UNK         0.5005 
     28 O          24.0474  -27.6611  -45.2989 O.2       3 UNK        -0.5279 
     29 N          22.5907  -27.3202  -43.5881 N.am      4 UNK        -0.4463 
     30 CA         23.4401  -26.8082  -42.4981 C.3       4 UNK         0.0283 
     31 CB         23.8810  -25.3678  -42.8179 C.3       4 UNK        -0.1875 
     32 C          24.6579  -27.6493  -42.0591 C.2       4 UNK         0.4949 
     33 O          25.1169  -27.4674  -40.9317 O.2       4 UNK        -0.5039 
     34 N          25.1708  -28.5320  -42.9253 N.am      5 UNK        -0.4663 
     35 CA         26.3865  -29.3362  -42.7367 C.3       5 UNK         0.0242 
     36 CB         26.6295  -30.1859  -43.9946 C.3       5 UNK        -0.1982 
     37 C          26.4000  -30.2251  -41.4791 C.2       5 UNK         0.5017 
     38 O          27.4645  -30.4089  -40.8880 O.2       5 UNK        -0.5012 
     39 N          25.2271  -30.7333  -41.0836 N.am      6 UNK        -0.4439 
     40 CA         25.0025  -31.4719  -39.8418 C.3       6 UNK         0.0297 
     41 CB         24.5847  -32.9180  -40.1668 C.3       6 UNK        -0.2006 
     42 C          23.9556  -30.7148  -39.0144 C.2       6 UNK         0.4892 
     43 O          22.8744  -31.2448  -38.7489 O.2       6 UNK        -0.5089 
     44 N          24.2766  -29.4533  -38.6873 N.am      7 UNK        -0.4243 
     45 CA         23.4891  -28.4405  -37.9631 C.3       7 UNK         0.0196 
     46 CB         23.1311  -28.9106  -36.5397 C.3       7 UNK        -0.2007 
     47 C          22.2397  -27.9526  -38.7183 C.2       7 UNK         0.5020 
     48 O          22.0050  -26.7469  -38.7945 O.2       7 UNK        -0.5147 
     49 N          21.4776  -28.8960  -39.2715 N.am      8 UNK        -0.4734 
     50 CA         20.3291  -28.6809  -40.1426 C.3       8 UNK         0.0238 
     51 CB         19.0356  -29.0463  -39.3939 C.3       8 UNK        -0.1912 
     52 C          20.4971  -29.5282  -41.4044 C.2       8 UNK         0.5038 
     53 O          20.4827  -28.9831  -42.5066 O.2       8 UNK        -0.5046 
     54 N          20.7005  -30.8381  -41.2151 N.am      9 UNK        -0.4200 
     55 CA         20.8343  -31.8571  -42.2667 C.3       9 UNK         0.0839 
     56 C          22.2038  -31.8494  -43.0131 C.2       9 UNK         0.5513 
     57 N          22.8225  -30.6941  -43.2087 N.am      9 UNK        -0.7519 
     58 O          22.7214  -32.8850  -43.4193 O.2       9 UNK        -0.4960 
     59 C59        20.3974  -33.2439  -41.7165 C.3       10 UNK        -0.0876 
     60 S60        19.8442  -34.4229  -42.9958 S.3       10 UNK        -0.2414 
     61 C61        18.1081  -33.9241  -43.2675 C.3       10 UNK         0.0169 
     62 H62        18.4361  -25.8100  -38.4891 H         1 UNK         0.0903 
     63 H63        16.9436  -24.9332  -38.1439 H         1 UNK         0.0903 
     64 H64        17.0292  -26.6742  -37.8649 H         1 UNK         0.0903 
     65 H65        18.7292  -25.9943  -40.7265 H         1 UNK         0.3096 
     66 H66        16.6077  -25.6982  -42.5600 H         1 UNK         0.1121 
     67 H67        18.0217  -28.4091  -42.8541 H         1 UNK         0.0849 
     68 H68        16.5437  -28.2757  -41.9436 H         1 UNK         0.0849 
     69 H69        15.1596  -29.8677  -43.3100 H         1 UNK         0.0865 
     70 H70        14.8451  -29.7571  -45.0222 H         1 UNK         0.0865 
     71 H71        16.3199  -31.9022  -42.9369 H         1 UNK         0.1346 
     72 H72        19.5183  -33.1603  -45.4992 H         1 UNK         0.1412 
     73 H73        17.4266  -29.5160  -46.3225 H         1 UNK         0.1426 
     74 H74        18.9325  -31.3467  -48.1291 H         1 UNK         0.0716 
     75 H75        20.3568  -31.7525  -47.2013 H         1 UNK         0.0716 
     76 H76        22.1099  -29.8728  -46.1933 H         1 UNK         0.0695 
     77 H77        20.7733  -29.5734  -45.1007 H         1 UNK         0.0695 
     78 H78        22.1041  -27.4243  -46.8230 H         1 UNK         0.0983 
     79 H79        19.7494  -27.2865  -45.2051 H         1 UNK         0.3095 
     80 H80        19.7015  -23.8252  -44.7438 H         1 UNK         0.0454 
     81 H81        19.2925  -23.7300  -47.2084 H         1 UNK         0.0851 
     82 H82        17.7884  -23.6406  -46.3106 H         1 UNK         0.0851 
     83 H83        18.2566  -25.1459  -47.1036 H         1 UNK         0.0851 
     84 H84        17.5211  -25.6234  -44.7767 H         1 UNK         0.2976 
     85 H85        21.6061  -27.3782  -43.3466 H         1 UNK         0.3116 
     86 H86        22.7835  -26.7610  -41.6279 H         1 UNK         0.0646 
     87 H87        24.5307  -25.3291  -43.6930 H         1 UNK         0.0847 
     88 H88        23.0210  -24.7259  -43.0105 H         1 UNK         0.0847 
     89 H89        24.4307  -24.9300  -41.9835 H         1 UNK         0.0847 
     90 H90        24.7883  -28.4933  -43.8678 H         1 UNK         0.3040 
     91 H91        27.2164  -28.6335  -42.6360 H         1 UNK         0.1015 
     92 H92        26.7107  -29.5626  -44.8856 H         1 UNK         0.0786 
     93 H93        25.8276  -30.9060  -44.1599 H         1 UNK         0.0786 
     94 H94        27.5597  -30.7498  -43.9103 H         1 UNK         0.0786 
     95 H95        24.4046  -30.5158  -41.6320 H         1 UNK         0.3172 
     96 H96        25.9132  -31.5120  -39.2407 H         1 UNK         0.0595 
     97 H97        23.6494  -32.9575  -40.7233 H         1 UNK         0.0839 
     98 H98        24.4431  -33.4964  -39.2530 H         1 UNK         0.0839 
     99 H99        25.3463  -33.4263  -40.7582 H         1 UNK         0.0839 
    100 H100       25.1522  -29.1034  -39.0557 H         1 UNK         0.2998 
    101 H101       24.1476  -27.5754  -37.8666 H         1 UNK         0.0822 
    102 H102       22.6307  -28.1166  -35.9838 H         1 UNK         0.0787 
    103 H103       24.0234  -29.1868  -35.9780 H         1 UNK         0.0787 
    104 H104       22.4605  -29.7704  -36.5475 H         1 UNK         0.0787 
    105 H105       21.7960  -29.8548  -39.1421 H         1 UNK         0.3055 
    106 H106       20.2802  -27.6355  -40.4548 H         1 UNK         0.1106 
    107 H107       18.8856  -28.3967  -38.5324 H         1 UNK         0.0828 
    108 H108       18.1635  -28.9423  -40.0400 H         1 UNK         0.0828 
    109 H109       19.0477  -30.0739  -39.0291 H         1 UNK         0.0828 
    110 H110       20.7574  -31.1850  -40.2693 H         1 UNK         0.2931 
    111 H111       20.1151  -31.5722  -43.0315 H         1 UNK         0.0412 
    112 H112       23.6676  -30.6874  -43.7549 H         1 UNK         0.3472 
    113 H113       22.3324  -29.8403  -42.9771 H         1 UNK         0.3472 
    114 H114       19.5751  -33.1292  -41.0083 H         1 UNK         0.0970 
    115 H115       21.2097  -33.7008  -41.1486 H         1 UNK         0.0970 
    116 H116       17.6165  -33.8081  -42.3004 H         1 UNK         0.0612 
    117 H117       17.5942  -34.7398  -43.7772 H         1 UNK         0.0612 
@<TRIPOS>BOND
     1    1    2 1    
     2    1   62 1    
     3    1   63 1    
     4    1   64 1    
     5    2    3 2    
     6    2    4 am   BACKBONE|DICT|INTERRES
     7    4    5 1    
     8    4   65 1    
     9    5    6 1    
    10    5   25 1    
    11    5   66 1    
    12    6    7 1    
    13    6   67 1    
    14    6   68 1    
    15    7    8 1    
    16    8    9 1    
    17    8   69 1    
    18    8   70 1    
    19    9   10 ar   
    20    9   14 ar   
    21   10   11 ar   
    22   10   71 1    
    23   11   12 ar   
    24   11   61 1    
    25   12   13 ar   
    26   12   72 1    
    27   13   14 ar   
    28   13   15 1    
    29   14   73 1    
    30   15   16 1    
    31   15   74 1    
    32   15   75 1    
    33   16   17 1    
    34   17   18 1    
    35   17   76 1    
    36   17   77 1    
    37   18   19 1    
    38   18   27 1    
    39   18   78 1    
    40   19   20 am   BACKBONE|DICT|INTERRES
    41   19   79 1    
    42   20   21 2    
    43   20   22 1    
    44   22   23 1    
    45   22   24 1    
    46   22   80 1    
    47   23   81 1    
    48   23   82 1    
    49   23   83 1    
    50   24   25 am   BACKBONE|DICT|INTERRES
    51   24   84 1    
    52   25   26 2    
    53   27   28 2    
    54   27   29 am   BACKBONE|DICT|INTERRES
    55   29   30 1    
    56   29   85 1    
    57   30   31 1    
    58   30   32 1    
    59   30   86 1    
    60   31   87 1    
    61   31   88 1    
    62   31   89 1    
    63   32   33 2    
    64   32   34 am   BACKBONE|DICT|INTERRES
    65   34   35 1    
    66   34   90 1    
    67   35   36 1    
    68   35   37 1    
    69   35   91 1    
    70   36   92 1    
    71   36   93 1    
    72   36   94 1    
    73   37   38 2    
    74   37   39 am   BACKBONE|DICT|INTERRES
    75   39   40 1    
    76   39   95 1    
    77   40   41 1    
    78   40   42 1    
    79   40   96 1    
    80   41   97 1    
    81   41   98 1    
    82   41   99 1    
    83   42   43 2    
    84   42   44 am   BACKBONE|DICT|INTERRES
    85   44   45 1    
    86   44  100 1    
    87   45   46 1    
    88   45   47 1    
    89   45  101 1    
    90   46  102 1    
    91   46  103 1    
    92   46  104 1    
    93   47   48 2    
    94   47   49 am   BACKBONE|DICT|INTERRES
    95   49   50 1    
    96   49  105 1    
    97   50   51 1    
    98   50   52 1    
    99   50  106 1    
   100   51  107 1    
   101   51  108 1    
   102   51  109 1    
   103   52   53 2    
   104   52   54 am   BACKBONE|DICT|INTERRES
   105   54   55 1    
   106   54  110 1    
   107   55   56 1    
   108   55   59 1    
   109   55  111 1    
   110   56   57 am   BACKBONE|DICT|INTERRES
   111   56   58 2    
   112   57  112 1    
   113   57  113 1    
   114   59   60 1    
   115   59  114 1    
   116   59  115 1    
   117   60   61 1    
   118   61  116 1    
   119   61  117 1    
@<TRIPOS>SUBSTRUCTURE
     1 UNK         1 GROUP             0       ****    0 ROOT    
