@<TRIPOS>MOLECULE
3R8
117   119    1
SMALL
USER_CHARGES


@<TRIPOS>ATOM
      1 CA         18.9293  -23.5022  -45.8299 C.3       0 UNK        -0.2013 
      2 C          19.1727  -25.0033  -45.8506 C.2       0 UNK         0.4866 
      3 O          19.2945  -25.6133  -44.7874 O.2       0 UNK        -0.5176 
      4 N          19.2481  -25.5973  -47.0520 N.am      1 UNK        -0.4884 
      5 CA         19.4698  -27.0293  -47.3100 C.3       1 UNK         0.0853 
      6 C6         18.2638  -27.9145  -46.8795 C.3       10 UNK        -0.0849 
      7 S7         16.6653  -27.4106  -47.6001 S.3       10 UNK        -0.2776 
      8 C8         15.5812  -28.7890  -47.0843 C.3       10 UNK         0.0316 
      9 C9         15.7990  -29.1987  -45.6314 C.ar      10 UNK        -0.0863 
     10 C10        16.3927  -30.4286  -45.3318 C.ar      10 UNK        -0.1009 
     11 C11        16.6413  -30.7923  -44.0058 C.ar      10 UNK        -0.0712 
     12 C12        16.2810  -29.9227  -42.9731 C.ar      10 UNK        -0.0894 
     13 C13        15.6995  -28.6826  -43.2584 C.ar      10 UNK        -0.0745 
     14 C14        15.4487  -28.3336  -44.5901 C.ar      10 UNK        -0.0972 
     15 C15        15.3460  -27.7070  -42.1396 C.3       10 UNK         0.0209 
     16 S16        16.6998  -27.4335  -40.9425 S.3       10 UNK        -0.2568 
     17 C17        18.0848  -26.8993  -42.0077 C.3       10 UNK        -0.0983 
     18 CA         19.3163  -27.8312  -41.8625 C.3       3 UNK         0.0876 
     19 N          20.1469  -27.8254  -43.0676 N.am      3 UNK        -0.4424 
     20 C          21.1283  -28.7087  -43.3123 C.2       2 UNK         0.4918 
     21 O          21.4779  -29.5647  -42.5016 O.2       2 UNK        -0.4875 
     22 CA         21.7720  -28.6722  -44.7115 C.3       2 UNK         0.0481 
     23 CB         22.4740  -29.9922  -45.0836 C.3       2 UNK        -0.1831 
     24 N          20.7317  -28.3779  -45.6900 N.am      2 UNK        -0.4498 
     25 C          20.8085  -27.4733  -46.6721 C.2       1 UNK         0.5027 
     26 O          21.8594  -26.9453  -47.0422 O.2       1 UNK        -0.4969 
     27 C          20.1319  -27.4903  -40.5973 C.2       3 UNK         0.5005 
     28 O          20.9181  -26.5380  -40.6105 O.2       3 UNK        -0.5279 
     29 N          19.8869  -28.2519  -39.5201 N.am      4 UNK        -0.4463 
     30 CA         20.4218  -28.0760  -38.1670 C.3       4 UNK         0.0283 
     31 CB         19.7187  -26.8841  -37.4767 C.3       4 UNK        -0.1875 
     32 C          21.9612  -27.9990  -38.1427 C.2       4 UNK         0.4949 
     33 O          22.6184  -29.0043  -38.4118 O.2       4 UNK        -0.5039 
     34 N          22.5033  -26.8184  -37.8179 N.am      5 UNK        -0.4663 
     35 CA         23.9357  -26.5490  -37.6922 C.3       5 UNK         0.0242 
     36 CB         24.1250  -25.2313  -36.9223 C.3       5 UNK        -0.1982 
     37 C          24.6981  -26.5033  -39.0282 C.2       5 UNK         0.5017 
     38 O          25.9287  -26.5657  -39.0013 O.2       5 UNK        -0.5012 
     39 N          23.9958  -26.3967  -40.1673 N.am      6 UNK        -0.4439 
     40 CA         24.5867  -26.3366  -41.5098 C.3       6 UNK         0.0297 
     41 CB         23.5902  -25.6687  -42.4759 C.3       6 UNK        -0.2006 
     42 C          25.0541  -27.7220  -42.0013 C.2       6 UNK         0.4892 
     43 O          24.5508  -28.2198  -43.0055 O.2       6 UNK        -0.5089 
     44 N          25.9917  -28.3291  -41.2611 N.am      7 UNK        -0.4243 
     45 CA         26.6238  -29.6446  -41.4552 C.3       7 UNK         0.0196 
     46 CB         27.3022  -29.7451  -42.8375 C.3       7 UNK        -0.2007 
     47 C          25.7196  -30.8658  -41.1828 C.2       7 UNK         0.5020 
     48 O          26.2566  -31.9674  -41.0593 O.2       7 UNK        -0.5147 
     49 N          24.4023  -30.6524  -41.0530 N.am      8 UNK        -0.4734 
     50 CA         23.3176  -31.6182  -40.8293 C.3       8 UNK         0.0238 
     51 CB         23.5733  -32.4983  -39.5883 C.3       8 UNK        -0.1912 
     52 C          22.9948  -32.4698  -42.0724 C.2       8 UNK         0.5038 
     53 O          23.8644  -32.7299  -42.9074 O.2       8 UNK        -0.5046 
     54 N          21.7319  -32.9052  -42.1604 N.am      9 UNK        -0.4200 
     55 CA         21.2062  -33.7470  -43.2495 C.3       9 UNK         0.0839 
     56 C          21.6357  -35.2420  -43.1769 C.2       9 UNK         0.5513 
     57 N          22.2525  -35.7108  -42.0985 N.am      9 UNK        -0.7519 
     58 O          21.4068  -35.9912  -44.1230 O.2       9 UNK        -0.4960 
     59 C59        19.6649  -33.6200  -43.3805 C.3       10 UNK        -0.0876 
     60 S60        19.1310  -31.9113  -43.7218 S.3       10 UNK        -0.2414 
     61 C61        17.3261  -32.1119  -43.6932 C.3       10 UNK         0.0169 
     62 H62        19.7539  -22.9964  -45.3284 H         1 UNK         0.0903 
     63 H63        18.8365  -23.0888  -46.8340 H         1 UNK         0.0903 
     64 H64        18.0118  -23.2806  -45.2854 H         1 UNK         0.0903 
     65 H65        19.1616  -25.0276  -47.8820 H         1 UNK         0.3096 
     66 H66        19.5970  -27.1393  -48.3883 H         1 UNK         0.1121 
     67 H67        18.1436  -27.8861  -45.7949 H         1 UNK         0.0849 
     68 H68        18.4405  -28.9566  -47.1541 H         1 UNK         0.0849 
     69 H69        14.5400  -28.4960  -47.2262 H         1 UNK         0.0865 
     70 H70        15.7512  -29.6358  -47.7510 H         1 UNK         0.0865 
     71 H71        16.6842  -31.0970  -46.1307 H         1 UNK         0.1346 
     72 H72        16.4784  -30.1996  -41.9467 H         1 UNK         0.1412 
     73 H73        15.0052  -27.3751  -44.8240 H         1 UNK         0.1426 
     74 H74        14.4759  -28.0885  -41.6040 H         1 UNK         0.0716 
     75 H75        15.0544  -26.7393  -42.5509 H         1 UNK         0.0716 
     76 H76        18.3372  -25.8608  -41.7840 H         1 UNK         0.0695 
     77 H77        17.7388  -26.8953  -43.0418 H         1 UNK         0.0695 
     78 H78        18.9538  -28.8579  -41.7697 H         1 UNK         0.0983 
     79 H79        19.9395  -27.0965  -43.7468 H         1 UNK         0.3095 
     80 H80        22.5109  -27.8691  -44.7001 H         1 UNK         0.0454 
     81 H81        23.2815  -30.2146  -44.3848 H         1 UNK         0.0851 
     82 H82        22.9138  -29.9409  -46.0792 H         1 UNK         0.0851 
     83 H83        21.7834  -30.8357  -45.0611 H         1 UNK         0.0851 
     84 H84        19.8222  -28.7541  -45.4604 H         1 UNK         0.2976 
     85 H85        19.2412  -29.0217  -39.6263 H         1 UNK         0.3116 
     86 H86        20.1579  -28.9769  -37.6109 H         1 UNK         0.0646 
     87 H87        19.8748  -25.9451  -38.0091 H         1 UNK         0.0847 
     88 H88        18.6425  -27.0485  -37.4206 H         1 UNK         0.0847 
     89 H89        20.0717  -26.7534  -36.4527 H         1 UNK         0.0847 
     90 H90        21.8806  -26.0420  -37.6467 H         1 UNK         0.3040 
     91 H91        24.3793  -27.3552  -37.1033 H         1 UNK         0.1015 
     92 H92        25.1836  -25.0137  -36.7721 H         1 UNK         0.0786 
     93 H93        23.6646  -25.2777  -35.9351 H         1 UNK         0.0786 
     94 H94        23.6917  -24.3852  -37.4573 H         1 UNK         0.0786 
     95 H95        22.9809  -26.3972  -40.1181 H         1 UNK         0.3172 
     96 H96        25.4721  -25.6984  -41.4703 H         1 UNK         0.0595 
     97 H97        22.6741  -26.2491  -42.5775 H         1 UNK         0.0839 
     98 H98        24.0207  -25.5662  -43.4729 H         1 UNK         0.0839 
     99 H99        23.3157  -24.6698  -42.1369 H         1 UNK         0.0839 
    100 H100       26.2803  -27.8306  -40.4228 H         1 UNK         0.2998 
    101 H101       27.4141  -29.6920  -40.7043 H         1 UNK         0.0822 
    102 H102       27.8962  -30.6567  -42.9130 H         1 UNK         0.0787 
    103 H103       26.5731  -29.7708  -43.6478 H         1 UNK         0.0787 
    104 H104       27.9741  -28.9052  -43.0139 H         1 UNK         0.0787 
    105 H105       24.0830  -29.7133  -41.2508 H         1 UNK         0.3055 
    106 H106       22.4394  -31.0079  -40.6131 H         1 UNK         0.1106 
    107 H107       23.8212  -31.8904  -38.7180 H         1 UNK         0.0828 
    108 H108       22.6862  -33.0785  -39.3327 H         1 UNK         0.0828 
    109 H109       24.3854  -33.2080  -39.7477 H         1 UNK         0.0828 
    110 H110       21.0670  -32.6381  -41.4503 H         1 UNK         0.2931 
    111 H111       21.6348  -33.3688  -44.1800 H         1 UNK         0.0412 
    112 H112       22.4532  -35.1046  -41.3200 H         1 UNK         0.3472 
    113 H113       22.5272  -36.6804  -42.0686 H         1 UNK         0.3472 
    114 H114       19.2958  -34.2489  -44.1934 H         1 UNK         0.0970 
    115 H115       19.1738  -33.9730  -42.4718 H         1 UNK         0.0970 
    116 H116       17.0151  -32.4789  -42.7138 H         1 UNK         0.0612 
    117 H117       17.0311  -32.8700  -44.4206 H         1 UNK         0.0612 
@<TRIPOS>BOND
     1    1    2 1    
     2    1   62 1    
     3    1   63 1    
     4    1   64 1    
     5    2    3 2    
     6    2    4 am   BACKBONE|DICT|INTERRES
     7    4    5 1    
     8    4   65 1    
     9    5    6 1    
    10    5   25 1    
    11    5   66 1    
    12    6    7 1    
    13    6   67 1    
    14    6   68 1    
    15    7    8 1    
    16    8    9 1    
    17    8   69 1    
    18    8   70 1    
    19    9   10 ar   
    20    9   14 ar   
    21   10   11 ar   
    22   10   71 1    
    23   11   12 ar   
    24   11   61 1    
    25   12   13 ar   
    26   12   72 1    
    27   13   14 ar   
    28   13   15 1    
    29   14   73 1    
    30   15   16 1    
    31   15   74 1    
    32   15   75 1    
    33   16   17 1    
    34   17   18 1    
    35   17   76 1    
    36   17   77 1    
    37   18   19 1    
    38   18   27 1    
    39   18   78 1    
    40   19   20 am   BACKBONE|DICT|INTERRES
    41   19   79 1    
    42   20   21 2    
    43   20   22 1    
    44   22   23 1    
    45   22   24 1    
    46   22   80 1    
    47   23   81 1    
    48   23   82 1    
    49   23   83 1    
    50   24   25 am   BACKBONE|DICT|INTERRES
    51   24   84 1    
    52   25   26 2    
    53   27   28 2    
    54   27   29 am   BACKBONE|DICT|INTERRES
    55   29   30 1    
    56   29   85 1    
    57   30   31 1    
    58   30   32 1    
    59   30   86 1    
    60   31   87 1    
    61   31   88 1    
    62   31   89 1    
    63   32   33 2    
    64   32   34 am   BACKBONE|DICT|INTERRES
    65   34   35 1    
    66   34   90 1    
    67   35   36 1    
    68   35   37 1    
    69   35   91 1    
    70   36   92 1    
    71   36   93 1    
    72   36   94 1    
    73   37   38 2    
    74   37   39 am   BACKBONE|DICT|INTERRES
    75   39   40 1    
    76   39   95 1    
    77   40   41 1    
    78   40   42 1    
    79   40   96 1    
    80   41   97 1    
    81   41   98 1    
    82   41   99 1    
    83   42   43 2    
    84   42   44 am   BACKBONE|DICT|INTERRES
    85   44   45 1    
    86   44  100 1    
    87   45   46 1    
    88   45   47 1    
    89   45  101 1    
    90   46  102 1    
    91   46  103 1    
    92   46  104 1    
    93   47   48 2    
    94   47   49 am   BACKBONE|DICT|INTERRES
    95   49   50 1    
    96   49  105 1    
    97   50   51 1    
    98   50   52 1    
    99   50  106 1    
   100   51  107 1    
   101   51  108 1    
   102   51  109 1    
   103   52   53 2    
   104   52   54 am   BACKBONE|DICT|INTERRES
   105   54   55 1    
   106   54  110 1    
   107   55   56 1    
   108   55   59 1    
   109   55  111 1    
   110   56   57 am   BACKBONE|DICT|INTERRES
   111   56   58 2    
   112   57  112 1    
   113   57  113 1    
   114   59   60 1    
   115   59  114 1    
   116   59  115 1    
   117   60   61 1    
   118   61  116 1    
   119   61  117 1    
@<TRIPOS>SUBSTRUCTURE
     1 UNK         1 GROUP             0       ****    0 ROOT    
