@<TRIPOS>MOLECULE
3R8
117   119    1
SMALL
USER_CHARGES


@<TRIPOS>ATOM
      1 CA         14.9519  -22.1089  -42.5807 C.3       0 UNK        -0.2013 
      2 C          15.5089  -22.9434  -43.7244 C.2       0 UNK         0.4866 
      3 O          15.4165  -22.5344  -44.8826 O.2       0 UNK        -0.5176 
      4 N          16.0774  -24.1139  -43.4108 N.am      1 UNK        -0.4884 
      5 CA         16.7054  -25.0261  -44.3732 C.3       1 UNK         0.0853 
      6 C6         16.9576  -26.4258  -43.7603 C.3       10 UNK        -0.0849 
      7 S7         15.4212  -27.2323  -43.1882 S.3       10 UNK        -0.2776 
      8 C8         15.2031  -28.5761  -44.4036 C.3       10 UNK         0.0316 
      9 C9         16.3457  -29.5834  -44.3656 C.ar      10 UNK        -0.0863 
     10 C10        16.6035  -30.3145  -43.2011 C.ar      10 UNK        -0.1009 
     11 C11        17.6734  -31.2118  -43.1506 C.ar      10 UNK        -0.0712 
     12 C12        18.4810  -31.3861  -44.2775 C.ar      10 UNK        -0.0894 
     13 C13        18.2323  -30.6655  -45.4484 C.ar      10 UNK        -0.0745 
     14 C14        17.1550  -29.7744  -45.4908 C.ar      10 UNK        -0.0972 
     15 C15        19.1437  -30.8408  -46.6563 C.3       10 UNK         0.0209 
     16 S16        19.9674  -29.2911  -47.1491 S.3       10 UNK        -0.2568 
     17 C17        20.8344  -28.8075  -45.6157 C.3       10 UNK        -0.0983 
     18 CA         21.4782  -27.4034  -45.7328 C.3       3 UNK         0.0876 
     19 N          20.4860  -26.3853  -46.0872 N.am      3 UNK        -0.4424 
     20 C          20.7568  -25.1498  -46.5260 C.2       2 UNK         0.4918 
     21 O          21.8973  -24.7195  -46.7027 O.2       2 UNK        -0.4875 
     22 CA         19.5527  -24.2459  -46.8551 C.3       2 UNK         0.0481 
     23 CB         19.3219  -24.2014  -48.3745 C.3       2 UNK        -0.1831 
     24 N          18.3115  -24.6664  -46.1943 N.am      2 UNK        -0.4498 
     25 C          18.0285  -24.4362  -44.9045 C.2       1 UNK         0.5027 
     26 O          18.7744  -23.8204  -44.1385 O.2       1 UNK        -0.4969 
     27 C          22.2125  -27.0326  -44.4282 C.2       3 UNK         0.5005 
     28 O          21.6358  -26.3714  -43.5590 O.2       3 UNK        -0.5279 
     29 N          23.4642  -27.4925  -44.2977 N.am      4 UNK        -0.4463 
     30 CA         24.3342  -27.2705  -43.1391 C.3       4 UNK         0.0283 
     31 CB         25.7981  -27.4902  -43.5659 C.3       4 UNK        -0.1875 
     32 C          23.9377  -28.1589  -41.9453 C.2       4 UNK         0.4949 
     33 O          24.6851  -29.0705  -41.5862 O.2       4 UNK        -0.5039 
     34 N          22.7520  -27.8975  -41.3802 N.am      5 UNK        -0.4663 
     35 CA         22.1565  -28.5827  -40.2294 C.3       5 UNK         0.0242 
     36 CB         20.7700  -27.9757  -39.9526 C.3       5 UNK        -0.1982 
     37 C          23.0670  -28.5128  -38.9891 C.2       5 UNK         0.5017 
     38 O          23.0992  -27.4776  -38.3216 O.2       5 UNK        -0.5012 
     39 N          23.8103  -29.6019  -38.7605 N.am      6 UNK        -0.4439 
     40 CA         24.8949  -29.8337  -37.7984 C.3       6 UNK         0.0297 
     41 CB         25.7173  -28.5724  -37.4489 C.3       6 UNK        -0.2006 
     42 C          25.8318  -30.8849  -38.4084 C.2       6 UNK         0.4892 
     43 O          26.1581  -31.8680  -37.7430 O.2       6 UNK        -0.5089 
     44 N          26.2179  -30.6663  -39.6741 N.am      7 UNK        -0.4243 
     45 CA         26.9117  -31.6412  -40.5165 C.3       7 UNK         0.0196 
     46 CB         27.8065  -30.9067  -41.5291 C.3       7 UNK        -0.2007 
     47 C          25.8792  -32.5253  -41.2297 C.2       7 UNK         0.5020 
     48 O          26.0069  -33.7498  -41.2189 O.2       7 UNK        -0.5147 
     49 N          24.8482  -31.8815  -41.7913 N.am      8 UNK        -0.4734 
     50 CA         23.6020  -32.5112  -42.2201 C.3       8 UNK         0.0238 
     51 CB         22.9575  -31.6375  -43.3129 C.3       8 UNK        -0.1912 
     52 C          22.6519  -32.6589  -41.0190 C.2       8 UNK         0.5038 
     53 O          22.8785  -32.0408  -39.9735 O.2       8 UNK        -0.5046 
     54 N          21.5781  -33.4304  -41.2201 N.am      9 UNK        -0.4200 
     55 CA         20.5103  -33.7046  -40.2427 C.3       9 UNK         0.0839 
     56 C          20.9671  -34.6545  -39.0937 C.2       9 UNK         0.5513 
     57 N          20.1694  -34.8144  -38.0455 N.am      9 UNK        -0.7519 
     58 O          22.0174  -35.2908  -39.1579 O.2       9 UNK        -0.4960 
     59 C59        19.7719  -32.4257  -39.7287 C.3       10 UNK        -0.0876 
     60 S60        19.3877  -31.1942  -41.0195 S.3       10 UNK        -0.2414 
     61 C61        17.9873  -31.9716  -41.8735 C.3       10 UNK         0.0169 
     62 H62        15.0885  -22.5966  -41.6156 H         1 UNK         0.0903 
     63 H63        15.4512  -21.1409  -42.5451 H         1 UNK         0.0903 
     64 H64        13.8855  -21.9375  -42.7256 H         1 UNK         0.0903 
     65 H65        16.1319  -24.3997  -42.4436 H         1 UNK         0.3096 
     66 H66        16.0193  -25.1392  -45.2160 H         1 UNK         0.1121 
     67 H67        17.4589  -27.0732  -44.4811 H         1 UNK         0.0849 
     68 H68        17.6364  -26.3541  -42.9078 H         1 UNK         0.0849 
     69 H69        14.2668  -29.0947  -44.1930 H         1 UNK         0.0865 
     70 H70        15.0947  -28.1420  -45.3989 H         1 UNK         0.0865 
     71 H71        15.9852  -30.1638  -42.3266 H         1 UNK         0.1346 
     72 H72        19.3177  -32.0696  -44.2306 H         1 UNK         0.1412 
     73 H73        16.9662  -29.2129  -46.3958 H         1 UNK         0.1426 
     74 H74        18.5535  -31.2096  -47.4962 H         1 UNK         0.0716 
     75 H75        19.9078  -31.5952  -46.4625 H         1 UNK         0.0716 
     76 H76        20.1284  -28.8280  -44.7830 H         1 UNK         0.0695 
     77 H77        21.5898  -29.5654  -45.3996 H         1 UNK         0.0695 
     78 H78        22.2173  -27.4302  -46.5368 H         1 UNK         0.0983 
     79 H79        19.5221  -26.6535  -45.9726 H         1 UNK         0.3095 
     80 H80        19.7998  -23.2353  -46.5229 H         1 UNK         0.0454 
     81 H81        20.2172  -23.8584  -48.8951 H         1 UNK         0.0851 
     82 H82        19.0699  -25.1841  -48.7754 H         1 UNK         0.0851 
     83 H83        18.5166  -23.5143  -48.6346 H         1 UNK         0.0851 
     84 H84        17.6439  -25.1658  -46.7653 H         1 UNK         0.2976 
     85 H85        23.8520  -28.0581  -45.0395 H         1 UNK         0.3116 
     86 H86        24.2350  -26.2309  -42.8192 H         1 UNK         0.0646 
     87 H87        26.4777  -27.3200  -42.7297 H         1 UNK         0.0847 
     88 H88        26.0883  -26.8031  -44.3608 H         1 UNK         0.0847 
     89 H89        25.9697  -28.5073  -43.9209 H         1 UNK         0.0847 
     90 H90        22.1981  -27.1612  -41.8074 H         1 UNK         0.3040 
     91 H91        22.0116  -29.6278  -40.5058 H         1 UNK         0.1015 
     92 H92        20.1096  -28.0898  -40.8128 H         1 UNK         0.0786 
     93 H93        20.8309  -26.9127  -39.7162 H         1 UNK         0.0786 
     94 H94        20.2898  -28.4735  -39.1091 H         1 UNK         0.0786 
     95 H95        23.6171  -30.4152  -39.3456 H         1 UNK         0.3172 
     96 H96        24.4577  -30.2443  -36.8870 H         1 UNK         0.0595 
     97 H97        25.1484  -27.8825  -36.8263 H         1 UNK         0.0839 
     98 H98        26.0406  -28.0352  -38.3412 H         1 UNK         0.0839 
     99 H99        26.6128  -28.8327  -36.8826 H         1 UNK         0.0839 
    100 H100       25.8441  -29.8513  -40.1508 H         1 UNK         0.2998 
    101 H101       27.5448  -32.2807  -39.8974 H         1 UNK         0.0822 
    102 H102       28.5640  -30.3078  -41.0235 H         1 UNK         0.0787 
    103 H103       28.3289  -31.6158  -42.1726 H         1 UNK         0.0787 
    104 H104       27.2316  -30.2411  -42.1745 H         1 UNK         0.0787 
    105 H105       24.8276  -30.8656  -41.7271 H         1 UNK         0.3055 
    106 H106       23.8159  -33.5021  -42.6274 H         1 UNK         0.1106 
    107 H107       22.6333  -30.6727  -42.9215 H         1 UNK         0.0828 
    108 H108       23.6503  -31.4504  -44.1334 H         1 UNK         0.0828 
    109 H109       22.0781  -32.1221  -43.7384 H         1 UNK         0.0828 
    110 H110       21.4854  -33.9108  -42.1025 H         1 UNK         0.2931 
    111 H111       19.7816  -34.2905  -40.8031 H         1 UNK         0.0412 
    112 H112       20.4541  -35.4419  -37.3092 H         1 UNK         0.3472 
    113 H113       19.2877  -34.3318  -37.9749 H         1 UNK         0.3472 
    114 H114       20.3780  -31.9222  -38.9734 H         1 UNK         0.0970 
    115 H115       18.8386  -32.6939  -39.2319 H         1 UNK         0.0970 
    116 H116       17.1222  -31.9956  -41.2092 H         1 UNK         0.0612 
    117 H117       18.2280  -33.0070  -42.1171 H         1 UNK         0.0612 
@<TRIPOS>BOND
     1    1    2 1    
     2    1   62 1    
     3    1   63 1    
     4    1   64 1    
     5    2    3 2    
     6    2    4 am   BACKBONE|DICT|INTERRES
     7    4    5 1    
     8    4   65 1    
     9    5    6 1    
    10    5   25 1    
    11    5   66 1    
    12    6    7 1    
    13    6   67 1    
    14    6   68 1    
    15    7    8 1    
    16    8    9 1    
    17    8   69 1    
    18    8   70 1    
    19    9   10 ar   
    20    9   14 ar   
    21   10   11 ar   
    22   10   71 1    
    23   11   12 ar   
    24   11   61 1    
    25   12   13 ar   
    26   12   72 1    
    27   13   14 ar   
    28   13   15 1    
    29   14   73 1    
    30   15   16 1    
    31   15   74 1    
    32   15   75 1    
    33   16   17 1    
    34   17   18 1    
    35   17   76 1    
    36   17   77 1    
    37   18   19 1    
    38   18   27 1    
    39   18   78 1    
    40   19   20 am   BACKBONE|DICT|INTERRES
    41   19   79 1    
    42   20   21 2    
    43   20   22 1    
    44   22   23 1    
    45   22   24 1    
    46   22   80 1    
    47   23   81 1    
    48   23   82 1    
    49   23   83 1    
    50   24   25 am   BACKBONE|DICT|INTERRES
    51   24   84 1    
    52   25   26 2    
    53   27   28 2    
    54   27   29 am   BACKBONE|DICT|INTERRES
    55   29   30 1    
    56   29   85 1    
    57   30   31 1    
    58   30   32 1    
    59   30   86 1    
    60   31   87 1    
    61   31   88 1    
    62   31   89 1    
    63   32   33 2    
    64   32   34 am   BACKBONE|DICT|INTERRES
    65   34   35 1    
    66   34   90 1    
    67   35   36 1    
    68   35   37 1    
    69   35   91 1    
    70   36   92 1    
    71   36   93 1    
    72   36   94 1    
    73   37   38 2    
    74   37   39 am   BACKBONE|DICT|INTERRES
    75   39   40 1    
    76   39   95 1    
    77   40   41 1    
    78   40   42 1    
    79   40   96 1    
    80   41   97 1    
    81   41   98 1    
    82   41   99 1    
    83   42   43 2    
    84   42   44 am   BACKBONE|DICT|INTERRES
    85   44   45 1    
    86   44  100 1    
    87   45   46 1    
    88   45   47 1    
    89   45  101 1    
    90   46  102 1    
    91   46  103 1    
    92   46  104 1    
    93   47   48 2    
    94   47   49 am   BACKBONE|DICT|INTERRES
    95   49   50 1    
    96   49  105 1    
    97   50   51 1    
    98   50   52 1    
    99   50  106 1    
   100   51  107 1    
   101   51  108 1    
   102   51  109 1    
   103   52   53 2    
   104   52   54 am   BACKBONE|DICT|INTERRES
   105   54   55 1    
   106   54  110 1    
   107   55   56 1    
   108   55   59 1    
   109   55  111 1    
   110   56   57 am   BACKBONE|DICT|INTERRES
   111   56   58 2    
   112   57  112 1    
   113   57  113 1    
   114   59   60 1    
   115   59  114 1    
   116   59  115 1    
   117   60   61 1    
   118   61  116 1    
   119   61  117 1    
@<TRIPOS>SUBSTRUCTURE
     1 UNK         1 GROUP             0       ****    0 ROOT    
