@<TRIPOS>MOLECULE
3R8
117   119    1
SMALL
USER_CHARGES


@<TRIPOS>ATOM
      1 CA         17.1472  -23.8245  -40.2023 C.3       0 UNK        -0.2013 
      2 C          17.1729  -23.6904  -41.7177 C.2       0 UNK         0.4866 
      3 O          16.9239  -22.6038  -42.2415 O.2       0 UNK        -0.5176 
      4 N          17.4630  -24.7888  -42.4254 N.am      1 UNK        -0.4884 
      5 CA         17.5866  -24.8332  -43.8864 C.3       1 UNK         0.0853 
      6 C6         17.5490  -26.2903  -44.4198 C.3       10 UNK        -0.0849 
      7 S7         15.9901  -27.1666  -44.0504 S.3       10 UNK        -0.2776 
      8 C8         16.5597  -28.6199  -43.0896 C.3       10 UNK         0.0316 
      9 C9         17.3811  -29.6729  -43.8462 C.ar      10 UNK        -0.0863 
     10 C10        17.9040  -30.7496  -43.1198 C.ar      10 UNK        -0.1009 
     11 C11        18.6762  -31.7335  -43.7462 C.ar      10 UNK        -0.0712 
     12 C12        18.9584  -31.6230  -45.1095 C.ar      10 UNK        -0.0894 
     13 C13        18.4464  -30.5578  -45.8527 C.ar      10 UNK        -0.0745 
     14 C14        17.6323  -29.6085  -45.2241 C.ar      10 UNK        -0.0972 
     15 C15        18.7874  -30.4229  -47.3323 C.3       10 UNK         0.0209 
     16 S16        20.3713  -29.5516  -47.5922 S.3       10 UNK        -0.2568 
     17 C17        19.9716  -27.9322  -46.8600 C.3       10 UNK        -0.0983 
     18 CA         21.0884  -26.8601  -46.9180 C.3       3 UNK         0.0876 
     19 N          20.4495  -25.5542  -46.7523 N.am      3 UNK        -0.4424 
     20 C          20.9870  -24.3310  -46.8107 C.2       2 UNK         0.4918 
     21 O          22.1267  -24.0914  -47.2106 O.2       2 UNK        -0.4875 
     22 CA         20.0740  -23.1776  -46.3337 C.3       2 UNK         0.0481 
     23 CB         19.6318  -22.3133  -47.5257 C.3       2 UNK        -0.1831 
     24 N          18.8790  -23.6484  -45.6097 N.am      2 UNK        -0.4498 
     25 C          18.8846  -24.1389  -44.3589 C.2       1 UNK         0.5027 
     26 O          19.8774  -24.1291  -43.6275 O.2       1 UNK        -0.4969 
     27 C          22.1669  -27.1178  -45.8343 C.2       3 UNK         0.5005 
     28 O          22.3305  -26.3243  -44.9037 O.2       3 UNK        -0.5279 
     29 N          22.8430  -28.2705  -45.9211 N.am      4 UNK        -0.4463 
     30 CA         23.8524  -28.7632  -44.9734 C.3       4 UNK         0.0283 
     31 CB         24.6714  -29.8739  -45.6572 C.3       4 UNK        -0.1875 
     32 C          23.2782  -29.2195  -43.6100 C.2       4 UNK         0.4949 
     33 O          23.7528  -30.2034  -43.0419 O.2       4 UNK        -0.5039 
     34 N          22.2956  -28.4802  -43.0780 N.am      5 UNK        -0.4663 
     35 CA         21.6297  -28.7262  -41.7937 C.3       5 UNK         0.0242 
     36 CB         20.4124  -27.7979  -41.6688 C.3       5 UNK        -0.1982 
     37 C          22.5624  -28.5838  -40.5780 C.2       5 UNK         0.5017 
     38 O          22.2903  -29.1768  -39.5336 O.2       5 UNK        -0.5012 
     39 N          23.6758  -27.8559  -40.7536 N.am      6 UNK        -0.4439 
     40 CA         24.7812  -27.7138  -39.8001 C.3       6 UNK         0.0297 
     41 CB         25.7994  -26.7082  -40.3616 C.3       6 UNK        -0.2006 
     42 C          25.4806  -29.0394  -39.4336 C.2       6 UNK         0.4892 
     43 O          26.1528  -29.0919  -38.4034 O.2       6 UNK        -0.5089 
     44 N          25.2898  -30.0900  -40.2474 N.am      7 UNK        -0.4243 
     45 CA         25.7062  -31.4643  -39.9550 C.3       7 UNK         0.0196 
     46 CB         25.6580  -32.2831  -41.2563 C.3       7 UNK        -0.2007 
     47 C          24.8600  -32.1496  -38.8607 C.2       7 UNK         0.5020 
     48 O          25.2245  -33.2469  -38.4378 O.2       7 UNK        -0.5147 
     49 N          23.7515  -31.5179  -38.4370 N.am      8 UNK        -0.4734 
     50 CA         22.7630  -31.9997  -37.4626 C.3       8 UNK         0.0238 
     51 CB         23.3922  -32.1913  -36.0655 C.3       8 UNK        -0.1912 
     52 C          22.0019  -33.2405  -37.9662 C.2       8 UNK         0.5038 
     53 O          21.7206  -34.1560  -37.1905 O.2       8 UNK        -0.5046 
     54 N          21.6867  -33.2390  -39.2672 N.am      9 UNK        -0.4200 
     55 CA         20.9438  -34.2937  -39.9704 C.3       9 UNK         0.0839 
     56 C          19.4266  -34.3817  -39.6307 C.2       9 UNK         0.5513 
     57 N          18.8382  -33.4121  -38.9402 N.am      9 UNK        -0.7519 
     58 O          18.7738  -35.3553  -39.9975 O.2       9 UNK        -0.4960 
     59 C59        21.2012  -34.2378  -41.5001 C.3       10 UNK        -0.0876 
     60 S60        20.8373  -32.6153  -42.2615 S.3       10 UNK        -0.2414 
     61 C61        19.1894  -32.9288  -42.9594 C.3       10 UNK         0.0169 
     62 H62        17.3751  -24.8397  -39.8781 H         1 UNK         0.0903 
     63 H63        17.8796  -23.1534  -39.7544 H         1 UNK         0.0903 
     64 H64        16.1623  -23.5593  -39.8187 H         1 UNK         0.0903 
     65 H65        17.6717  -25.6499  -41.9428 H         1 UNK         0.3096 
     66 H66        16.7399  -24.2871  -44.3095 H         1 UNK         0.1121 
     67 H67        17.6536  -26.2995  -45.5057 H         1 UNK         0.0849 
     68 H68        18.3925  -26.8622  -44.0307 H         1 UNK         0.0849 
     69 H69        17.1345  -28.2650  -42.2331 H         1 UNK         0.0865 
     70 H70        15.6768  -29.1114  -42.6784 H         1 UNK         0.0865 
     71 H71        17.7054  -30.8278  -42.0592 H         1 UNK         0.1346 
     72 H72        19.5780  -32.3664  -45.5923 H         1 UNK         0.1412 
     73 H73        17.2301  -28.8011  -45.8176 H         1 UNK         0.1426 
     74 H74        17.9920  -29.8941  -47.8599 H         1 UNK         0.0716 
     75 H75        18.8490  -31.4118  -47.7892 H         1 UNK         0.0716 
     76 H76        19.0838  -27.5790  -47.3886 H         1 UNK         0.0695 
     77 H77        19.6687  -28.0758  -45.8229 H         1 UNK         0.0695 
     78 H78        21.5720  -26.8742  -47.8968 H         1 UNK         0.0983 
     79 H79        19.5014  -25.5906  -46.4195 H         1 UNK         0.3095 
     80 H80        20.6631  -22.5522  -45.6597 H         1 UNK         0.0454 
     81 H81        20.4953  -21.9172  -48.0621 H         1 UNK         0.0851 
     82 H82        19.0381  -22.8827  -48.2419 H         1 UNK         0.0851 
     83 H83        19.0382  -21.4593  -47.1991 H         1 UNK         0.0851 
     84 H84        18.0163  -23.6628  -46.1368 H         1 UNK         0.2976 
     85 H85        22.5809  -28.9076  -46.6625 H         1 UNK         0.3116 
     86 H86        24.5349  -27.9387  -44.7578 H         1 UNK         0.0646 
     87 H87        25.4933  -30.2060  -45.0212 H         1 UNK         0.0847 
     88 H88        25.1124  -29.5270  -46.5918 H         1 UNK         0.0847 
     89 H89        24.0569  -30.7477  -45.8774 H         1 UNK         0.0847 
     90 H90        22.0263  -27.6434  -43.5894 H         1 UNK         0.3040 
     91 H91        21.2713  -29.7568  -41.7991 H         1 UNK         0.1015 
     92 H92        19.6870  -28.0073  -42.4536 H         1 UNK         0.0786 
     93 H93        20.6935  -26.7460  -41.7383 H         1 UNK         0.0786 
     94 H94        19.9045  -27.9423  -40.7141 H         1 UNK         0.0786 
     95 H95        23.7947  -27.4110  -41.6523 H         1 UNK         0.3172 
     96 H96        24.3655  -27.3036  -38.8776 H         1 UNK         0.0595 
     97 H97        26.6208  -26.5515  -39.6608 H         1 UNK         0.0839 
     98 H98        25.3415  -25.7351  -40.5409 H         1 UNK         0.0839 
     99 H99        26.2346  -27.0548  -41.2999 H         1 UNK         0.0839 
    100 H100       24.7367  -29.9620  -41.0876 H         1 UNK         0.2998 
    101 H101       26.7391  -31.4411  -39.6011 H         1 UNK         0.0822 
    102 H102       24.6389  -32.3774  -41.6345 H         1 UNK         0.0787 
    103 H103       26.2640  -31.8254  -42.0385 H         1 UNK         0.0787 
    104 H104       26.0408  -33.2923  -41.0990 H         1 UNK         0.0787 
    105 H105       23.5193  -30.6270  -38.8666 H         1 UNK         0.3055 
    106 H106       22.0162  -31.2084  -37.3754 H         1 UNK         0.1106 
    107 H107       24.0977  -33.0224  -36.0455 H         1 UNK         0.0828 
    108 H108       23.9201  -31.2944  -35.7418 H         1 UNK         0.0828 
    109 H109       22.6254  -32.4021  -35.3190 H         1 UNK         0.0828 
    110 H110       21.9462  -32.4410  -39.8282 H         1 UNK         0.2931 
    111 H111       21.3617  -35.2417  -39.6256 H         1 UNK         0.0412 
    112 H112       17.8569  -33.4863  -38.7224 H         1 UNK         0.3472 
    113 H113       19.3630  -32.6074  -38.6391 H         1 UNK         0.3472 
    114 H114       22.2540  -34.4525  -41.6898 H         1 UNK         0.0970 
    115 H115       20.6537  -35.0275  -42.0182 H         1 UNK         0.0970 
    116 H116       19.2308  -33.8066  -43.6062 H         1 UNK         0.0612 
    117 H117       18.4925  -33.1704  -42.1560 H         1 UNK         0.0612 
@<TRIPOS>BOND
     1    1    2 1    
     2    1   62 1    
     3    1   63 1    
     4    1   64 1    
     5    2    3 2    
     6    2    4 am   BACKBONE|DICT|INTERRES
     7    4    5 1    
     8    4   65 1    
     9    5    6 1    
    10    5   25 1    
    11    5   66 1    
    12    6    7 1    
    13    6   67 1    
    14    6   68 1    
    15    7    8 1    
    16    8    9 1    
    17    8   69 1    
    18    8   70 1    
    19    9   10 ar   
    20    9   14 ar   
    21   10   11 ar   
    22   10   71 1    
    23   11   12 ar   
    24   11   61 1    
    25   12   13 ar   
    26   12   72 1    
    27   13   14 ar   
    28   13   15 1    
    29   14   73 1    
    30   15   16 1    
    31   15   74 1    
    32   15   75 1    
    33   16   17 1    
    34   17   18 1    
    35   17   76 1    
    36   17   77 1    
    37   18   19 1    
    38   18   27 1    
    39   18   78 1    
    40   19   20 am   BACKBONE|DICT|INTERRES
    41   19   79 1    
    42   20   21 2    
    43   20   22 1    
    44   22   23 1    
    45   22   24 1    
    46   22   80 1    
    47   23   81 1    
    48   23   82 1    
    49   23   83 1    
    50   24   25 am   BACKBONE|DICT|INTERRES
    51   24   84 1    
    52   25   26 2    
    53   27   28 2    
    54   27   29 am   BACKBONE|DICT|INTERRES
    55   29   30 1    
    56   29   85 1    
    57   30   31 1    
    58   30   32 1    
    59   30   86 1    
    60   31   87 1    
    61   31   88 1    
    62   31   89 1    
    63   32   33 2    
    64   32   34 am   BACKBONE|DICT|INTERRES
    65   34   35 1    
    66   34   90 1    
    67   35   36 1    
    68   35   37 1    
    69   35   91 1    
    70   36   92 1    
    71   36   93 1    
    72   36   94 1    
    73   37   38 2    
    74   37   39 am   BACKBONE|DICT|INTERRES
    75   39   40 1    
    76   39   95 1    
    77   40   41 1    
    78   40   42 1    
    79   40   96 1    
    80   41   97 1    
    81   41   98 1    
    82   41   99 1    
    83   42   43 2    
    84   42   44 am   BACKBONE|DICT|INTERRES
    85   44   45 1    
    86   44  100 1    
    87   45   46 1    
    88   45   47 1    
    89   45  101 1    
    90   46  102 1    
    91   46  103 1    
    92   46  104 1    
    93   47   48 2    
    94   47   49 am   BACKBONE|DICT|INTERRES
    95   49   50 1    
    96   49  105 1    
    97   50   51 1    
    98   50   52 1    
    99   50  106 1    
   100   51  107 1    
   101   51  108 1    
   102   51  109 1    
   103   52   53 2    
   104   52   54 am   BACKBONE|DICT|INTERRES
   105   54   55 1    
   106   54  110 1    
   107   55   56 1    
   108   55   59 1    
   109   55  111 1    
   110   56   57 am   BACKBONE|DICT|INTERRES
   111   56   58 2    
   112   57  112 1    
   113   57  113 1    
   114   59   60 1    
   115   59  114 1    
   116   59  115 1    
   117   60   61 1    
   118   61  116 1    
   119   61  117 1    
@<TRIPOS>SUBSTRUCTURE
     1 UNK         1 GROUP             0       ****    0 ROOT    
