@<TRIPOS>MOLECULE
3R8
117   119    1
SMALL
USER_CHARGES


@<TRIPOS>ATOM
      1 CA         17.2432  -25.3949  -41.7026 C.3       0 UNK        -0.2013 
      2 C          18.4505  -25.5038  -42.6195 C.2       0 UNK         0.4866 
      3 O          19.5660  -25.7086  -42.1391 O.2       0 UNK        -0.5176 
      4 N          18.2185  -25.3795  -43.9321 N.am      1 UNK        -0.4884 
      5 CA         19.1936  -25.2283  -45.0243 C.3       1 UNK         0.0853 
      6 C6         18.5111  -25.1757  -46.4214 C.3       10 UNK        -0.0849 
      7 S7         17.0686  -26.2809  -46.6434 S.3       10 UNK        -0.2776 
      8 C8         17.8416  -27.8850  -47.0522 C.3       10 UNK         0.0316 
      9 C9         17.5960  -29.0142  -46.0447 C.ar      10 UNK        -0.0863 
     10 C10        17.9876  -30.3071  -46.4075 C.ar      10 UNK        -0.1009 
     11 C11        17.7913  -31.3924  -45.5487 C.ar      10 UNK        -0.0712 
     12 C12        17.1714  -31.1779  -44.3139 C.ar      10 UNK        -0.0894 
     13 C13        16.7841  -29.8946  -43.9238 C.ar      10 UNK        -0.0745 
     14 C14        16.9980  -28.8177  -44.7899 C.ar      10 UNK        -0.0972 
     15 C15        16.0971  -29.6849  -42.5812 C.3       10 UNK         0.0209 
     16 S16        17.1636  -28.8542  -41.3621 S.3       10 UNK        -0.2568 
     17 C17        18.4507  -30.1038  -41.0115 C.3       10 UNK        -0.0983 
     18 CA         19.8917  -29.5289  -40.9763 C.3       3 UNK         0.0876 
     19 N          20.2239  -28.8239  -42.2187 N.am      3 UNK        -0.4424 
     20 C          21.2037  -29.1736  -43.0610 C.2       2 UNK         0.4918 
     21 O          21.9869  -30.1006  -42.8561 O.2       2 UNK        -0.4875 
     22 CA         21.3370  -28.3780  -44.3683 C.3       2 UNK         0.0481 
     23 CB         21.4531  -29.3085  -45.5884 C.3       2 UNK        -0.1831 
     24 N          20.2392  -27.4255  -44.5662 N.am      2 UNK        -0.4498 
     25 C          20.4109  -26.1782  -45.0201 C.2       1 UNK         0.5027 
     26 O          21.4926  -25.7441  -45.4194 O.2       1 UNK        -0.4969 
     27 C          20.1393  -28.6623  -39.7221 C.2       3 UNK         0.5005 
     28 O          20.2527  -29.2242  -38.6306 O.2       3 UNK        -0.5279 
     29 N          20.2253  -27.3325  -39.8789 N.am      4 UNK        -0.4463 
     30 CA         20.5552  -26.3785  -38.8165 C.3       4 UNK         0.0283 
     31 CB         19.3235  -25.5228  -38.4790 C.3       4 UNK        -0.1875 
     32 C          21.7344  -25.4898  -39.2338 C.2       4 UNK         0.4949 
     33 O          22.6128  -25.2288  -38.4123 O.2       4 UNK        -0.5039 
     34 N          21.7562  -25.0615  -40.5049 N.am      5 UNK        -0.4663 
     35 CA         22.8444  -24.2854  -41.1096 C.3       5 UNK         0.0242 
     36 CB         22.3205  -23.6165  -42.3903 C.3       5 UNK        -0.1982 
     37 C          24.0991  -25.1273  -41.4129 C.2       5 UNK         0.5017 
     38 O          25.1657  -24.5574  -41.6461 O.2       5 UNK        -0.5012 
     39 N          23.9543  -26.4558  -41.3978 N.am      6 UNK        -0.4439 
     40 CA         25.0097  -27.4517  -41.5243 C.3       6 UNK         0.0297 
     41 CB         25.2639  -27.7663  -43.0106 C.3       6 UNK        -0.2006 
     42 C          24.5594  -28.7009  -40.7576 C.2       6 UNK         0.4892 
     43 O          23.3870  -28.8013  -40.3892 O.2       6 UNK        -0.5089 
     44 N          25.4945  -29.6323  -40.5438 N.am      7 UNK        -0.4243 
     45 CA         25.2340  -30.9290  -39.9099 C.3       7 UNK         0.0196 
     46 CB         26.4615  -31.3206  -39.0691 C.3       7 UNK        -0.2007 
     47 C          24.9069  -32.0383  -40.9277 C.2       7 UNK         0.5020 
     48 O          24.5330  -33.1343  -40.5097 O.2       7 UNK        -0.5147 
     49 N          25.0719  -31.7564  -42.2297 N.am      8 UNK        -0.4734 
     50 CA         24.9919  -32.7087  -43.3464 C.3       8 UNK         0.0238 
     51 CB         25.2527  -31.9583  -44.6631 C.3       8 UNK        -0.1912 
     52 C          23.6792  -33.5062  -43.4394 C.2       8 UNK         0.5038 
     53 O          23.7158  -34.6820  -43.8048 O.2       8 UNK        -0.5046 
     54 N          22.5634  -32.8564  -43.0993 N.am      9 UNK        -0.4200 
     55 CA         21.2152  -33.4298  -43.0230 C.3       9 UNK         0.0839 
     56 C          20.6590  -33.4204  -41.5668 C.2       9 UNK         0.5513 
     57 N          21.4923  -33.2859  -40.5406 N.am      9 UNK        -0.7519 
     58 O          19.4573  -33.5461  -41.3505 O.2       9 UNK        -0.4960 
     59 C59        20.2829  -32.7334  -44.0507 C.3       10 UNK        -0.0876 
     60 S60        18.9368  -33.8098  -44.6455 S.3       10 UNK        -0.2414 
     61 C61        18.2353  -32.7877  -45.9861 C.3       10 UNK         0.0169 
     62 H62        17.3873  -25.9926  -40.8039 H         1 UNK         0.0903 
     63 H63        17.0981  -24.3591  -41.3979 H         1 UNK         0.0903 
     64 H64        16.3346  -25.7424  -42.1939 H         1 UNK         0.0903 
     65 H65        17.2609  -25.2658  -44.2350 H         1 UNK         0.3096 
     66 H66        19.6341  -24.2425  -44.8577 H         1 UNK         0.1121 
     67 H67        19.2235  -25.3332  -47.2344 H         1 UNK         0.0849 
     68 H68        18.1375  -24.1627  -46.5793 H         1 UNK         0.0849 
     69 H69        17.4521  -28.1957  -48.0229 H         1 UNK         0.0865 
     70 H70        18.9163  -27.7600  -47.1877 H         1 UNK         0.0865 
     71 H71        18.4521  -30.4702  -47.3709 H         1 UNK         0.1346 
     72 H72        16.9956  -32.0124  -43.6492 H         1 UNK         0.1412 
     73 H73        16.6782  -27.8351  -44.4755 H         1 UNK         0.1426 
     74 H74        15.7537  -30.6335  -42.1654 H         1 UNK         0.0716 
     75 H75        15.2024  -29.0790  -42.7308 H         1 UNK         0.0716 
     76 H76        18.4028  -30.8885  -41.7663 H         1 UNK         0.0695 
     77 H77        18.2086  -30.5980  -40.0688 H         1 UNK         0.0695 
     78 H78        20.5662  -30.3797  -40.8569 H         1 UNK         0.0983 
     79 H79        19.6495  -28.0247  -42.4401 H         1 UNK         0.3095 
     80 H80        22.2755  -27.8301  -44.2729 H         1 UNK         0.0454 
     81 H81        21.5515  -28.7425  -46.5145 H         1 UNK         0.0851 
     82 H82        20.5847  -29.9580  -45.6795 H         1 UNK         0.0851 
     83 H83        22.3302  -29.9516  -45.5093 H         1 UNK         0.0851 
     84 H84        19.3070  -27.7317  -44.3246 H         1 UNK         0.2976 
     85 H85        20.0892  -26.9338  -40.8017 H         1 UNK         0.3116 
     86 H86        20.8587  -26.9100  -37.9120 H         1 UNK         0.0646 
     87 H87        19.0157  -24.9035  -39.3218 H         1 UNK         0.0847 
     88 H88        19.5344  -24.8524  -37.6449 H         1 UNK         0.0847 
     89 H89        18.4759  -26.1442  -38.1899 H         1 UNK         0.0847 
     90 H90        20.9684  -25.2732  -41.1150 H         1 UNK         0.3040 
     91 H91        23.1414  -23.5019  -40.4089 H         1 UNK         0.1015 
     92 H92        22.0155  -24.3560  -43.1305 H         1 UNK         0.0786 
     93 H93        23.0882  -22.9923  -42.8495 H         1 UNK         0.0786 
     94 H94        21.4625  -22.9768  -42.1829 H         1 UNK         0.0786 
     95 H95        23.0630  -26.8453  -41.1150 H         1 UNK         0.3172 
     96 H96        25.9231  -27.0710  -41.0623 H         1 UNK         0.0595 
     97 H97        24.4121  -28.2690  -43.4686 H         1 UNK         0.0839 
     98 H98        26.1291  -28.4185  -43.1324 H         1 UNK         0.0839 
     99 H99        25.4644  -26.8599  -43.5821 H         1 UNK         0.0839 
    100 H100       26.4400  -29.4621  -40.8574 H         1 UNK         0.2998 
    101 H101       24.3770  -30.8465  -39.2375 H         1 UNK         0.0822 
    102 H102       26.2942  -32.2642  -38.5476 H         1 UNK         0.0787 
    103 H103       27.3528  -31.4429  -39.6858 H         1 UNK         0.0787 
    104 H104       26.6780  -30.5685  -38.3101 H         1 UNK         0.0787 
    105 H105       25.3428  -30.8147  -42.4675 H         1 UNK         0.3055 
    106 H106       25.7931  -33.4368  -43.2030 H         1 UNK         0.1106 
    107 H107       25.2110  -32.6374  -45.5160 H         1 UNK         0.0828 
    108 H108       24.5127  -31.1752  -44.8335 H         1 UNK         0.0828 
    109 H109       26.2398  -31.4957  -44.6697 H         1 UNK         0.0828 
    110 H110       22.6246  -31.8771  -42.8307 H         1 UNK         0.2931 
    111 H111       21.2735  -34.4861  -43.2902 H         1 UNK         0.0412 
    112 H112       22.4943  -33.2350  -40.6849 H         1 UNK         0.3472 
    113 H113       21.1207  -33.2914  -39.6043 H         1 UNK         0.3472 
    114 H114       20.8546  -32.4303  -44.9294 H         1 UNK         0.0970 
    115 H115       19.8661  -31.8148  -43.6361 H         1 UNK         0.0970 
    116 H116       17.3763  -33.3097  -46.4091 H         1 UNK         0.0612 
    117 H117       18.9784  -32.7171  -46.7820 H         1 UNK         0.0612 
@<TRIPOS>BOND
     1    1    2 1    
     2    1   62 1    
     3    1   63 1    
     4    1   64 1    
     5    2    3 2    
     6    2    4 am   BACKBONE|DICT|INTERRES
     7    4    5 1    
     8    4   65 1    
     9    5    6 1    
    10    5   25 1    
    11    5   66 1    
    12    6    7 1    
    13    6   67 1    
    14    6   68 1    
    15    7    8 1    
    16    8    9 1    
    17    8   69 1    
    18    8   70 1    
    19    9   10 ar   
    20    9   14 ar   
    21   10   11 ar   
    22   10   71 1    
    23   11   12 ar   
    24   11   61 1    
    25   12   13 ar   
    26   12   72 1    
    27   13   14 ar   
    28   13   15 1    
    29   14   73 1    
    30   15   16 1    
    31   15   74 1    
    32   15   75 1    
    33   16   17 1    
    34   17   18 1    
    35   17   76 1    
    36   17   77 1    
    37   18   19 1    
    38   18   27 1    
    39   18   78 1    
    40   19   20 am   BACKBONE|DICT|INTERRES
    41   19   79 1    
    42   20   21 2    
    43   20   22 1    
    44   22   23 1    
    45   22   24 1    
    46   22   80 1    
    47   23   81 1    
    48   23   82 1    
    49   23   83 1    
    50   24   25 am   BACKBONE|DICT|INTERRES
    51   24   84 1    
    52   25   26 2    
    53   27   28 2    
    54   27   29 am   BACKBONE|DICT|INTERRES
    55   29   30 1    
    56   29   85 1    
    57   30   31 1    
    58   30   32 1    
    59   30   86 1    
    60   31   87 1    
    61   31   88 1    
    62   31   89 1    
    63   32   33 2    
    64   32   34 am   BACKBONE|DICT|INTERRES
    65   34   35 1    
    66   34   90 1    
    67   35   36 1    
    68   35   37 1    
    69   35   91 1    
    70   36   92 1    
    71   36   93 1    
    72   36   94 1    
    73   37   38 2    
    74   37   39 am   BACKBONE|DICT|INTERRES
    75   39   40 1    
    76   39   95 1    
    77   40   41 1    
    78   40   42 1    
    79   40   96 1    
    80   41   97 1    
    81   41   98 1    
    82   41   99 1    
    83   42   43 2    
    84   42   44 am   BACKBONE|DICT|INTERRES
    85   44   45 1    
    86   44  100 1    
    87   45   46 1    
    88   45   47 1    
    89   45  101 1    
    90   46  102 1    
    91   46  103 1    
    92   46  104 1    
    93   47   48 2    
    94   47   49 am   BACKBONE|DICT|INTERRES
    95   49   50 1    
    96   49  105 1    
    97   50   51 1    
    98   50   52 1    
    99   50  106 1    
   100   51  107 1    
   101   51  108 1    
   102   51  109 1    
   103   52   53 2    
   104   52   54 am   BACKBONE|DICT|INTERRES
   105   54   55 1    
   106   54  110 1    
   107   55   56 1    
   108   55   59 1    
   109   55  111 1    
   110   56   57 am   BACKBONE|DICT|INTERRES
   111   56   58 2    
   112   57  112 1    
   113   57  113 1    
   114   59   60 1    
   115   59  114 1    
   116   59  115 1    
   117   60   61 1    
   118   61  116 1    
   119   61  117 1    
@<TRIPOS>SUBSTRUCTURE
     1 UNK         1 GROUP             0       ****    0 ROOT    
