@<TRIPOS>MOLECULE
3R8
117   119    1
SMALL
USER_CHARGES


@<TRIPOS>ATOM
      1 CA         15.8264  -23.2681  -48.2331 C.3       0 UNK        -0.2013 
      2 C          17.1051  -23.8413  -47.6404 C.2       0 UNK         0.4866 
      3 O          18.1269  -23.1542  -47.6081 O.2       0 UNK        -0.5176 
      4 N          17.0600  -25.0974  -47.1803 N.am      1 UNK        -0.4884 
      5 CA         18.1789  -25.7907  -46.5343 C.3       1 UNK         0.0853 
      6 C6         17.9064  -27.3050  -46.3839 C.3       10 UNK        -0.0849 
      7 S7         17.8600  -28.1899  -47.9742 S.3       10 UNK        -0.2776 
      8 C8         16.7640  -29.5902  -47.5675 C.3       10 UNK         0.0316 
      9 C9         17.1682  -30.2985  -46.2786 C.ar      10 UNK        -0.0863 
     10 C10        18.3458  -31.0519  -46.2224 C.ar      10 UNK        -0.1009 
     11 C11        18.7109  -31.7091  -45.0434 C.ar      10 UNK        -0.0712 
     12 C12        17.8722  -31.6315  -43.9276 C.ar      10 UNK        -0.0894 
     13 C13        16.7168  -30.8472  -43.9547 C.ar      10 UNK        -0.0745 
     14 C14        16.3645  -30.1911  -45.1376 C.ar      10 UNK        -0.0972 
     15 C15        15.8406  -30.7268  -42.7132 C.3       10 UNK         0.0209 
     16 S16        16.7512  -30.1208  -41.2506 S.3       10 UNK        -0.2568 
     17 C17        17.0826  -28.3737  -41.6674 C.3       10 UNK        -0.0983 
     18 CA         18.5801  -27.9982  -41.5029 C.3       3 UNK         0.0876 
     19 N          18.8947  -26.7628  -42.2261 N.am      3 UNK        -0.4424 
     20 C          20.1153  -26.3957  -42.6363 C.2       2 UNK         0.4918 
     21 O          21.1200  -27.0931  -42.4923 O.2       2 UNK        -0.4875 
     22 CA         20.2106  -25.0516  -43.3778 C.3       2 UNK         0.0481 
     23 CB         21.6439  -24.4900  -43.3964 C.3       2 UNK        -0.1831 
     24 N          19.7542  -25.2464  -44.7512 N.am      2 UNK        -0.4498 
     25 C          18.4736  -25.2116  -45.1383 C.2       1 UNK         0.5027 
     26 O          17.5457  -24.8439  -44.4119 O.2       1 UNK        -0.4969 
     27 C          19.0452  -27.8795  -40.0313 C.2       3 UNK         0.5005 
     28 O          18.2266  -27.6755  -39.1319 O.2       3 UNK        -0.5279 
     29 N          20.3660  -27.9423  -39.8271 N.am      4 UNK        -0.4463 
     30 CA         21.0566  -27.7803  -38.5508 C.3       4 UNK         0.0283 
     31 CB         21.1401  -26.2823  -38.1796 C.3       4 UNK        -0.1875 
     32 C          22.4236  -28.4802  -38.6396 C.2       4 UNK         0.4949 
     33 O          22.5261  -29.5261  -39.2822 O.2       4 UNK        -0.5039 
     34 N          23.4558  -27.9095  -38.0034 N.am      5 UNK        -0.4663 
     35 CA         24.8229  -28.4451  -37.9823 C.3       5 UNK         0.0242 
     36 CB         25.6633  -27.6469  -36.9728 C.3       5 UNK        -0.1982 
     37 C          25.5134  -28.4655  -39.3589 C.2       5 UNK         0.5017 
     38 O          26.4040  -29.2906  -39.5689 O.2       5 UNK        -0.5012 
     39 N          25.0866  -27.5777  -40.2697 N.am      6 UNK        -0.4439 
     40 CA         25.5325  -27.4990  -41.6625 C.3       6 UNK         0.0297 
     41 CB         24.8182  -26.3303  -42.3592 C.3       6 UNK        -0.2006 
     42 C          25.2735  -28.8215  -42.4031 C.2       6 UNK         0.4892 
     43 O          24.1205  -29.2428  -42.5079 O.2       6 UNK        -0.5089 
     44 N          26.3631  -29.4779  -42.8296 N.am      7 UNK        -0.4243 
     45 CA         26.4128  -30.8096  -43.4542 C.3       7 UNK         0.0196 
     46 CB         25.7526  -30.7734  -44.8495 C.3       7 UNK        -0.2007 
     47 C          25.8431  -31.9486  -42.5774 C.2       7 UNK         0.5020 
     48 O          25.5678  -33.0284  -43.1020 O.2       7 UNK        -0.5147 
     49 N          25.6671  -31.6916  -41.2702 N.am      8 UNK        -0.4734 
     50 CA         24.9894  -32.5333  -40.2763 C.3       8 UNK         0.0238 
     51 CB         25.8388  -33.7806  -39.9519 C.3       8 UNK        -0.1912 
     52 C          23.5314  -32.8781  -40.6542 C.2       8 UNK         0.5038 
     53 O          23.0645  -33.9729  -40.3320 O.2       8 UNK        -0.5046 
     54 N          22.8449  -31.9521  -41.3401 N.am      9 UNK        -0.4200 
     55 CA         21.4516  -32.1049  -41.7848 C.3       9 UNK         0.0839 
     56 C          20.4090  -32.2076  -40.6352 C.2       9 UNK         0.5513 
     57 N          20.6223  -31.5709  -39.4928 N.am      9 UNK        -0.7519 
     58 O          19.3968  -32.8859  -40.7849 O.2       9 UNK        -0.4960 
     59 C59        21.0581  -31.0013  -42.8034 C.3       10 UNK        -0.0876 
     60 S60        21.4446  -31.4663  -44.5250 S.3       10 UNK        -0.2414 
     61 C61        20.0082  -32.5042  -44.9702 C.3       10 UNK         0.0169 
     62 H62        15.0077  -23.9872  -48.2102 H         1 UNK         0.0903 
     63 H63        15.5175  -22.3849  -47.6745 H         1 UNK         0.0903 
     64 H64        15.9914  -22.9755  -49.2697 H         1 UNK         0.0903 
     65 H65        16.1931  -25.6137  -47.2239 H         1 UNK         0.3096 
     66 H66        19.0653  -25.6514  -47.1578 H         1 UNK         0.1121 
     67 H67        16.9663  -27.4620  -45.8511 H         1 UNK         0.0849 
     68 H68        18.6793  -27.7875  -45.7803 H         1 UNK         0.0849 
     69 H69        15.7373  -29.2265  -47.5018 H         1 UNK         0.0865 
     70 H70        16.7794  -30.3043  -48.3921 H         1 UNK         0.0865 
     71 H71        18.9834  -31.1163  -47.0937 H         1 UNK         0.1346 
     72 H72        18.1360  -32.1546  -43.0186 H         1 UNK         0.1412 
     73 H73        15.4616  -29.5966  -45.1710 H         1 UNK         0.1426 
     74 H74        15.4283  -31.7100  -42.4830 H         1 UNK         0.0716 
     75 H75        14.9873  -30.0717  -42.8956 H         1 UNK         0.0716 
     76 H76        16.7778  -28.2092  -42.7023 H         1 UNK         0.0695 
     77 H77        16.4385  -27.7312  -41.0644 H         1 UNK         0.0695 
     78 H78        19.1632  -28.7971  -41.9619 H         1 UNK         0.0983 
     79 H79        18.1222  -26.1334  -42.3979 H         1 UNK         0.3095 
     80 H80        19.5734  -24.3274  -42.8656 H         1 UNK         0.0454 
     81 H81        22.3314  -25.1438  -43.9341 H         1 UNK         0.0851 
     82 H82        22.0296  -24.3723  -42.3829 H         1 UNK         0.0851 
     83 H83        21.6773  -23.5094  -43.8711 H         1 UNK         0.0851 
     84 H84        20.4470  -25.5960  -45.3985 H         1 UNK         0.2976 
     85 H85        20.9711  -28.0821  -40.6308 H         1 UNK         0.3116 
     86 H86        20.4880  -28.3031  -37.7792 H         1 UNK         0.0646 
     87 H87        21.7465  -25.7220  -38.8925 H         1 UNK         0.0847 
     88 H88        21.5660  -26.1373  -37.1863 H         1 UNK         0.0847 
     89 H89        20.1513  -25.8238  -38.1599 H         1 UNK         0.0847 
     90 H90        23.2945  -27.0551  -37.4894 H         1 UNK         0.3040 
     91 H91        24.7682  -29.4808  -37.6391 H         1 UNK         0.1015 
     92 H92        25.7362  -26.5944  -37.2496 H         1 UNK         0.0786 
     93 H93        26.6798  -28.0394  -36.9145 H         1 UNK         0.0786 
     94 H94        25.2396  -27.7035  -35.9699 H         1 UNK         0.0786 
     95 H95        24.3273  -26.9691  -40.0042 H         1 UNK         0.3172 
     96 H96        26.6045  -27.2914  -41.6581 H         1 UNK         0.0595 
     97 H97        25.1339  -26.2438  -43.3997 H         1 UNK         0.0839 
     98 H98        25.0370  -25.3793  -41.8733 H         1 UNK         0.0839 
     99 H99        23.7369  -26.4686  -42.3587 H         1 UNK         0.0839 
    100 H100       27.2641  -29.0553  -42.6506 H         1 UNK         0.2998 
    101 H101       27.4699  -31.0407  -43.5935 H         1 UNK         0.0822 
    102 H102       25.9149  -31.7089  -45.3863 H         1 UNK         0.0787 
    103 H103       24.6743  -30.6229  -44.7817 H         1 UNK         0.0787 
    104 H104       26.1652  -29.9738  -45.4645 H         1 UNK         0.0787 
    105 H105       25.9494  -30.7774  -40.9300 H         1 UNK         0.3055 
    106 H106       24.9223  -31.9335  -39.3670 H         1 UNK         0.1106 
    107 H107       25.4117  -34.3402  -39.1188 H         1 UNK         0.0828 
    108 H108       25.9001  -34.4605  -40.8022 H         1 UNK         0.0828 
    109 H109       26.8544  -33.5059  -39.6674 H         1 UNK         0.0828 
    110 H110       23.2961  -31.0735  -41.5682 H         1 UNK         0.2931 
    111 H111       21.4018  -33.0692  -42.2946 H         1 UNK         0.0412 
    112 H112       19.9485  -31.6502  -38.7490 H         1 UNK         0.3472 
    113 H113       21.4249  -30.9527  -39.3933 H         1 UNK         0.3472 
    114 H114       21.5692  -30.0646  -42.5735 H         1 UNK         0.0970 
    115 H115       20.0021  -30.7518  -42.7478 H         1 UNK         0.0970 
    116 H116       20.2038  -32.9731  -45.9355 H         1 UNK         0.0612 
    117 H117       19.9132  -33.3199  -44.2519 H         1 UNK         0.0612 
@<TRIPOS>BOND
     1    1    2 1    
     2    1   62 1    
     3    1   63 1    
     4    1   64 1    
     5    2    3 2    
     6    2    4 am   BACKBONE|DICT|INTERRES
     7    4    5 1    
     8    4   65 1    
     9    5    6 1    
    10    5   25 1    
    11    5   66 1    
    12    6    7 1    
    13    6   67 1    
    14    6   68 1    
    15    7    8 1    
    16    8    9 1    
    17    8   69 1    
    18    8   70 1    
    19    9   10 ar   
    20    9   14 ar   
    21   10   11 ar   
    22   10   71 1    
    23   11   12 ar   
    24   11   61 1    
    25   12   13 ar   
    26   12   72 1    
    27   13   14 ar   
    28   13   15 1    
    29   14   73 1    
    30   15   16 1    
    31   15   74 1    
    32   15   75 1    
    33   16   17 1    
    34   17   18 1    
    35   17   76 1    
    36   17   77 1    
    37   18   19 1    
    38   18   27 1    
    39   18   78 1    
    40   19   20 am   BACKBONE|DICT|INTERRES
    41   19   79 1    
    42   20   21 2    
    43   20   22 1    
    44   22   23 1    
    45   22   24 1    
    46   22   80 1    
    47   23   81 1    
    48   23   82 1    
    49   23   83 1    
    50   24   25 am   BACKBONE|DICT|INTERRES
    51   24   84 1    
    52   25   26 2    
    53   27   28 2    
    54   27   29 am   BACKBONE|DICT|INTERRES
    55   29   30 1    
    56   29   85 1    
    57   30   31 1    
    58   30   32 1    
    59   30   86 1    
    60   31   87 1    
    61   31   88 1    
    62   31   89 1    
    63   32   33 2    
    64   32   34 am   BACKBONE|DICT|INTERRES
    65   34   35 1    
    66   34   90 1    
    67   35   36 1    
    68   35   37 1    
    69   35   91 1    
    70   36   92 1    
    71   36   93 1    
    72   36   94 1    
    73   37   38 2    
    74   37   39 am   BACKBONE|DICT|INTERRES
    75   39   40 1    
    76   39   95 1    
    77   40   41 1    
    78   40   42 1    
    79   40   96 1    
    80   41   97 1    
    81   41   98 1    
    82   41   99 1    
    83   42   43 2    
    84   42   44 am   BACKBONE|DICT|INTERRES
    85   44   45 1    
    86   44  100 1    
    87   45   46 1    
    88   45   47 1    
    89   45  101 1    
    90   46  102 1    
    91   46  103 1    
    92   46  104 1    
    93   47   48 2    
    94   47   49 am   BACKBONE|DICT|INTERRES
    95   49   50 1    
    96   49  105 1    
    97   50   51 1    
    98   50   52 1    
    99   50  106 1    
   100   51  107 1    
   101   51  108 1    
   102   51  109 1    
   103   52   53 2    
   104   52   54 am   BACKBONE|DICT|INTERRES
   105   54   55 1    
   106   54  110 1    
   107   55   56 1    
   108   55   59 1    
   109   55  111 1    
   110   56   57 am   BACKBONE|DICT|INTERRES
   111   56   58 2    
   112   57  112 1    
   113   57  113 1    
   114   59   60 1    
   115   59  114 1    
   116   59  115 1    
   117   60   61 1    
   118   61  116 1    
   119   61  117 1    
@<TRIPOS>SUBSTRUCTURE
     1 UNK         1 GROUP             0       ****    0 ROOT    
