@<TRIPOS>MOLECULE
3R8
117   119    1
SMALL
USER_CHARGES


@<TRIPOS>ATOM
      1 CA         15.4194  -31.4887  -47.5515 C.3       0 UNK        -0.2013 
      2 C          15.4231  -29.9999  -47.2380 C.2       0 UNK         0.4866 
      3 O          14.8049  -29.2237  -47.9666 O.2       0 UNK        -0.5176 
      4 N          16.1197  -29.6030  -46.1629 N.am      1 UNK        -0.4884 
      5 CA         16.2441  -28.2243  -45.6599 C.3       1 UNK         0.0853 
      6 C6         14.9182  -27.6463  -45.0962 C.3       10 UNK        -0.0849 
      7 S7         14.3825  -28.5740  -43.6188 S.3       10 UNK        -0.2776 
      8 C8         14.7092  -27.3788  -42.2809 C.3       10 UNK         0.0316 
      9 C9         16.1873  -27.0327  -42.1303 C.ar      10 UNK        -0.0863 
     10 C10        17.0760  -27.9528  -41.5631 C.ar      10 UNK        -0.1009 
     11 C11        18.4174  -27.6107  -41.3594 C.ar      10 UNK        -0.0712 
     12 C12        18.8641  -26.3353  -41.7158 C.ar      10 UNK        -0.0894 
     13 C13        17.9985  -25.4224  -42.3211 C.ar      10 UNK        -0.0745 
     14 C14        16.6595  -25.7742  -42.5201 C.ar      10 UNK        -0.0972 
     15 C15        18.5037  -24.0523  -42.7494 C.3       10 UNK         0.0209 
     16 S16        18.9370  -24.0205  -44.5184 S.3       10 UNK        -0.2568 
     17 C17        20.6578  -24.6418  -44.5427 C.3       10 UNK        -0.0983 
     18 CA         20.7778  -26.1753  -44.7702 C.3       3 UNK         0.0876 
     19 N          20.0108  -26.7028  -45.8999 N.am      3 UNK        -0.4424 
     20 C          19.9639  -26.2889  -47.1741 C.2       2 UNK         0.4918 
     21 O          20.6196  -25.3552  -47.6373 O.2       2 UNK        -0.4875 
     22 CA         18.9829  -27.0523  -48.0915 C.3       2 UNK         0.0481 
     23 CB         19.7476  -28.0011  -49.0284 C.3       2 UNK        -0.1831 
     24 N          17.9886  -27.8229  -47.3321 N.am      2 UNK        -0.4498 
     25 C          16.9575  -27.2861  -46.6596 C.2       1 UNK         0.5027 
     26 O          16.6122  -26.1088  -46.7714 O.2       1 UNK        -0.4969 
     27 C          22.2430  -26.6549  -44.7909 C.2       3 UNK         0.5005 
     28 O          22.8030  -26.9364  -45.8534 O.2       3 UNK        -0.5279 
     29 N          22.8305  -26.7503  -43.5923 N.am      4 UNK        -0.4463 
     30 CA         24.1922  -27.2230  -43.3292 C.3       4 UNK         0.0283 
     31 CB         24.3536  -28.7184  -43.6755 C.3       4 UNK        -0.1875 
     32 C          24.5806  -26.9726  -41.8660 C.2       4 UNK         0.4949 
     33 O          25.7568  -26.7391  -41.5939 O.2       4 UNK        -0.5039 
     34 N          23.5993  -27.0398  -40.9495 N.am      5 UNK        -0.4663 
     35 CA         23.6691  -26.7796  -39.4980 C.3       5 UNK         0.0242 
     36 CB         24.1453  -25.3422  -39.2085 C.3       5 UNK        -0.1982 
     37 C          24.4709  -27.8069  -38.6719 C.2       5 UNK         0.5017 
     38 O          24.1774  -27.9778  -37.4878 O.2       5 UNK        -0.5012 
     39 N          25.4387  -28.4847  -39.2992 N.am      6 UNK        -0.4439 
     40 CA         26.1735  -29.6369  -38.7722 C.3       6 UNK         0.0297 
     41 CB         27.3414  -29.9391  -39.7280 C.3       6 UNK        -0.2006 
     42 C          25.2710  -30.8758  -38.6131 C.2       6 UNK         0.4892 
     43 O          24.1396  -30.8835  -39.1017 O.2       6 UNK        -0.5089 
     44 N          25.8060  -31.9305  -37.9802 N.am      7 UNK        -0.4243 
     45 CA         25.1248  -33.2117  -37.7313 C.3       7 UNK         0.0196 
     46 CB         26.0796  -34.1568  -36.9845 C.3       7 UNK        -0.2007 
     47 C          24.5614  -33.9039  -38.9893 C.2       7 UNK         0.5020 
     48 O          23.5565  -34.6089  -38.8929 O.2       7 UNK        -0.5147 
     49 N          25.1783  -33.6479  -40.1522 N.am      8 UNK        -0.4734 
     50 CA         24.7088  -34.0716  -41.4762 C.3       8 UNK         0.0238 
     51 CB         25.7809  -33.7197  -42.5209 C.3       8 UNK        -0.1912 
     52 C          23.3459  -33.4755  -41.8866 C.2       8 UNK         0.5038 
     53 O          22.6861  -34.0468  -42.7555 O.2       8 UNK        -0.5046 
     54 N          22.9450  -32.3594  -41.2611 N.am      9 UNK        -0.4200 
     55 CA         21.6221  -31.7359  -41.4072 C.3       9 UNK         0.0839 
     56 C          20.4723  -32.5144  -40.6987 C.2       9 UNK         0.5513 
     57 N          20.7531  -33.4925  -39.8435 N.am      9 UNK        -0.7519 
     58 O          19.3008  -32.2357  -40.9373 O.2       9 UNK        -0.4960 
     59 C59        21.6692  -30.2445  -40.9708 C.3       10 UNK        -0.0876 
     60 S60        20.6081  -29.1636  -41.9848 S.3       10 UNK        -0.2414 
     61 C61        19.3914  -28.6080  -40.7514 C.3       10 UNK         0.0169 
     62 H62        15.8380  -31.6647  -48.5421 H         1 UNK         0.0903 
     63 H63        16.0029  -32.0605  -46.8302 H         1 UNK         0.0903 
     64 H64        14.3990  -31.8710  -47.5400 H         1 UNK         0.0903 
     65 H65        16.5883  -30.3034  -45.6040 H         1 UNK         0.3096 
     66 H66        16.9378  -28.2804  -44.8184 H         1 UNK         0.1121 
     67 H67        15.0257  -26.5946  -44.8263 H         1 UNK         0.0849 
     68 H68        14.1271  -27.6811  -45.8464 H         1 UNK         0.0849 
     69 H69        14.1166  -26.4787  -42.4529 H         1 UNK         0.0865 
     70 H70        14.3460  -27.7992  -41.3419 H         1 UNK         0.0865 
     71 H71        16.7189  -28.9318  -41.2732 H         1 UNK         0.1346 
     72 H72        19.8959  -26.0634  -41.5433 H         1 UNK         0.1412 
     73 H73        15.9839  -25.0600  -42.9711 H         1 UNK         0.1426 
     74 H74        19.3580  -23.7432  -42.1455 H         1 UNK         0.0716 
     75 H75        17.7252  -23.3092  -42.5701 H         1 UNK         0.0716 
     76 H76        21.1461  -24.3531  -43.6106 H         1 UNK         0.0695 
     77 H77        21.1886  -24.1034  -45.3296 H         1 UNK         0.0695 
     78 H78        20.3235  -26.6662  -43.9118 H         1 UNK         0.0983 
     79 H79        19.4478  -27.5073  -45.6747 H         1 UNK         0.3095 
     80 H80        18.4586  -26.3158  -48.7040 H         1 UNK         0.0454 
     81 H81        20.3003  -28.7603  -48.4738 H         1 UNK         0.0851 
     82 H82        20.4701  -27.4512  -49.6331 H         1 UNK         0.0851 
     83 H83        19.0726  -28.5100  -49.7168 H         1 UNK         0.0851 
     84 H84        18.1630  -28.8123  -47.2251 H         1 UNK         0.2976 
     85 H85        22.3291  -26.4106  -42.7849 H         1 UNK         0.3116 
     86 H86        24.8783  -26.6429  -43.9500 H         1 UNK         0.0646 
     87 H87        23.6004  -29.3339  -43.1852 H         1 UNK         0.0847 
     88 H88        25.3320  -29.0908  -43.3685 H         1 UNK         0.0847 
     89 H89        24.2730  -28.8917  -44.7482 H         1 UNK         0.0847 
     90 H90        22.6981  -27.3697  -41.2633 H         1 UNK         0.3040 
     91 H91        22.6405  -26.8564  -39.1407 H         1 UNK         0.1015 
     92 H92        25.1829  -25.1871  -39.5056 H         1 UNK         0.0786 
     93 H93        24.0796  -25.1186  -38.1428 H         1 UNK         0.0786 
     94 H94        23.5323  -24.6078  -39.7310 H         1 UNK         0.0786 
     95 H95        25.6371  -28.2073  -40.2536 H         1 UNK         0.3172 
     96 H96        26.5711  -29.3723  -37.7905 H         1 UNK         0.0595 
     97 H97        27.9693  -30.7471  -39.3508 H         1 UNK         0.0839 
     98 H98        27.9861  -29.0685  -39.8522 H         1 UNK         0.0839 
     99 H99        26.9875  -30.2346  -40.7168 H         1 UNK         0.0839 
    100 H100       26.7454  -31.8469  -37.6183 H         1 UNK         0.2998 
    101 H101       24.2745  -33.0001  -37.0796 H         1 UNK         0.0822 
    102 H102       25.5937  -35.1083  -36.7632 H         1 UNK         0.0787 
    103 H103       26.9721  -34.3757  -37.5722 H         1 UNK         0.0787 
    104 H104       26.3984  -33.7305  -36.0331 H         1 UNK         0.0787 
    105 H105       25.9971  -33.0580  -40.1292 H         1 UNK         0.3055 
    106 H106       24.5886  -35.1570  -41.4545 H         1 UNK         0.1106 
    107 H107       25.4794  -34.0493  -43.5163 H         1 UNK         0.0828 
    108 H108       25.9559  -32.6443  -42.5737 H         1 UNK         0.0828 
    109 H109       26.7305  -34.2056  -42.2963 H         1 UNK         0.0828 
    110 H110       23.5315  -31.9646  -40.5308 H         1 UNK         0.2931 
    111 H111       21.3925  -31.7653  -42.4743 H         1 UNK         0.0412 
    112 H112       19.9958  -33.9882  -39.4003 H         1 UNK         0.3472 
    113 H113       21.7103  -33.7489  -39.6367 H         1 UNK         0.3472 
    114 H114       22.6814  -29.8546  -41.0789 H         1 UNK         0.0970 
    115 H115       21.4407  -30.1325  -39.9089 H         1 UNK         0.0970 
    116 H116       18.8616  -29.4748  -40.3532 H         1 UNK         0.0612 
    117 H117       19.9088  -28.1419  -39.9115 H         1 UNK         0.0612 
@<TRIPOS>BOND
     1    1    2 1    
     2    1   62 1    
     3    1   63 1    
     4    1   64 1    
     5    2    3 2    
     6    2    4 am   BACKBONE|DICT|INTERRES
     7    4    5 1    
     8    4   65 1    
     9    5    6 1    
    10    5   25 1    
    11    5   66 1    
    12    6    7 1    
    13    6   67 1    
    14    6   68 1    
    15    7    8 1    
    16    8    9 1    
    17    8   69 1    
    18    8   70 1    
    19    9   10 ar   
    20    9   14 ar   
    21   10   11 ar   
    22   10   71 1    
    23   11   12 ar   
    24   11   61 1    
    25   12   13 ar   
    26   12   72 1    
    27   13   14 ar   
    28   13   15 1    
    29   14   73 1    
    30   15   16 1    
    31   15   74 1    
    32   15   75 1    
    33   16   17 1    
    34   17   18 1    
    35   17   76 1    
    36   17   77 1    
    37   18   19 1    
    38   18   27 1    
    39   18   78 1    
    40   19   20 am   BACKBONE|DICT|INTERRES
    41   19   79 1    
    42   20   21 2    
    43   20   22 1    
    44   22   23 1    
    45   22   24 1    
    46   22   80 1    
    47   23   81 1    
    48   23   82 1    
    49   23   83 1    
    50   24   25 am   BACKBONE|DICT|INTERRES
    51   24   84 1    
    52   25   26 2    
    53   27   28 2    
    54   27   29 am   BACKBONE|DICT|INTERRES
    55   29   30 1    
    56   29   85 1    
    57   30   31 1    
    58   30   32 1    
    59   30   86 1    
    60   31   87 1    
    61   31   88 1    
    62   31   89 1    
    63   32   33 2    
    64   32   34 am   BACKBONE|DICT|INTERRES
    65   34   35 1    
    66   34   90 1    
    67   35   36 1    
    68   35   37 1    
    69   35   91 1    
    70   36   92 1    
    71   36   93 1    
    72   36   94 1    
    73   37   38 2    
    74   37   39 am   BACKBONE|DICT|INTERRES
    75   39   40 1    
    76   39   95 1    
    77   40   41 1    
    78   40   42 1    
    79   40   96 1    
    80   41   97 1    
    81   41   98 1    
    82   41   99 1    
    83   42   43 2    
    84   42   44 am   BACKBONE|DICT|INTERRES
    85   44   45 1    
    86   44  100 1    
    87   45   46 1    
    88   45   47 1    
    89   45  101 1    
    90   46  102 1    
    91   46  103 1    
    92   46  104 1    
    93   47   48 2    
    94   47   49 am   BACKBONE|DICT|INTERRES
    95   49   50 1    
    96   49  105 1    
    97   50   51 1    
    98   50   52 1    
    99   50  106 1    
   100   51  107 1    
   101   51  108 1    
   102   51  109 1    
   103   52   53 2    
   104   52   54 am   BACKBONE|DICT|INTERRES
   105   54   55 1    
   106   54  110 1    
   107   55   56 1    
   108   55   59 1    
   109   55  111 1    
   110   56   57 am   BACKBONE|DICT|INTERRES
   111   56   58 2    
   112   57  112 1    
   113   57  113 1    
   114   59   60 1    
   115   59  114 1    
   116   59  115 1    
   117   60   61 1    
   118   61  116 1    
   119   61  117 1    
@<TRIPOS>SUBSTRUCTURE
     1 UNK         1 GROUP             0       ****    0 ROOT    
