@<TRIPOS>MOLECULE
3R8
117   119    1
SMALL
USER_CHARGES


@<TRIPOS>ATOM
      1 CA         13.0634  -25.7095  -46.2108 C.3       0 UNK        -0.2013 
      2 C          14.3846  -25.5448  -45.4744 C.2       0 UNK         0.4866 
      3 O          14.6395  -24.4778  -44.9150 O.2       0 UNK        -0.5176 
      4 N          15.2178  -26.5946  -45.4721 N.am      1 UNK        -0.4884 
      5 CA         16.5480  -26.6609  -44.8523 C.3       1 UNK         0.0853 
      6 C6         16.5188  -26.5846  -43.2982 C.3       10 UNK        -0.0849 
      7 S7         15.6513  -28.0019  -42.5428 S.3       10 UNK        -0.2776 
      8 C8         17.0224  -28.9131  -41.7582 C.3       10 UNK         0.0316 
      9 C9         17.6861  -29.8924  -42.7173 C.ar      10 UNK        -0.0863 
     10 C10        17.3746  -31.2530  -42.6450 C.ar      10 UNK        -0.1009 
     11 C11        17.9983  -32.1694  -43.4940 C.ar      10 UNK        -0.0712 
     12 C12        18.9405  -31.7143  -44.4203 C.ar      10 UNK        -0.0894 
     13 C13        19.2695  -30.3581  -44.5099 C.ar      10 UNK        -0.0745 
     14 C14        18.6285  -29.4508  -43.6526 C.ar      10 UNK        -0.0972 
     15 C15        20.3466  -29.9539  -45.5216 C.3       10 UNK         0.0209 
     16 S16        20.5446  -28.1664  -45.8337 S.3       10 UNK        -0.2568 
     17 C17        21.5960  -27.6583  -44.4319 C.3       10 UNK        -0.0983 
     18 CA         21.9412  -26.1455  -44.4670 C.3       3 UNK         0.0876 
     19 N          20.7342  -25.3178  -44.4443 N.am      3 UNK        -0.4424 
     20 C          20.4018  -24.3876  -45.3462 C.2       2 UNK         0.4918 
     21 O          21.0960  -24.0890  -46.3198 O.2       2 UNK        -0.4875 
     22 CA         19.0455  -23.6910  -45.1096 C.3       2 UNK         0.0481 
     23 CB         18.6122  -22.7819  -46.2797 C.3       2 UNK        -0.1831 
     24 N          17.9907  -24.6526  -44.7562 N.am      2 UNK        -0.4498 
     25 C          17.5160  -25.6551  -45.5165 C.2       1 UNK         0.5027 
     26 O          17.8220  -25.8281  -46.6976 O.2       1 UNK        -0.4969 
     27 C          22.8113  -25.7766  -43.2525 C.2       3 UNK         0.5005 
     28 O          22.2907  -25.2664  -42.2550 O.2       3 UNK        -0.5279 
     29 N          24.1146  -26.0772  -43.3381 N.am      4 UNK        -0.4463 
     30 CA         25.0547  -26.0046  -42.2150 C.3       4 UNK         0.0283 
     31 CB         26.4856  -26.1928  -42.7440 C.3       4 UNK        -0.1875 
     32 C          24.7344  -27.0806  -41.1651 C.2       4 UNK         0.4949 
     33 O          24.2454  -28.1494  -41.5311 O.2       4 UNK        -0.5039 
     34 N          25.0497  -26.8092  -39.8921 N.am      5 UNK        -0.4663 
     35 CA         24.7140  -27.6599  -38.7392 C.3       5 UNK         0.0242 
     36 CB         25.2218  -26.9910  -37.4516 C.3       5 UNK        -0.1982 
     37 C          25.2186  -29.1139  -38.8226 C.2       5 UNK         0.5017 
     38 O          24.5564  -30.0107  -38.3013 O.2       5 UNK        -0.5012 
     39 N          26.3594  -29.3217  -39.4936 N.am      6 UNK        -0.4439 
     40 CA         26.9384  -30.6404  -39.7631 C.3       6 UNK         0.0297 
     41 CB         28.4246  -30.4706  -40.1184 C.3       6 UNK        -0.2006 
     42 C          26.2104  -31.4197  -40.8765 C.2       6 UNK         0.4892 
     43 O          26.3151  -32.6463  -40.9075 O.2       6 UNK        -0.5089 
     44 N          25.5132  -30.7100  -41.7742 N.am      7 UNK        -0.4243 
     45 CA         24.7912  -31.2754  -42.9163 C.3       7 UNK         0.0196 
     46 CB         25.0396  -30.3864  -44.1466 C.3       7 UNK        -0.2007 
     47 C          23.2822  -31.3987  -42.6548 C.2       7 UNK         0.5020 
     48 O          22.6293  -32.2085  -43.3120 O.2       7 UNK        -0.5147 
     49 N          22.7476  -30.6024  -41.7191 N.am      8 UNK        -0.4734 
     50 CA         21.3241  -30.4491  -41.3966 C.3       8 UNK         0.0238 
     51 CB         21.1373  -29.1326  -40.6169 C.3       8 UNK        -0.1912 
     52 C          20.6571  -31.6507  -40.6887 C.2       8 UNK         0.5038 
     53 O          19.8265  -31.4436  -39.8012 O.2       8 UNK        -0.5046 
     54 N          21.0116  -32.8757  -41.0956 N.am      9 UNK        -0.4200 
     55 CA         20.5005  -34.1591  -40.5886 C.3       9 UNK         0.0839 
     56 C          20.7042  -34.3417  -39.0510 C.2       9 UNK         0.5513 
     57 N          19.8559  -35.0945  -38.3614 N.am      9 UNK        -0.7519 
     58 O          21.6780  -33.8556  -38.4790 O.2       9 UNK        -0.4960 
     59 C59        19.0610  -34.4563  -41.1064 C.3       10 UNK        -0.0876 
     60 S60        19.0305  -34.6935  -42.9170 S.3       10 UNK        -0.2414 
     61 C61        17.6343  -33.6464  -43.4363 C.3       10 UNK         0.0169 
     62 H62        12.9848  -24.9723  -47.0094 H         1 UNK         0.0903 
     63 H63        12.9621  -26.7005  -46.6529 H         1 UNK         0.0903 
     64 H64        12.2307  -25.5585  -45.5244 H         1 UNK         0.0903 
     65 H65        14.9445  -27.4307  -45.9699 H         1 UNK         0.3096 
     66 H66        16.9455  -27.6416  -45.1192 H         1 UNK         0.1121 
     67 H67        16.0234  -25.6729  -42.9609 H         1 UNK         0.0849 
     68 H68        17.5306  -26.5427  -42.8930 H         1 UNK         0.0849 
     69 H69        17.7618  -28.2225  -41.3506 H         1 UNK         0.0865 
     70 H70        16.6243  -29.4520  -40.8969 H         1 UNK         0.0865 
     71 H71        16.6457  -31.5996  -41.9251 H         1 UNK         0.1346 
     72 H72        19.4289  -32.4280  -45.0701 H         1 UNK         0.1412 
     73 H73        18.8671  -28.3998  -43.6915 H         1 UNK         0.1426 
     74 H74        20.1138  -30.4241  -46.4781 H         1 UNK         0.0716 
     75 H75        21.3046  -30.3684  -45.2037 H         1 UNK         0.0716 
     76 H76        22.5067  -28.2591  -44.4606 H         1 UNK         0.0695 
     77 H77        21.0929  -27.9178  -43.5002 H         1 UNK         0.0695 
     78 H78        22.5197  -25.9394  -45.3704 H         1 UNK         0.0983 
     79 H79        20.1524  -25.4312  -43.6281 H         1 UNK         0.3095 
     80 H80        19.1800  -23.0523  -44.2354 H         1 UNK         0.0454 
     81 H81        17.6510  -22.3089  -46.0796 H         1 UNK         0.0851 
     82 H82        18.5261  -23.3332  -47.2163 H         1 UNK         0.0851 
     83 H83        19.3384  -21.9846  -46.4414 H         1 UNK         0.0851 
     84 H84        17.6267  -24.5655  -43.8179 H         1 UNK         0.2976 
     85 H85        24.4572  -26.5191  -44.1787 H         1 UNK         0.3116 
     86 H86        24.9705  -25.0188  -41.7526 H         1 UNK         0.0646 
     87 H87        26.6213  -27.1715  -43.2068 H         1 UNK         0.0847 
     88 H88        27.2161  -26.1103  -41.9380 H         1 UNK         0.0847 
     89 H89        26.7386  -25.4335  -43.4842 H         1 UNK         0.0847 
     90 H90        25.4717  -25.9156  -39.6811 H         1 UNK         0.3040 
     91 H91        23.6241  -27.7101  -38.6881 H         1 UNK         0.1015 
     92 H92        26.3058  -26.8703  -37.4598 H         1 UNK         0.0786 
     93 H93        24.9669  -27.5874  -36.5741 H         1 UNK         0.0786 
     94 H94        24.7741  -26.0070  -37.3111 H         1 UNK         0.0786 
     95 H95        26.8353  -28.5194  -39.8804 H         1 UNK         0.3172 
     96 H96        26.8751  -31.2370  -38.8504 H         1 UNK         0.0595 
     97 H97        28.5598  -29.8752  -41.0224 H         1 UNK         0.0839 
     98 H98        28.8967  -31.4385  -40.2936 H         1 UNK         0.0839 
     99 H99        28.9743  -29.9870  -39.3106 H         1 UNK         0.0839 
    100 H100       25.4132  -29.7093  -41.6395 H         1 UNK         0.2998 
    101 H101       25.1674  -32.2760  -43.1404 H         1 UNK         0.0822 
    102 H102       26.0998  -30.3456  -44.3969 H         1 UNK         0.0787 
    103 H103       24.5145  -30.7724  -45.0216 H         1 UNK         0.0787 
    104 H104       24.6952  -29.3648  -43.9831 H         1 UNK         0.0787 
    105 H105       23.3660  -29.9248  -41.2873 H         1 UNK         0.3055 
    106 H106       20.8040  -30.3444  -42.3450 H         1 UNK         0.1106 
    107 H107       20.0812  -28.9203  -40.4472 H         1 UNK         0.0828 
    108 H108       21.6244  -29.1759  -39.6422 H         1 UNK         0.0828 
    109 H109       21.5491  -28.2813  -41.1583 H         1 UNK         0.0828 
    110 H110       21.6725  -32.9295  -41.8645 H         1 UNK         0.2931 
    111 H111       21.1587  -34.9116  -41.0244 H         1 UNK         0.0412 
    112 H112       19.0619  -35.5317  -38.8008 H         1 UNK         0.3472 
    113 H113       20.0137  -35.2245  -37.3740 H         1 UNK         0.3472 
    114 H114       18.3756  -33.6597  -40.8126 H         1 UNK         0.0970 
    115 H115       18.6647  -35.3766  -40.6770 H         1 UNK         0.0970 
    116 H116       16.7850  -33.8199  -42.7736 H         1 UNK         0.0612 
    117 H117       17.3146  -33.9646  -44.4295 H         1 UNK         0.0612 
@<TRIPOS>BOND
     1    1    2 1    
     2    1   62 1    
     3    1   63 1    
     4    1   64 1    
     5    2    3 2    
     6    2    4 am   BACKBONE|DICT|INTERRES
     7    4    5 1    
     8    4   65 1    
     9    5    6 1    
    10    5   25 1    
    11    5   66 1    
    12    6    7 1    
    13    6   67 1    
    14    6   68 1    
    15    7    8 1    
    16    8    9 1    
    17    8   69 1    
    18    8   70 1    
    19    9   10 ar   
    20    9   14 ar   
    21   10   11 ar   
    22   10   71 1    
    23   11   12 ar   
    24   11   61 1    
    25   12   13 ar   
    26   12   72 1    
    27   13   14 ar   
    28   13   15 1    
    29   14   73 1    
    30   15   16 1    
    31   15   74 1    
    32   15   75 1    
    33   16   17 1    
    34   17   18 1    
    35   17   76 1    
    36   17   77 1    
    37   18   19 1    
    38   18   27 1    
    39   18   78 1    
    40   19   20 am   BACKBONE|DICT|INTERRES
    41   19   79 1    
    42   20   21 2    
    43   20   22 1    
    44   22   23 1    
    45   22   24 1    
    46   22   80 1    
    47   23   81 1    
    48   23   82 1    
    49   23   83 1    
    50   24   25 am   BACKBONE|DICT|INTERRES
    51   24   84 1    
    52   25   26 2    
    53   27   28 2    
    54   27   29 am   BACKBONE|DICT|INTERRES
    55   29   30 1    
    56   29   85 1    
    57   30   31 1    
    58   30   32 1    
    59   30   86 1    
    60   31   87 1    
    61   31   88 1    
    62   31   89 1    
    63   32   33 2    
    64   32   34 am   BACKBONE|DICT|INTERRES
    65   34   35 1    
    66   34   90 1    
    67   35   36 1    
    68   35   37 1    
    69   35   91 1    
    70   36   92 1    
    71   36   93 1    
    72   36   94 1    
    73   37   38 2    
    74   37   39 am   BACKBONE|DICT|INTERRES
    75   39   40 1    
    76   39   95 1    
    77   40   41 1    
    78   40   42 1    
    79   40   96 1    
    80   41   97 1    
    81   41   98 1    
    82   41   99 1    
    83   42   43 2    
    84   42   44 am   BACKBONE|DICT|INTERRES
    85   44   45 1    
    86   44  100 1    
    87   45   46 1    
    88   45   47 1    
    89   45  101 1    
    90   46  102 1    
    91   46  103 1    
    92   46  104 1    
    93   47   48 2    
    94   47   49 am   BACKBONE|DICT|INTERRES
    95   49   50 1    
    96   49  105 1    
    97   50   51 1    
    98   50   52 1    
    99   50  106 1    
   100   51  107 1    
   101   51  108 1    
   102   51  109 1    
   103   52   53 2    
   104   52   54 am   BACKBONE|DICT|INTERRES
   105   54   55 1    
   106   54  110 1    
   107   55   56 1    
   108   55   59 1    
   109   55  111 1    
   110   56   57 am   BACKBONE|DICT|INTERRES
   111   56   58 2    
   112   57  112 1    
   113   57  113 1    
   114   59   60 1    
   115   59  114 1    
   116   59  115 1    
   117   60   61 1    
   118   61  116 1    
   119   61  117 1    
@<TRIPOS>SUBSTRUCTURE
     1 UNK         1 GROUP             0       ****    0 ROOT    
