@<TRIPOS>MOLECULE
3R8
117   119    1
SMALL
USER_CHARGES


@<TRIPOS>ATOM
      1 CA         14.3043  -21.7150  -45.3096 C.3       0 UNK        -0.2013 
      2 C          15.5645  -22.4539  -45.7352 C.2       0 UNK         0.4866 
      3 O          16.5368  -21.8195  -46.1465 O.2       0 UNK        -0.5176 
      4 N          15.5536  -23.7901  -45.6479 N.am      1 UNK        -0.4884 
      5 CA         16.7017  -24.6525  -45.9452 C.3       1 UNK         0.0853 
      6 C6         16.2508  -26.1159  -46.1805 C.3       10 UNK        -0.0849 
      7 S7         17.4533  -27.0678  -47.1702 S.3       10 UNK        -0.2776 
      8 C8         16.7173  -28.7321  -47.1285 C.3       10 UNK         0.0316 
      9 C9         17.1177  -29.5063  -45.8796 C.ar      10 UNK        -0.0863 
     10 C10        18.2438  -30.3363  -45.8990 C.ar      10 UNK        -0.1009 
     11 C11        18.5930  -31.0974  -44.7776 C.ar      10 UNK        -0.0712 
     12 C12        17.8019  -31.0108  -43.6273 C.ar      10 UNK        -0.0894 
     13 C13        16.6938  -30.1605  -43.5824 C.ar      10 UNK        -0.0745 
     14 C14        16.3470  -29.4223  -44.7167 C.ar      10 UNK        -0.0972 
     15 C15        15.8768  -30.0376  -42.3037 C.3       10 UNK         0.0209 
     16 S16        16.8783  -29.4275  -40.9076 S.3       10 UNK        -0.2568 
     17 C17        17.4099  -27.7856  -41.5056 C.3       10 UNK        -0.0983 
     18 CA         18.8506  -27.7813  -42.0816 C.3       3 UNK         0.0876 
     19 N          19.1178  -26.5352  -42.8009 N.am      3 UNK        -0.4424 
     20 C          20.2115  -26.2315  -43.5118 C.2       2 UNK         0.4918 
     21 O          21.1974  -26.9655  -43.6038 O.2       2 UNK        -0.4875 
     22 CA         20.1727  -24.8860  -44.2697 C.3       2 UNK         0.0481 
     23 CB         21.4500  -24.6266  -45.0898 C.3       2 UNK        -0.1831 
     24 N          19.0241  -24.8083  -45.1761 N.am      2 UNK        -0.4498 
     25 C          17.7555  -24.5703  -44.8209 C.2       1 UNK         0.5027 
     26 O          17.4039  -24.3582  -43.6561 O.2       1 UNK        -0.4969 
     27 C          19.9250  -28.0546  -41.0085 C.2       3 UNK         0.5005 
     28 O          19.9277  -27.3945  -39.9667 O.2       3 UNK        -0.5279 
     29 N          20.8304  -28.9973  -41.3135 N.am      4 UNK        -0.4463 
     30 CA         21.9767  -29.4343  -40.5080 C.3       4 UNK         0.0283 
     31 CB         21.4997  -30.2153  -39.2663 C.3       4 UNK        -0.1875 
     32 C          22.9669  -28.3035  -40.1534 C.2       4 UNK         0.4949 
     33 O          23.6205  -28.3705  -39.1107 O.2       4 UNK        -0.5039 
     34 N          23.0722  -27.2827  -41.0200 N.am      5 UNK        -0.4663 
     35 CA         23.8570  -26.0616  -40.7849 C.3       5 UNK         0.0242 
     36 CB         23.5577  -25.0453  -41.8954 C.3       5 UNK        -0.1982 
     37 C          25.3752  -26.2839  -40.6628 C.2       5 UNK         0.5017 
     38 O          26.0470  -25.4939  -39.9988 O.2       5 UNK        -0.5012 
     39 N          25.8769  -27.3556  -41.2854 N.am      6 UNK        -0.4439 
     40 CA         27.2563  -27.8330  -41.1840 C.3       6 UNK         0.0297 
     41 CB         27.9636  -27.6329  -42.5379 C.3       6 UNK        -0.2006 
     42 C          27.2606  -29.2992  -40.7170 C.2       6 UNK         0.4892 
     43 O          28.0749  -30.0906  -41.1960 O.2       6 UNK        -0.5089 
     44 N          26.3278  -29.6324  -39.8098 N.am      7 UNK        -0.4243 
     45 CA         25.9733  -30.9797  -39.3513 C.3       7 UNK         0.0196 
     46 CB         27.1583  -31.6603  -38.6272 C.3       7 UNK        -0.2007 
     47 C          25.3624  -31.8221  -40.4907 C.2       7 UNK         0.5020 
     48 O          24.8215  -31.2549  -41.4427 O.2       7 UNK        -0.5147 
     49 N          25.4312  -33.1538  -40.3590 N.am      8 UNK        -0.4734 
     50 CA         24.8241  -34.1570  -41.2435 C.3       8 UNK         0.0238 
     51 CB         25.4444  -34.1019  -42.6602 C.3       8 UNK        -0.1912 
     52 C          23.2816  -34.0879  -41.2180 C.2       8 UNK         0.5038 
     53 O          22.7129  -33.8162  -40.1577 O.2       8 UNK        -0.5046 
     54 N          22.6379  -34.3827  -42.3563 N.am      9 UNK        -0.4200 
     55 CA         21.1768  -34.4901  -42.5305 C.3       9 UNK         0.0839 
     56 C          20.5207  -35.6786  -41.7594 C.2       9 UNK         0.5513 
     57 N          21.2715  -36.6940  -41.3484 N.am      9 UNK        -0.7519 
     58 O          19.3091  -35.7040  -41.5577 O.2       9 UNK        -0.4960 
     59 C59        20.4225  -33.1441  -42.3177 C.3       10 UNK        -0.0876 
     60 S60        20.9701  -31.8261  -43.4595 S.3       10 UNK        -0.2414 
     61 C61        19.7971  -32.0349  -44.8426 C.3       10 UNK         0.0169 
     62 H62        13.5208  -22.3984  -44.9829 H         1 UNK         0.0903 
     63 H63        14.5277  -21.0371  -44.4862 H         1 UNK         0.0903 
     64 H64        13.9157  -21.1263  -46.1402 H         1 UNK         0.0903 
     65 H65        14.7404  -24.2540  -45.2683 H         1 UNK         0.3096 
     66 H66        17.1558  -24.2752  -46.8650 H         1 UNK         0.1121 
     67 H67        16.0568  -26.6217  -45.2338 H         1 UNK         0.0849 
     68 H68        15.3077  -26.1317  -46.7299 H         1 UNK         0.0849 
     69 H69        15.6309  -28.6623  -47.2030 H         1 UNK         0.0865 
     70 H70        17.0412  -29.2769  -48.0168 H         1 UNK         0.0865 
     71 H71        18.8392  -30.4029  -46.7997 H         1 UNK         0.1346 
     72 H72        18.0515  -31.5831  -42.7475 H         1 UNK         0.1412 
     73 H73        15.4738  -28.7854  -44.6949 H         1 UNK         0.1426 
     74 H74        15.4693  -31.0161  -42.0461 H         1 UNK         0.0716 
     75 H75        15.0216  -29.3747  -42.4449 H         1 UNK         0.0716 
     76 H76        17.3187  -27.0712  -40.6853 H         1 UNK         0.0695 
     77 H77        16.7025  -27.4513  -42.2664 H         1 UNK         0.0695 
     78 H78        18.9115  -28.5719  -42.8310 H         1 UNK         0.0983 
     79 H79        18.3742  -25.8447  -42.7927 H         1 UNK         0.3095 
     80 H80        20.0876  -24.0931  -43.5238 H         1 UNK         0.0454 
     81 H81        21.6135  -25.4013  -45.8401 H         1 UNK         0.0851 
     82 H82        22.3315  -24.6019  -44.4517 H         1 UNK         0.0851 
     83 H83        21.4037  -23.6665  -45.6038 H         1 UNK         0.0851 
     84 H84        19.2086  -25.0451  -46.1411 H         1 UNK         0.2976 
     85 H85        20.7573  -29.4442  -42.2187 H         1 UNK         0.3116 
     86 H86        22.5259  -30.1314  -41.1397 H         1 UNK         0.0646 
     87 H87        20.9907  -29.5664  -38.5529 H         1 UNK         0.0847 
     88 H88        22.3409  -30.6769  -38.7479 H         1 UNK         0.0847 
     89 H89        20.8148  -31.0173  -39.5402 H         1 UNK         0.0847 
     90 H90        22.5001  -27.3039  -41.8572 H         1 UNK         0.3040 
     91 H91        23.5216  -25.6375  -39.8358 H         1 UNK         0.1015 
     92 H92        23.8440  -25.4323  -42.8738 H         1 UNK         0.0786 
     93 H93        24.1080  -24.1166  -41.7372 H         1 UNK         0.0786 
     94 H94        22.4985  -24.7902  -41.9237 H         1 UNK         0.0786 
     95 H95        25.2337  -27.9536  -41.7873 H         1 UNK         0.3172 
     96 H96        27.8028  -27.2673  -40.4267 H         1 UNK         0.0595 
     97 H97        29.0108  -27.9331  -42.4821 H         1 UNK         0.0839 
     98 H98        27.9446  -26.5867  -42.8434 H         1 UNK         0.0839 
     99 H99        27.4953  -28.2219  -43.3275 H         1 UNK         0.0839 
    100 H100       25.6793  -28.9094  -39.5184 H         1 UNK         0.2998 
    101 H101       25.1747  -30.8405  -38.6209 H         1 UNK         0.0822 
    102 H102       26.8335  -32.5413  -38.0729 H         1 UNK         0.0787 
    103 H103       27.9353  -31.9772  -39.3238 H         1 UNK         0.0787 
    104 H104       27.6170  -30.9858  -37.9040 H         1 UNK         0.0787 
    105 H105       25.8674  -33.5199  -39.5243 H         1 UNK         0.3055 
    106 H106       25.0803  -35.1271  -40.8144 H         1 UNK         0.1106 
    107 H107       25.1682  -34.9759  -43.2511 H         1 UNK         0.0828 
    108 H108       25.1301  -33.2151  -43.2121 H         1 UNK         0.0828 
    109 H109       26.5333  -34.0889  -42.6108 H         1 UNK         0.0828 
    110 H110       23.1880  -34.5927  -43.1758 H         1 UNK         0.2931 
    111 H111       21.0425  -34.7578  -43.5791 H         1 UNK         0.0412 
    112 H112       20.8368  -37.4624  -40.8614 H         1 UNK         0.3472 
    113 H113       22.2635  -36.7034  -41.5217 H         1 UNK         0.3472 
    114 H114       20.5482  -32.7908  -41.2937 H         1 UNK         0.0970 
    115 H115       19.3513  -33.2947  -42.4472 H         1 UNK         0.0970 
    116 H116       19.4478  -33.0673  -44.8860 H         1 UNK         0.0612 
    117 H117       20.3516  -31.8671  -45.7670 H         1 UNK         0.0612 
@<TRIPOS>BOND
     1    1    2 1    
     2    1   62 1    
     3    1   63 1    
     4    1   64 1    
     5    2    3 2    
     6    2    4 am   BACKBONE|DICT|INTERRES
     7    4    5 1    
     8    4   65 1    
     9    5    6 1    
    10    5   25 1    
    11    5   66 1    
    12    6    7 1    
    13    6   67 1    
    14    6   68 1    
    15    7    8 1    
    16    8    9 1    
    17    8   69 1    
    18    8   70 1    
    19    9   10 ar   
    20    9   14 ar   
    21   10   11 ar   
    22   10   71 1    
    23   11   12 ar   
    24   11   61 1    
    25   12   13 ar   
    26   12   72 1    
    27   13   14 ar   
    28   13   15 1    
    29   14   73 1    
    30   15   16 1    
    31   15   74 1    
    32   15   75 1    
    33   16   17 1    
    34   17   18 1    
    35   17   76 1    
    36   17   77 1    
    37   18   19 1    
    38   18   27 1    
    39   18   78 1    
    40   19   20 am   BACKBONE|DICT|INTERRES
    41   19   79 1    
    42   20   21 2    
    43   20   22 1    
    44   22   23 1    
    45   22   24 1    
    46   22   80 1    
    47   23   81 1    
    48   23   82 1    
    49   23   83 1    
    50   24   25 am   BACKBONE|DICT|INTERRES
    51   24   84 1    
    52   25   26 2    
    53   27   28 2    
    54   27   29 am   BACKBONE|DICT|INTERRES
    55   29   30 1    
    56   29   85 1    
    57   30   31 1    
    58   30   32 1    
    59   30   86 1    
    60   31   87 1    
    61   31   88 1    
    62   31   89 1    
    63   32   33 2    
    64   32   34 am   BACKBONE|DICT|INTERRES
    65   34   35 1    
    66   34   90 1    
    67   35   36 1    
    68   35   37 1    
    69   35   91 1    
    70   36   92 1    
    71   36   93 1    
    72   36   94 1    
    73   37   38 2    
    74   37   39 am   BACKBONE|DICT|INTERRES
    75   39   40 1    
    76   39   95 1    
    77   40   41 1    
    78   40   42 1    
    79   40   96 1    
    80   41   97 1    
    81   41   98 1    
    82   41   99 1    
    83   42   43 2    
    84   42   44 am   BACKBONE|DICT|INTERRES
    85   44   45 1    
    86   44  100 1    
    87   45   46 1    
    88   45   47 1    
    89   45  101 1    
    90   46  102 1    
    91   46  103 1    
    92   46  104 1    
    93   47   48 2    
    94   47   49 am   BACKBONE|DICT|INTERRES
    95   49   50 1    
    96   49  105 1    
    97   50   51 1    
    98   50   52 1    
    99   50  106 1    
   100   51  107 1    
   101   51  108 1    
   102   51  109 1    
   103   52   53 2    
   104   52   54 am   BACKBONE|DICT|INTERRES
   105   54   55 1    
   106   54  110 1    
   107   55   56 1    
   108   55   59 1    
   109   55  111 1    
   110   56   57 am   BACKBONE|DICT|INTERRES
   111   56   58 2    
   112   57  112 1    
   113   57  113 1    
   114   59   60 1    
   115   59  114 1    
   116   59  115 1    
   117   60   61 1    
   118   61  116 1    
   119   61  117 1    
@<TRIPOS>SUBSTRUCTURE
     1 UNK         1 GROUP             0       ****    0 ROOT    
