@<TRIPOS>MOLECULE
3R8
117   119    1
SMALL
USER_CHARGES


@<TRIPOS>ATOM
      1 CA         20.6502  -25.2872  -38.6896 C.3       0 UNK        -0.2013 
      2 C          19.6794  -25.3334  -39.8604 C.2       0 UNK         0.4866 
      3 O          18.8342  -24.4468  -39.9890 O.2       0 UNK        -0.5176 
      4 N          19.7914  -26.3592  -40.7119 N.am      1 UNK        -0.4884 
      5 CA         19.0107  -26.5241  -41.9431 C.3       1 UNK         0.0853 
      6 C6         19.1864  -27.9454  -42.5332 C.3       10 UNK        -0.0849 
      7 S7         18.4309  -29.2365  -41.4903 S.3       10 UNK        -0.2776 
      8 C8         17.6318  -30.2944  -42.7446 C.3       10 UNK         0.0316 
      9 C9         18.6456  -30.8994  -43.7076 C.ar      10 UNK        -0.0863 
     10 C10        19.5441  -31.8653  -43.2527 C.ar      10 UNK        -0.1009 
     11 C11        20.4962  -32.4206  -44.1100 C.ar      10 UNK        -0.0712 
     12 C12        20.5497  -31.9952  -45.4407 C.ar      10 UNK        -0.0894 
     13 C13        19.6568  -31.0266  -45.9147 C.ar      10 UNK        -0.0745 
     14 C14        18.6966  -30.4942  -45.0451 C.ar      10 UNK        -0.0972 
     15 C15        19.7313  -30.5741  -47.3707 C.3       10 UNK         0.0209 
     16 S16        19.7173  -28.7606  -47.5771 S.3       10 UNK        -0.2568 
     17 C17        21.2332  -28.2701  -46.6872 C.3       10 UNK        -0.0983 
     18 CA         21.3988  -26.7284  -46.6116 C.3       3 UNK         0.0876 
     19 N          20.2434  -26.1023  -45.9677 N.am      3 UNK        -0.4424 
     20 C          19.8822  -24.8150  -46.0380 C.2       2 UNK         0.4918 
     21 O          20.4524  -23.9838  -46.7459 O.2       2 UNK        -0.4875 
     22 CA         18.7138  -24.3708  -45.1342 C.3       2 UNK         0.0481 
     23 CB         17.4147  -24.2801  -45.9499 C.3       2 UNK        -0.1831 
     24 N          18.4952  -25.2386  -43.9672 N.am      2 UNK        -0.4498 
     25 C          19.3993  -25.4721  -43.0028 C.2       1 UNK         0.5027 
     26 O          20.5178  -24.9531  -42.9856 O.2       1 UNK        -0.4969 
     27 C          22.7095  -26.3140  -45.9011 C.2       3 UNK         0.5005 
     28 O          23.3716  -27.1528  -45.2896 O.2       3 UNK        -0.5279 
     29 N          23.0480  -25.0184  -45.9787 N.am      4 UNK        -0.4463 
     30 CA         24.2811  -24.3824  -45.4951 C.3       4 UNK         0.0283 
     31 CB         25.4827  -24.8326  -46.3538 C.3       4 UNK        -0.1875 
     32 C          24.5383  -24.5485  -43.9816 C.2       4 UNK         0.4949 
     33 O          25.6855  -24.7444  -43.5769 O.2       4 UNK        -0.5039 
     34 N          23.4712  -24.4524  -43.1732 N.am      5 UNK        -0.4663 
     35 CA         23.4644  -24.5442  -41.7047 C.3       5 UNK         0.0242 
     36 CB         24.2730  -23.3929  -41.0671 C.3       5 UNK        -0.1982 
     37 C          23.8631  -25.9324  -41.1651 C.2       5 UNK         0.5017 
     38 O          24.3837  -26.0256  -40.0515 O.2       5 UNK        -0.5012 
     39 N          23.6040  -26.9866  -41.9520 N.am      6 UNK        -0.4439 
     40 CA         23.8110  -28.3870  -41.5758 C.3       6 UNK         0.0297 
     41 CB         23.5652  -29.2788  -42.8051 C.3       6 UNK        -0.2006 
     42 C          22.9023  -28.8335  -40.4172 C.2       6 UNK         0.4892 
     43 O          21.8247  -28.2666  -40.2201 O.2       6 UNK        -0.5089 
     44 N          23.3424  -29.8783  -39.7044 N.am      7 UNK        -0.4243 
     45 CA         22.5367  -30.6164  -38.7282 C.3       7 UNK         0.0196 
     46 CB         23.4630  -31.5392  -37.9175 C.3       7 UNK        -0.2007 
     47 C          21.4310  -31.4317  -39.4232 C.2       7 UNK         0.5020 
     48 O          21.5116  -31.6659  -40.6275 O.2       7 UNK        -0.5147 
     49 N          20.4357  -31.8790  -38.6465 N.am      8 UNK        -0.4734 
     50 CA         19.2250  -32.5594  -39.1300 C.3       8 UNK         0.0238 
     51 CB         18.2631  -32.7636  -37.9475 C.3       8 UNK        -0.1912 
     52 C          19.4431  -33.8910  -39.8796 C.2       8 UNK         0.5038 
     53 O          18.5381  -34.3016  -40.6056 O.2       8 UNK        -0.5046 
     54 N          20.6067  -34.5292  -39.6788 N.am      9 UNK        -0.4200 
     55 CA         21.0891  -35.7748  -40.3109 C.3       9 UNK         0.0839 
     56 C          20.1539  -37.0219  -40.2291 C.2       9 UNK         0.5513 
     57 N          19.2090  -37.0750  -39.2983 N.am      9 UNK        -0.7519 
     58 O          20.3158  -37.9800  -40.9812 O.2       9 UNK        -0.4960 
     59 C59        21.7617  -35.5573  -41.7033 C.3       10 UNK        -0.0876 
     60 S60        20.6637  -34.9848  -43.0508 S.3       10 UNK        -0.2414 
     61 C61        21.4875  -33.4438  -43.5735 C.3       10 UNK         0.0169 
     62 H62        21.3596  -26.1140  -38.7137 H         1 UNK         0.0903 
     63 H63        21.2177  -24.3573  -38.7098 H         1 UNK         0.0903 
     64 H64        20.1054  -25.3353  -37.7473 H         1 UNK         0.0903 
     65 H65        20.5053  -27.0702  -40.5487 H         1 UNK         0.3096 
     66 H66        17.9583  -26.3695  -41.6947 H         1 UNK         0.1121 
     67 H67        20.2437  -28.1841  -42.6667 H         1 UNK         0.0849 
     68 H68        18.7366  -28.0072  -43.5252 H         1 UNK         0.0849 
     69 H69        17.0952  -31.0984  -42.2386 H         1 UNK         0.0865 
     70 H70        16.8787  -29.7156  -43.2816 H         1 UNK         0.0865 
     71 H71        19.5134  -32.1784  -42.2197 H         1 UNK         0.1346 
     72 H72        21.2923  -32.4142  -46.1059 H         1 UNK         0.1412 
     73 H73        18.0005  -29.7510  -45.4091 H         1 UNK         0.1426 
     74 H74        18.8806  -30.9935  -47.9091 H         1 UNK         0.0716 
     75 H75        20.6265  -30.9688  -47.8538 H         1 UNK         0.0716 
     76 H76        22.0869  -28.7229  -47.1950 H         1 UNK         0.0695 
     77 H77        21.2056  -28.7005  -45.6840 H         1 UNK         0.0695 
     78 H78        21.4621  -26.3533  -47.6356 H         1 UNK         0.0983 
     79 H79        19.7039  -26.7072  -45.3697 H         1 UNK         0.3095 
     80 H80        18.9539  -23.3731  -44.7612 H         1 UNK         0.0454 
     81 H81        17.1086  -25.2542  -46.3335 H         1 UNK         0.0851 
     82 H82        17.5383  -23.6175  -46.8079 H         1 UNK         0.0851 
     83 H83        16.5957  -23.8802  -45.3520 H         1 UNK         0.0851 
     84 H84        17.5973  -25.6991  -43.9160 H         1 UNK         0.2976 
     85 H85        22.3796  -24.4013  -46.4322 H         1 UNK         0.3116 
     86 H86        24.1494  -23.3115  -45.6563 H         1 UNK         0.0646 
     87 H87        25.2969  -24.6695  -47.4153 H         1 UNK         0.0847 
     88 H88        25.7061  -25.8904  -46.2105 H         1 UNK         0.0847 
     89 H89        26.3824  -24.2725  -46.0960 H         1 UNK         0.0847 
     90 H90        22.5535  -24.3486  -43.5922 H         1 UNK         0.3040 
     91 H91        22.4284  -24.4049  -41.3953 H         1 UNK         0.1015 
     92 H92        25.3432  -23.4987  -41.2461 H         1 UNK         0.0786 
     93 H93        24.1279  -23.3656  -39.9864 H         1 UNK         0.0786 
     94 H94        23.9602  -22.4245  -41.4575 H         1 UNK         0.0786 
     95 H95        23.2061  -26.8152  -42.8659 H         1 UNK         0.3172 
     96 H96        24.8510  -28.4992  -41.2628 H         1 UNK         0.0595 
     97 H97        23.6867  -30.3351  -42.5607 H         1 UNK         0.0839 
     98 H98        24.2678  -29.0521  -43.6070 H         1 UNK         0.0839 
     99 H99        22.5549  -29.1556  -43.1982 H         1 UNK         0.0839 
    100 H100       24.2214  -30.2999  -39.9654 H         1 UNK         0.2998 
    101 H101       22.0657  -29.8975  -38.0542 H         1 UNK         0.0822 
    102 H102       24.2478  -30.9718  -37.4167 H         1 UNK         0.0787 
    103 H103       22.9105  -32.0730  -37.1433 H         1 UNK         0.0787 
    104 H104       23.9420  -32.2874  -38.5508 H         1 UNK         0.0787 
    105 H105       20.4627  -31.6632  -37.6598 H         1 UNK         0.3055 
    106 H106       18.7453  -31.8838  -39.8417 H         1 UNK         0.1106 
    107 H107       17.9905  -31.8134  -37.4878 H         1 UNK         0.0828 
    108 H108       18.7002  -33.3990  -37.1763 H         1 UNK         0.0828 
    109 H109       17.3360  -33.2377  -38.2734 H         1 UNK         0.0828 
    110 H110       21.2562  -34.0934  -39.0417 H         1 UNK         0.2931 
    111 H111       21.9103  -36.0686  -39.6559 H         1 UNK         0.0412 
    112 H112       18.6181  -37.8895  -39.2392 H         1 UNK         0.3472 
    113 H113       19.0618  -36.2966  -38.6763 H         1 UNK         0.3472 
    114 H114       22.2376  -36.4813  -42.0362 H         1 UNK         0.0970 
    115 H115       22.5851  -34.8526  -41.5845 H         1 UNK         0.0970 
    116 H116       22.0206  -32.9949  -42.7368 H         1 UNK         0.0612 
    117 H117       22.2436  -33.6864  -44.3213 H         1 UNK         0.0612 
@<TRIPOS>BOND
     1    1    2 1    
     2    1   62 1    
     3    1   63 1    
     4    1   64 1    
     5    2    3 2    
     6    2    4 am   BACKBONE|DICT|INTERRES
     7    4    5 1    
     8    4   65 1    
     9    5    6 1    
    10    5   25 1    
    11    5   66 1    
    12    6    7 1    
    13    6   67 1    
    14    6   68 1    
    15    7    8 1    
    16    8    9 1    
    17    8   69 1    
    18    8   70 1    
    19    9   10 ar   
    20    9   14 ar   
    21   10   11 ar   
    22   10   71 1    
    23   11   12 ar   
    24   11   61 1    
    25   12   13 ar   
    26   12   72 1    
    27   13   14 ar   
    28   13   15 1    
    29   14   73 1    
    30   15   16 1    
    31   15   74 1    
    32   15   75 1    
    33   16   17 1    
    34   17   18 1    
    35   17   76 1    
    36   17   77 1    
    37   18   19 1    
    38   18   27 1    
    39   18   78 1    
    40   19   20 am   BACKBONE|DICT|INTERRES
    41   19   79 1    
    42   20   21 2    
    43   20   22 1    
    44   22   23 1    
    45   22   24 1    
    46   22   80 1    
    47   23   81 1    
    48   23   82 1    
    49   23   83 1    
    50   24   25 am   BACKBONE|DICT|INTERRES
    51   24   84 1    
    52   25   26 2    
    53   27   28 2    
    54   27   29 am   BACKBONE|DICT|INTERRES
    55   29   30 1    
    56   29   85 1    
    57   30   31 1    
    58   30   32 1    
    59   30   86 1    
    60   31   87 1    
    61   31   88 1    
    62   31   89 1    
    63   32   33 2    
    64   32   34 am   BACKBONE|DICT|INTERRES
    65   34   35 1    
    66   34   90 1    
    67   35   36 1    
    68   35   37 1    
    69   35   91 1    
    70   36   92 1    
    71   36   93 1    
    72   36   94 1    
    73   37   38 2    
    74   37   39 am   BACKBONE|DICT|INTERRES
    75   39   40 1    
    76   39   95 1    
    77   40   41 1    
    78   40   42 1    
    79   40   96 1    
    80   41   97 1    
    81   41   98 1    
    82   41   99 1    
    83   42   43 2    
    84   42   44 am   BACKBONE|DICT|INTERRES
    85   44   45 1    
    86   44  100 1    
    87   45   46 1    
    88   45   47 1    
    89   45  101 1    
    90   46  102 1    
    91   46  103 1    
    92   46  104 1    
    93   47   48 2    
    94   47   49 am   BACKBONE|DICT|INTERRES
    95   49   50 1    
    96   49  105 1    
    97   50   51 1    
    98   50   52 1    
    99   50  106 1    
   100   51  107 1    
   101   51  108 1    
   102   51  109 1    
   103   52   53 2    
   104   52   54 am   BACKBONE|DICT|INTERRES
   105   54   55 1    
   106   54  110 1    
   107   55   56 1    
   108   55   59 1    
   109   55  111 1    
   110   56   57 am   BACKBONE|DICT|INTERRES
   111   56   58 2    
   112   57  112 1    
   113   57  113 1    
   114   59   60 1    
   115   59  114 1    
   116   59  115 1    
   117   60   61 1    
   118   61  116 1    
   119   61  117 1    
@<TRIPOS>SUBSTRUCTURE
     1 UNK         1 GROUP             0       ****    0 ROOT    
