@<TRIPOS>MOLECULE
3R8
117   119    1
SMALL
USER_CHARGES


@<TRIPOS>ATOM
      1 CA         13.5020  -22.5998  -47.3151 C.3       0 UNK        -0.2013 
      2 C          14.9591  -22.8640  -46.9660 C.2       0 UNK         0.4866 
      3 O          15.8513  -22.2546  -47.5566 O.2       0 UNK        -0.5176 
      4 N          15.2078  -23.7656  -46.0118 N.am      1 UNK        -0.4884 
      5 CA         16.5320  -24.1349  -45.5171 C.3       1 UNK         0.0853 
      6 C6         17.2061  -25.1964  -46.4244 C.3       10 UNK        -0.0849 
      7 S7         19.0087  -25.3187  -46.1698 S.3       10 UNK        -0.2776 
      8 C8         19.3929  -26.8362  -47.1032 C.3       10 UNK         0.0316 
      9 C9         19.4171  -28.0691  -46.2089 C.ar      10 UNK        -0.0863 
     10 C10        20.6328  -28.5537  -45.7169 C.ar      10 UNK        -0.1009 
     11 C11        20.6839  -29.6983  -44.9135 C.ar      10 UNK        -0.0712 
     12 C12        19.4869  -30.3605  -44.6073 C.ar      10 UNK        -0.0894 
     13 C13        18.2606  -29.8673  -45.0639 C.ar      10 UNK        -0.0745 
     14 C14        18.2334  -28.7342  -45.8805 C.ar      10 UNK        -0.0972 
     15 C15        16.9583  -30.5312  -44.6414 C.3       10 UNK         0.0209 
     16 S16        16.1255  -29.5808  -43.3251 S.3       10 UNK        -0.2568 
     17 C17        17.2454  -29.8292  -41.9033 C.3       10 UNK        -0.0983 
     18 CA         18.3038  -28.7025  -41.7613 C.3       3 UNK         0.0876 
     19 N          17.6998  -27.3717  -41.6209 N.am      3 UNK        -0.4424 
     20 C          18.2937  -26.2256  -41.9730 C.2       2 UNK         0.4918 
     21 O          19.4624  -26.1514  -42.3619 O.2       2 UNK        -0.4875 
     22 CA         17.4562  -24.9473  -41.8801 C.3       2 UNK         0.0481 
     23 CB         18.1174  -23.9237  -40.9422 C.3       2 UNK        -0.1831 
     24 N          17.3582  -24.3871  -43.2247 N.am      2 UNK        -0.4498 
     25 C          16.3560  -24.6366  -44.0747 C.2       1 UNK         0.5027 
     26 O          15.3270  -25.2470  -43.7686 O.2       1 UNK        -0.4969 
     27 C          19.3567  -28.9997  -40.6694 C.2       3 UNK         0.5005 
     28 O          19.2754  -30.0196  -39.9846 O.2       3 UNK        -0.5279 
     29 N          20.3360  -28.1002  -40.5408 N.am      4 UNK        -0.4463 
     30 CA         21.5033  -28.1958  -39.6653 C.3       4 UNK         0.0283 
     31 CB         21.1581  -27.6328  -38.2735 C.3       4 UNK        -0.1875 
     32 C          22.7206  -27.4932  -40.2962 C.2       4 UNK         0.4949 
     33 O          23.6778  -27.1831  -39.5874 O.2       4 UNK        -0.5039 
     34 N          22.6701  -27.2410  -41.6144 N.am      5 UNK        -0.4663 
     35 CA         23.7053  -26.5399  -42.3842 C.3       5 UNK         0.0242 
     36 CB         23.1044  -26.1049  -43.7307 C.3       5 UNK        -0.1982 
     37 C          24.9914  -27.3597  -42.6077 C.2       5 UNK         0.5017 
     38 O          26.0075  -26.7874  -43.0035 O.2       5 UNK        -0.5012 
     39 N          24.9275  -28.6700  -42.3546 N.am      6 UNK        -0.4439 
     40 CA         26.0402  -29.6100  -42.3644 C.3       6 UNK         0.0297 
     41 CB         26.0500  -30.3843  -43.6931 C.3       6 UNK        -0.2006 
     42 C          25.8382  -30.5577  -41.1795 C.2       6 UNK         0.4892 
     43 O          24.6930  -30.8002  -40.7909 O.2       6 UNK        -0.5089 
     44 N          26.9414  -31.0991  -40.6472 N.am      7 UNK        -0.4243 
     45 CA         26.9615  -31.9815  -39.4721 C.3       7 UNK         0.0196 
     46 CB         28.4206  -32.2495  -39.0684 C.3       7 UNK        -0.2007 
     47 C          26.2024  -33.3097  -39.6528 C.2       7 UNK         0.5020 
     48 O          25.7695  -33.8965  -38.6610 O.2       7 UNK        -0.5147 
     49 N          26.0495  -33.7579  -40.9057 N.am      8 UNK        -0.4734 
     50 CA         25.2695  -34.9411  -41.2745 C.3       8 UNK         0.0238 
     51 CB         25.6932  -35.3981  -42.6804 C.3       8 UNK        -0.1912 
     52 C          23.7469  -34.7122  -41.2244 C.2       8 UNK         0.5038 
     53 O          23.0048  -35.6920  -41.1394 O.2       8 UNK        -0.5046 
     54 N          23.3057  -33.4501  -41.3030 N.am      9 UNK        -0.4200 
     55 CA         21.8906  -33.0608  -41.2881 C.3       9 UNK         0.0839 
     56 C          21.3566  -32.9710  -39.8359 C.2       9 UNK         0.5513 
     57 N          20.1660  -33.4955  -39.5798 N.am      9 UNK        -0.7519 
     58 O          21.9969  -32.4097  -38.9499 O.2       9 UNK        -0.4960 
     59 C59        21.6533  -31.7380  -42.0605 C.3       10 UNK        -0.0876 
     60 S60        22.1488  -31.8821  -43.8136 S.3       10 UNK        -0.2414 
     61 C61        22.0482  -30.1519  -44.3860 C.3       10 UNK         0.0169 
     62 H62        12.8229  -23.2097  -46.7195 H         1 UNK         0.0903 
     63 H63        13.2583  -21.5521  -47.1409 H         1 UNK         0.0903 
     64 H64        13.3222  -22.8214  -48.3668 H         1 UNK         0.0903 
     65 H65        14.4498  -24.2227  -45.5177 H         1 UNK         0.3096 
     66 H66        17.1485  -23.2328  -45.4920 H         1 UNK         0.1121 
     67 H67        17.0549  -24.9371  -47.4735 H         1 UNK         0.0849 
     68 H68        16.7377  -26.1719  -46.2897 H         1 UNK         0.0849 
     69 H69        18.6763  -26.9733  -47.9146 H         1 UNK         0.0865 
     70 H70        20.3637  -26.7082  -47.5845 H         1 UNK         0.0865 
     71 H71        21.5482  -28.0360  -45.9676 H         1 UNK         0.1346 
     72 H72        19.4898  -31.2427  -43.9857 H         1 UNK         0.1412 
     73 H73        17.2850  -28.3646  -46.2430 H         1 UNK         0.1426 
     74 H74        17.1305  -31.5545  -44.3041 H         1 UNK         0.0716 
     75 H75        16.2914  -30.6018  -45.5019 H         1 UNK         0.0716 
     76 H76        17.7274  -30.8029  -42.0104 H         1 UNK         0.0695 
     77 H77        16.6375  -29.8920  -40.9992 H         1 UNK         0.0695 
     78 H78        18.8720  -28.6808  -42.6898 H         1 UNK         0.0983 
     79 H79        16.7398  -27.3524  -41.3085 H         1 UNK         0.3095 
     80 H80        16.4651  -25.1819  -41.4857 H         1 UNK         0.0454 
     81 H81        19.1184  -23.6486  -41.2773 H         1 UNK         0.0851 
     82 H82        18.2112  -24.3251  -39.9323 H         1 UNK         0.0851 
     83 H83        17.5258  -23.0107  -40.8741 H         1 UNK         0.0851 
     84 H84        18.1967  -23.9486  -43.5805 H         1 UNK         0.2976 
     85 H85        20.2700  -27.2643  -41.1194 H         1 UNK         0.3116 
     86 H86        21.7797  -29.2470  -39.5558 H         1 UNK         0.0646 
     87 H87        20.8969  -26.5752  -38.3225 H         1 UNK         0.0847 
     88 H88        22.0006  -27.7319  -37.5881 H         1 UNK         0.0847 
     89 H89        20.3185  -28.1659  -37.8272 H         1 UNK         0.0847 
     90 H90        21.8512  -27.5246  -42.1318 H         1 UNK         0.3040 
     91 H91        23.9896  -25.6428  -41.8295 H         1 UNK         0.1015 
     92 H92        22.8374  -26.9636  -44.3455 H         1 UNK         0.0786 
     93 H93        23.8155  -25.5057  -44.3010 H         1 UNK         0.0786 
     94 H94        22.2083  -25.4986  -43.5926 H         1 UNK         0.0786 
     95 H95        24.0818  -29.0414  -41.9423 H         1 UNK         0.3172 
     96 H96        26.9855  -29.0783  -42.2359 H         1 UNK         0.0595 
     97 H97        25.1344  -30.9606  -43.8322 H         1 UNK         0.0839 
     98 H98        26.8862  -31.0833  -43.7345 H         1 UNK         0.0839 
     99 H99        26.1506  -29.7091  -44.5430 H         1 UNK         0.0839 
    100 H100       27.8392  -30.8562  -41.0420 H         1 UNK         0.2998 
    101 H101       26.4735  -31.4463  -38.6545 H         1 UNK         0.0822 
    102 H102       28.9458  -31.3231  -38.8350 H         1 UNK         0.0787 
    103 H103       28.4707  -32.8797  -38.1791 H         1 UNK         0.0787 
    104 H104       28.9712  -32.7595  -39.8600 H         1 UNK         0.0787 
    105 H105       26.4519  -33.2189  -41.6585 H         1 UNK         0.3055 
    106 H106       25.4998  -35.7429  -40.5689 H         1 UNK         0.1106 
    107 H107       25.1550  -36.2998  -42.9762 H         1 UNK         0.0828 
    108 H108       25.4873  -34.6355  -43.4327 H         1 UNK         0.0828 
    109 H109       26.7573  -35.6319  -42.7191 H         1 UNK         0.0828 
    110 H110       23.9703  -32.6861  -41.2765 H         1 UNK         0.2931 
    111 H111       21.3229  -33.8367  -41.8071 H         1 UNK         0.0412 
    112 H112       19.6303  -33.9531  -40.3008 H         1 UNK         0.3472 
    113 H113       19.7928  -33.4265  -38.6459 H         1 UNK         0.3472 
    114 H114       20.5989  -31.4647  -42.0168 H         1 UNK         0.0970 
    115 H115       22.1994  -30.9173  -41.5938 H         1 UNK         0.0970 
    116 H116       22.3573  -29.4860  -43.5808 H         1 UNK         0.0612 
    117 H117       22.7884  -30.0333  -45.1789 H         1 UNK         0.0612 
@<TRIPOS>BOND
     1    1    2 1    
     2    1   62 1    
     3    1   63 1    
     4    1   64 1    
     5    2    3 2    
     6    2    4 am   BACKBONE|DICT|INTERRES
     7    4    5 1    
     8    4   65 1    
     9    5    6 1    
    10    5   25 1    
    11    5   66 1    
    12    6    7 1    
    13    6   67 1    
    14    6   68 1    
    15    7    8 1    
    16    8    9 1    
    17    8   69 1    
    18    8   70 1    
    19    9   10 ar   
    20    9   14 ar   
    21   10   11 ar   
    22   10   71 1    
    23   11   12 ar   
    24   11   61 1    
    25   12   13 ar   
    26   12   72 1    
    27   13   14 ar   
    28   13   15 1    
    29   14   73 1    
    30   15   16 1    
    31   15   74 1    
    32   15   75 1    
    33   16   17 1    
    34   17   18 1    
    35   17   76 1    
    36   17   77 1    
    37   18   19 1    
    38   18   27 1    
    39   18   78 1    
    40   19   20 am   BACKBONE|DICT|INTERRES
    41   19   79 1    
    42   20   21 2    
    43   20   22 1    
    44   22   23 1    
    45   22   24 1    
    46   22   80 1    
    47   23   81 1    
    48   23   82 1    
    49   23   83 1    
    50   24   25 am   BACKBONE|DICT|INTERRES
    51   24   84 1    
    52   25   26 2    
    53   27   28 2    
    54   27   29 am   BACKBONE|DICT|INTERRES
    55   29   30 1    
    56   29   85 1    
    57   30   31 1    
    58   30   32 1    
    59   30   86 1    
    60   31   87 1    
    61   31   88 1    
    62   31   89 1    
    63   32   33 2    
    64   32   34 am   BACKBONE|DICT|INTERRES
    65   34   35 1    
    66   34   90 1    
    67   35   36 1    
    68   35   37 1    
    69   35   91 1    
    70   36   92 1    
    71   36   93 1    
    72   36   94 1    
    73   37   38 2    
    74   37   39 am   BACKBONE|DICT|INTERRES
    75   39   40 1    
    76   39   95 1    
    77   40   41 1    
    78   40   42 1    
    79   40   96 1    
    80   41   97 1    
    81   41   98 1    
    82   41   99 1    
    83   42   43 2    
    84   42   44 am   BACKBONE|DICT|INTERRES
    85   44   45 1    
    86   44  100 1    
    87   45   46 1    
    88   45   47 1    
    89   45  101 1    
    90   46  102 1    
    91   46  103 1    
    92   46  104 1    
    93   47   48 2    
    94   47   49 am   BACKBONE|DICT|INTERRES
    95   49   50 1    
    96   49  105 1    
    97   50   51 1    
    98   50   52 1    
    99   50  106 1    
   100   51  107 1    
   101   51  108 1    
   102   51  109 1    
   103   52   53 2    
   104   52   54 am   BACKBONE|DICT|INTERRES
   105   54   55 1    
   106   54  110 1    
   107   55   56 1    
   108   55   59 1    
   109   55  111 1    
   110   56   57 am   BACKBONE|DICT|INTERRES
   111   56   58 2    
   112   57  112 1    
   113   57  113 1    
   114   59   60 1    
   115   59  114 1    
   116   59  115 1    
   117   60   61 1    
   118   61  116 1    
   119   61  117 1    
@<TRIPOS>SUBSTRUCTURE
     1 UNK         1 GROUP             0       ****    0 ROOT    
