@<TRIPOS>MOLECULE
3R8
117   119    1
SMALL
USER_CHARGES


@<TRIPOS>ATOM
      1 CA         18.2418  -24.7623  -41.0491 C.3       0 UNK        -0.2013 
      2 C          18.2652  -25.1175  -42.5280 C.2       0 UNK         0.4866 
      3 O          19.3228  -25.4747  -43.0539 O.2       0 UNK        -0.5176 
      4 N          17.1097  -25.0238  -43.2040 N.am      1 UNK        -0.4884 
      5 CA         16.9268  -25.2389  -44.6484 C.3       1 UNK         0.0853 
      6 C6         17.1194  -26.7245  -45.0734 C.3       10 UNK        -0.0849 
      7 S7         15.9223  -27.8486  -44.2760 S.3       10 UNK        -0.2776 
      8 C8         16.0510  -29.3348  -45.3269 C.3       10 UNK         0.0316 
      9 C9         17.3392  -30.1104  -45.0776 C.ar      10 UNK        -0.0863 
     10 C10        17.3472  -31.2205  -44.2280 C.ar      10 UNK        -0.1009 
     11 C11        18.5253  -31.9437  -44.0119 C.ar      10 UNK        -0.0712 
     12 C12        19.7054  -31.5321  -44.6411 C.ar      10 UNK        -0.0894 
     13 C13        19.7185  -30.4240  -45.4964 C.ar      10 UNK        -0.0745 
     14 C14        18.5202  -29.7332  -45.7215 C.ar      10 UNK        -0.0972 
     15 C15        21.0379  -30.0339  -46.1710 C.3       10 UNK         0.0209 
     16 S16        21.0558  -28.3802  -46.9574 S.3       10 UNK        -0.2568 
     17 C17        22.5977  -27.6394  -46.3071 C.3       10 UNK        -0.0983 
     18 CA         22.3951  -26.7362  -45.0499 C.3       3 UNK         0.0876 
     19 N          21.3490  -25.7157  -45.2234 N.am      3 UNK        -0.4424 
     20 C          21.3741  -24.7711  -46.1789 C.2       2 UNK         0.4918 
     21 O          22.3580  -24.5480  -46.8861 O.2       2 UNK        -0.4875 
     22 CA         20.0823  -23.9652  -46.4209 C.3       2 UNK         0.0481 
     23 CB         19.9167  -23.5308  -47.8901 C.3       2 UNK        -0.1831 
     24 N          18.9199  -24.7444  -46.0014 N.am      2 UNK        -0.4498 
     25 C          17.8285  -24.2427  -45.4132 C.2       1 UNK         0.5027 
     26 O          17.5577  -23.0403  -45.3812 O.2       1 UNK        -0.4969 
     27 C          22.2036  -27.6326  -43.8099 C.2       3 UNK         0.5005 
     28 O          23.1655  -28.2975  -43.4238 O.2       3 UNK        -0.5279 
     29 N          21.0010  -27.6963  -43.2181 N.am      4 UNK        -0.4463 
     30 CA         20.6169  -28.7166  -42.2342 C.3       4 UNK         0.0283 
     31 CB         19.1138  -28.6049  -41.9428 C.3       4 UNK        -0.1875 
     32 C          21.4283  -28.6755  -40.9307 C.2       4 UNK         0.4949 
     33 O          21.6767  -29.7273  -40.3404 O.2       4 UNK        -0.5039 
     34 N          21.8557  -27.4717  -40.5284 N.am      5 UNK        -0.4663 
     35 CA         22.7286  -27.2494  -39.3742 C.3       5 UNK         0.0242 
     36 CB         22.6932  -25.7609  -38.9929 C.3       5 UNK        -0.1982 
     37 C          24.1766  -27.7112  -39.6186 C.2       5 UNK         0.5017 
     38 O          24.8298  -28.1572  -38.6756 O.2       5 UNK        -0.5012 
     39 N          24.6470  -27.6079  -40.8701 N.am      6 UNK        -0.4439 
     40 CA         25.9768  -28.0504  -41.2976 C.3       6 UNK         0.0297 
     41 CB         26.4033  -27.2740  -42.5544 C.3       6 UNK        -0.2006 
     42 C          26.0107  -29.5645  -41.5540 C.2       6 UNK         0.4892 
     43 O          26.9902  -30.2191  -41.1965 O.2       6 UNK        -0.5089 
     44 N          24.9291  -30.0929  -42.1435 N.am      7 UNK        -0.4243 
     45 CA         24.7095  -31.5199  -42.3898 C.3       7 UNK         0.0196 
     46 CB         23.5409  -31.6747  -43.3770 C.3       7 UNK        -0.2007 
     47 C          24.4369  -32.3339  -41.1111 C.2       7 UNK         0.5020 
     48 O          24.5516  -33.5589  -41.1541 O.2       7 UNK        -0.5147 
     49 N          24.0695  -31.6488  -40.0167 N.am      8 UNK        -0.4734 
     50 CA         23.6608  -32.1898  -38.7147 C.3       8 UNK         0.0238 
     51 CB         24.8286  -32.9253  -38.0225 C.3       8 UNK        -0.1912 
     52 C          22.3826  -33.0406  -38.8322 C.2       8 UNK         0.5038 
     53 O          22.3429  -34.1775  -38.3570 O.2       8 UNK        -0.5046 
     54 N          21.3733  -32.4652  -39.4977 N.am      9 UNK        -0.4200 
     55 CA         20.0468  -33.0487  -39.7291 C.3       9 UNK         0.0839 
     56 C          19.2949  -33.3675  -38.4055 C.2       9 UNK         0.5513 
     57 N          18.6513  -34.5232  -38.3147 N.am      9 UNK        -0.7519 
     58 O          19.2649  -32.5602  -37.4786 O.2       9 UNK        -0.4960 
     59 C59        19.2191  -32.1144  -40.6471 C.3       10 UNK        -0.0876 
     60 S60        17.8386  -32.9582  -41.4852 S.3       10 UNK        -0.2414 
     61 C61        18.5129  -33.2100  -43.1596 C.3       10 UNK         0.0169 
     62 H62        18.7309  -23.8018  -40.8907 H         1 UNK         0.0903 
     63 H63        17.2247  -24.6963  -40.6637 H         1 UNK         0.0903 
     64 H64        18.7756  -25.5121  -40.4669 H         1 UNK         0.0903 
     65 H65        16.2816  -24.7146  -42.7143 H         1 UNK         0.3096 
     66 H66        15.8996  -24.9551  -44.8841 H         1 UNK         0.1121 
     67 H67        17.0056  -26.8222  -46.1548 H         1 UNK         0.0849 
     68 H68        18.1210  -27.0770  -44.8261 H         1 UNK         0.0849 
     69 H69        15.1897  -29.9746  -45.1285 H         1 UNK         0.0865 
     70 H70        15.9767  -29.0539  -46.3785 H         1 UNK         0.0865 
     71 H71        16.4320  -31.5341  -43.7446 H         1 UNK         0.1346 
     72 H72        20.6177  -32.0906  -44.4819 H         1 UNK         0.1412 
     73 H73        18.4915  -28.8944  -46.4001 H         1 UNK         0.1426 
     74 H74        21.2752  -30.7780  -46.9322 H         1 UNK         0.0716 
     75 H75        21.8348  -30.0903  -45.4297 H         1 UNK         0.0716 
     76 H76        23.3352  -28.4234  -46.1226 H         1 UNK         0.0695 
     77 H77        23.0314  -27.0491  -47.1146 H         1 UNK         0.0695 
     78 H78        23.3289  -26.1980  -44.8739 H         1 UNK         0.0983 
     79 H79        20.5746  -25.7228  -44.5684 H         1 UNK         0.3095 
     80 H80        20.1618  -23.0704  -45.8001 H         1 UNK         0.0454 
     81 H81        20.7481  -22.9023  -48.2117 H         1 UNK         0.0851 
     82 H82        19.8774  -24.3908  -48.5594 H         1 UNK         0.0851 
     83 H83        19.0041  -22.9522  -48.0329 H         1 UNK         0.0851 
     84 H84        19.0504  -25.7458  -46.0073 H         1 UNK         0.2976 
     85 H85        20.2745  -27.0310  -43.4583 H         1 UNK         0.3116 
     86 H86        20.7960  -29.6881  -42.6964 H         1 UNK         0.0646 
     87 H87        18.7628  -29.4359  -41.3369 H         1 UNK         0.0847 
     88 H88        18.5280  -28.6153  -42.8607 H         1 UNK         0.0847 
     89 H89        18.8728  -27.6957  -41.3966 H         1 UNK         0.0847 
     90 H90        21.5940  -26.6647  -41.0767 H         1 UNK         0.3040 
     91 H91        22.3379  -27.8279  -38.5335 H         1 UNK         0.1015 
     92 H92        21.6814  -25.4388  -38.7457 H         1 UNK         0.0786 
     93 H93        23.0604  -25.1263  -39.8005 H         1 UNK         0.0786 
     94 H94        23.3158  -25.5679  -38.1180 H         1 UNK         0.0786 
     95 H95        24.0132  -27.3080  -41.5989 H         1 UNK         0.3172 
     96 H96        26.6945  -27.8265  -40.5052 H         1 UNK         0.0595 
     97 H97        27.4067  -27.5653  -42.8678 H         1 UNK         0.0839 
     98 H98        26.4221  -26.1998  -42.3697 H         1 UNK         0.0839 
     99 H99        25.7350  -27.4583  -43.3961 H         1 UNK         0.0839 
    100 H100       24.2047  -29.4588  -42.4773 H         1 UNK         0.2998 
    101 H101       25.6105  -31.9281  -42.8524 H         1 UNK         0.0822 
    102 H102       22.6152  -31.2700  -42.9669 H         1 UNK         0.0787 
    103 H103       23.7471  -31.1596  -44.3153 H         1 UNK         0.0787 
    104 H104       23.3629  -32.7243  -43.6148 H         1 UNK         0.0787 
    105 H105       23.9608  -30.6490  -40.1223 H         1 UNK         0.3055 
    106 H106       23.3990  -31.3319  -38.0925 H         1 UNK         0.1106 
    107 H107       25.1174  -33.8299  -38.5582 H         1 UNK         0.0828 
    108 H108       25.7081  -32.2862  -37.9447 H         1 UNK         0.0828 
    109 H109       24.5538  -33.2236  -37.0101 H         1 UNK         0.0828 
    110 H110       21.5031  -31.5105  -39.8238 H         1 UNK         0.2931 
    111 H111       20.2218  -33.9852  -40.2629 H         1 UNK         0.0412 
    112 H112       18.1478  -34.7418  -37.4691 H         1 UNK         0.3472 
    113 H113       18.6530  -35.1780  -39.0816 H         1 UNK         0.3472 
    114 H114       18.8202  -31.2781  -40.0711 H         1 UNK         0.0970 
    115 H115       19.8582  -31.6732  -41.4132 H         1 UNK         0.0970 
    116 H116       19.5128  -33.6392  -43.0772 H         1 UNK         0.0612 
    117 H117       17.9014  -33.9572  -43.6669 H         1 UNK         0.0612 
@<TRIPOS>BOND
     1    1    2 1    
     2    1   62 1    
     3    1   63 1    
     4    1   64 1    
     5    2    3 2    
     6    2    4 am   BACKBONE|DICT|INTERRES
     7    4    5 1    
     8    4   65 1    
     9    5    6 1    
    10    5   25 1    
    11    5   66 1    
    12    6    7 1    
    13    6   67 1    
    14    6   68 1    
    15    7    8 1    
    16    8    9 1    
    17    8   69 1    
    18    8   70 1    
    19    9   10 ar   
    20    9   14 ar   
    21   10   11 ar   
    22   10   71 1    
    23   11   12 ar   
    24   11   61 1    
    25   12   13 ar   
    26   12   72 1    
    27   13   14 ar   
    28   13   15 1    
    29   14   73 1    
    30   15   16 1    
    31   15   74 1    
    32   15   75 1    
    33   16   17 1    
    34   17   18 1    
    35   17   76 1    
    36   17   77 1    
    37   18   19 1    
    38   18   27 1    
    39   18   78 1    
    40   19   20 am   BACKBONE|DICT|INTERRES
    41   19   79 1    
    42   20   21 2    
    43   20   22 1    
    44   22   23 1    
    45   22   24 1    
    46   22   80 1    
    47   23   81 1    
    48   23   82 1    
    49   23   83 1    
    50   24   25 am   BACKBONE|DICT|INTERRES
    51   24   84 1    
    52   25   26 2    
    53   27   28 2    
    54   27   29 am   BACKBONE|DICT|INTERRES
    55   29   30 1    
    56   29   85 1    
    57   30   31 1    
    58   30   32 1    
    59   30   86 1    
    60   31   87 1    
    61   31   88 1    
    62   31   89 1    
    63   32   33 2    
    64   32   34 am   BACKBONE|DICT|INTERRES
    65   34   35 1    
    66   34   90 1    
    67   35   36 1    
    68   35   37 1    
    69   35   91 1    
    70   36   92 1    
    71   36   93 1    
    72   36   94 1    
    73   37   38 2    
    74   37   39 am   BACKBONE|DICT|INTERRES
    75   39   40 1    
    76   39   95 1    
    77   40   41 1    
    78   40   42 1    
    79   40   96 1    
    80   41   97 1    
    81   41   98 1    
    82   41   99 1    
    83   42   43 2    
    84   42   44 am   BACKBONE|DICT|INTERRES
    85   44   45 1    
    86   44  100 1    
    87   45   46 1    
    88   45   47 1    
    89   45  101 1    
    90   46  102 1    
    91   46  103 1    
    92   46  104 1    
    93   47   48 2    
    94   47   49 am   BACKBONE|DICT|INTERRES
    95   49   50 1    
    96   49  105 1    
    97   50   51 1    
    98   50   52 1    
    99   50  106 1    
   100   51  107 1    
   101   51  108 1    
   102   51  109 1    
   103   52   53 2    
   104   52   54 am   BACKBONE|DICT|INTERRES
   105   54   55 1    
   106   54  110 1    
   107   55   56 1    
   108   55   59 1    
   109   55  111 1    
   110   56   57 am   BACKBONE|DICT|INTERRES
   111   56   58 2    
   112   57  112 1    
   113   57  113 1    
   114   59   60 1    
   115   59  114 1    
   116   59  115 1    
   117   60   61 1    
   118   61  116 1    
   119   61  117 1    
@<TRIPOS>SUBSTRUCTURE
     1 UNK         1 GROUP             0       ****    0 ROOT    
