@<TRIPOS>MOLECULE
3R8
117   119    1
SMALL
USER_CHARGES


@<TRIPOS>ATOM
      1 CA         16.5967  -23.7056  -49.8950 C.3       0 UNK        -0.2013 
      2 C          17.0884  -24.4924  -48.6882 C.2       0 UNK         0.4866 
      3 O          17.0198  -23.9807  -47.5716 O.2       0 UNK        -0.5176 
      4 N          17.5782  -25.7185  -48.9278 N.am      1 UNK        -0.4884 
      5 CA         18.1288  -26.6973  -47.9749 C.3       1 UNK         0.0853 
      6 C6         17.0399  -27.4337  -47.1258 C.3       10 UNK        -0.0849 
      7 S7         16.3869  -26.5317  -45.6737 S.3       10 UNK        -0.2776 
      8 C8         15.3065  -27.7791  -44.9040 C.3       10 UNK         0.0316 
      9 C9         15.9331  -28.4011  -43.6620 C.ar      10 UNK        -0.0863 
     10 C10        16.4227  -29.7119  -43.6886 C.ar      10 UNK        -0.1009 
     11 C11        16.9258  -30.3023  -42.5240 C.ar      10 UNK        -0.0712 
     12 C12        16.9205  -29.5789  -41.3286 C.ar      10 UNK        -0.0894 
     13 C13        16.5020  -28.2456  -41.3025 C.ar      10 UNK        -0.0745 
     14 C14        15.9922  -27.6688  -42.4702 C.ar      10 UNK        -0.0972 
     15 C15        16.6101  -27.4276  -40.0190 C.3       10 UNK         0.0209 
     16 S16        18.2690  -27.5143  -39.2519 S.3       10 UNK        -0.2568 
     17 C17        19.3301  -26.6929  -40.4924 C.3       10 UNK        -0.0983 
     18 CA         19.9876  -27.6811  -41.4924 C.3       3 UNK         0.0876 
     19 N          20.3786  -26.9931  -42.7229 N.am      3 UNK        -0.4424 
     20 C          20.3173  -27.5501  -43.9350 C.2       2 UNK         0.4918 
     21 O          19.9422  -28.7046  -44.1519 O.2       2 UNK        -0.4875 
     22 CA         20.7095  -26.6705  -45.1237 C.3       2 UNK         0.0481 
     23 CB         22.1371  -26.9736  -45.6096 C.3       2 UNK        -0.1831 
     24 N          19.7340  -26.9741  -46.1587 N.am      2 UNK        -0.4498 
     25 C          19.3509  -26.1901  -47.1679 C.2       1 UNK         0.5027 
     26 O          19.9335  -25.1473  -47.4784 O.2       1 UNK        -0.4969 
     27 C          21.1845  -28.4448  -40.8927 C.2       3 UNK         0.5005 
     28 O          22.3390  -28.1529  -41.2178 O.2       3 UNK        -0.5279 
     29 N          20.8906  -29.3948  -39.9945 N.am      4 UNK        -0.4463 
     30 CA         21.8528  -30.2754  -39.3211 C.3       4 UNK         0.0283 
     31 CB         21.0909  -31.2730  -38.4361 C.3       4 UNK        -0.1875 
     32 C          22.9345  -29.5414  -38.5072 C.2       4 UNK         0.4949 
     33 O          24.0158  -30.0938  -38.3095 O.2       4 UNK        -0.5039 
     34 N          22.6600  -28.2913  -38.1078 N.am      5 UNK        -0.4663 
     35 CA         23.6235  -27.3628  -37.5076 C.3       5 UNK         0.0242 
     36 CB         22.8835  -26.0879  -37.0721 C.3       5 UNK        -0.1982 
     37 C          24.8072  -27.0087  -38.4320 C.2       5 UNK         0.5017 
     38 O          25.8769  -26.6694  -37.9262 O.2       5 UNK        -0.5012 
     39 N          24.6119  -27.1210  -39.7547 N.am      6 UNK        -0.4439 
     40 CA         25.6461  -26.9619  -40.7808 C.3       6 UNK         0.0297 
     41 CB         25.0275  -26.2535  -42.0006 C.3       6 UNK        -0.2006 
     42 C          26.2843  -28.3082  -41.1844 C.2       6 UNK         0.4892 
     43 O          26.9950  -28.3491  -42.1893 O.2       6 UNK        -0.5089 
     44 N          26.0128  -29.3809  -40.4212 N.am      7 UNK        -0.4243 
     45 CA         26.4229  -30.7742  -40.6484 C.3       7 UNK         0.0196 
     46 CB         27.9596  -30.9241  -40.6231 C.3       7 UNK        -0.2007 
     47 C          25.7726  -31.4081  -41.8952 C.2       7 UNK         0.5020 
     48 O          26.3376  -32.3351  -42.4785 O.2       7 UNK        -0.5147 
     49 N          24.5911  -30.9063  -42.2750 N.am      8 UNK        -0.4734 
     50 CA         23.7641  -31.4230  -43.3654 C.3       8 UNK         0.0238 
     51 CB         23.0311  -30.2318  -44.0089 C.3       8 UNK        -0.1912 
     52 C          22.7836  -32.5006  -42.8582 C.2       8 UNK         0.5038 
     53 O          22.9093  -32.9718  -41.7250 O.2       8 UNK        -0.5046 
     54 N          21.8151  -32.8596  -43.7119 N.am      9 UNK        -0.4200 
     55 CA         20.7030  -33.7922  -43.4386 C.3       9 UNK         0.0839 
     56 C          21.1132  -35.2944  -43.3748 C.2       9 UNK         0.5513 
     57 N          22.3107  -35.6736  -43.8048 N.am      9 UNK        -0.7519 
     58 O          20.3227  -36.1384  -42.9599 O.2       9 UNK        -0.4960 
     59 C59        19.8100  -33.3727  -42.2309 C.3       10 UNK        -0.0876 
     60 S60        19.3154  -31.6173  -42.2740 S.3       10 UNK        -0.2414 
     61 C61        17.5192  -31.7031  -42.5467 C.3       10 UNK         0.0169 
     62 H62        16.7003  -24.2682  -50.8227 H         1 UNK         0.0903 
     63 H63        15.5449  -23.4485  -49.7714 H         1 UNK         0.0903 
     64 H64        17.1637  -22.7804  -49.9953 H         1 UNK         0.0903 
     65 H65        17.6163  -26.0230  -49.8910 H         1 UNK         0.3096 
     66 H66        18.5596  -27.4614  -48.6246 H         1 UNK         0.1121 
     67 H67        16.1969  -27.6930  -47.7682 H         1 UNK         0.0849 
     68 H68        17.4305  -28.3903  -46.7736 H         1 UNK         0.0849 
     69 H69        14.3687  -27.2976  -44.6227 H         1 UNK         0.0865 
     70 H70        15.0383  -28.5472  -45.6310 H         1 UNK         0.0865 
     71 H71        16.4110  -30.2728  -44.6130 H         1 UNK         0.1346 
     72 H72        17.3086  -30.0369  -40.4292 H         1 UNK         0.1412 
     73 H73        15.6395  -26.6463  -42.4568 H         1 UNK         0.1426 
     74 H74        15.8746  -27.8008  -39.3053 H         1 UNK         0.0716 
     75 H75        16.3598  -26.3812  -40.2007 H         1 UNK         0.0716 
     76 H76        18.7078  -25.9755  -41.0305 H         1 UNK         0.0695 
     77 H77        20.0853  -26.0977  -39.9753 H         1 UNK         0.0695 
     78 H78        19.2485  -28.4339  -41.7631 H         1 UNK         0.0983 
     79 H79        20.7505  -26.0606  -42.6200 H         1 UNK         0.3095 
     80 H80        20.6267  -25.6185  -44.8423 H         1 UNK         0.0454 
     81 H81        22.8642  -26.8033  -44.8147 H         1 UNK         0.0851 
     82 H82        22.4150  -26.3343  -46.4474 H         1 UNK         0.0851 
     83 H83        22.2397  -28.0101  -45.9320 H         1 UNK         0.0851 
     84 H84        19.2065  -27.8161  -45.9592 H         1 UNK         0.2976 
     85 H85        19.9172  -29.5397  -39.7648 H         1 UNK         0.3116 
     86 H86        22.3691  -30.8393  -40.0996 H         1 UNK         0.0646 
     87 H87        21.7791  -31.9616  -37.9436 H         1 UNK         0.0847 
     88 H88        20.5194  -30.7682  -37.6563 H         1 UNK         0.0847 
     89 H89        20.4003  -31.8773  -39.0249 H         1 UNK         0.0847 
     90 H90        21.7409  -27.9248  -38.3090 H         1 UNK         0.3040 
     91 H91        24.0395  -27.8432  -36.6191 H         1 UNK         0.1015 
     92 H92        23.5667  -25.3834  -36.5954 H         1 UNK         0.0786 
     93 H93        22.0972  -26.3113  -36.3506 H         1 UNK         0.0786 
     94 H94        22.4269  -25.5761  -37.9204 H         1 UNK         0.0786 
     95 H95        23.7039  -27.4311  -40.0961 H         1 UNK         0.3172 
     96 H96        26.4484  -26.3281  -40.3981 H         1 UNK         0.0595 
     97 H97        24.2792  -26.8752  -42.4932 H         1 UNK         0.0839 
     98 H98        25.7895  -26.0150  -42.7436 H         1 UNK         0.0839 
     99 H99        24.5508  -25.3152  -41.7169 H         1 UNK         0.0839 
    100 H100       25.4070  -29.2504  -39.6183 H         1 UNK         0.2998 
    101 H101       26.0314  -31.3373  -39.7998 H         1 UNK         0.0822 
    102 H102       28.2488  -31.9757  -40.6188 H         1 UNK         0.0787 
    103 H103       28.3884  -30.4684  -39.7306 H         1 UNK         0.0787 
    104 H104       28.4279  -30.4650  -41.4941 H         1 UNK         0.0787 
    105 H105       24.1881  -30.1623  -41.7236 H         1 UNK         0.3055 
    106 H106       24.4047  -31.8851  -44.1199 H         1 UNK         0.1106 
    107 H107       22.2682  -29.8305  -43.3426 H         1 UNK         0.0828 
    108 H108       23.7209  -29.4228  -44.2503 H         1 UNK         0.0828 
    109 H109       22.5354  -30.5140  -44.9379 H         1 UNK         0.0828 
    110 H110       21.7943  -32.4285  -44.6240 H         1 UNK         0.2931 
    111 H111       20.0712  -33.7253  -44.3249 H         1 UNK         0.0412 
    112 H112       22.5626  -36.6492  -43.7700 H         1 UNK         0.3472 
    113 H113       22.9671  -34.9941  -44.1541 H         1 UNK         0.3472 
    114 H114       18.9135  -33.9935  -42.1882 H         1 UNK         0.0970 
    115 H115       20.3363  -33.5478  -41.2913 H         1 UNK         0.0970 
    116 H116       17.3207  -32.1986  -43.4982 H         1 UNK         0.0612 
    117 H117       17.0567  -32.3091  -41.7664 H         1 UNK         0.0612 
@<TRIPOS>BOND
     1    1    2 1    
     2    1   62 1    
     3    1   63 1    
     4    1   64 1    
     5    2    3 2    
     6    2    4 am   BACKBONE|DICT|INTERRES
     7    4    5 1    
     8    4   65 1    
     9    5    6 1    
    10    5   25 1    
    11    5   66 1    
    12    6    7 1    
    13    6   67 1    
    14    6   68 1    
    15    7    8 1    
    16    8    9 1    
    17    8   69 1    
    18    8   70 1    
    19    9   10 ar   
    20    9   14 ar   
    21   10   11 ar   
    22   10   71 1    
    23   11   12 ar   
    24   11   61 1    
    25   12   13 ar   
    26   12   72 1    
    27   13   14 ar   
    28   13   15 1    
    29   14   73 1    
    30   15   16 1    
    31   15   74 1    
    32   15   75 1    
    33   16   17 1    
    34   17   18 1    
    35   17   76 1    
    36   17   77 1    
    37   18   19 1    
    38   18   27 1    
    39   18   78 1    
    40   19   20 am   BACKBONE|DICT|INTERRES
    41   19   79 1    
    42   20   21 2    
    43   20   22 1    
    44   22   23 1    
    45   22   24 1    
    46   22   80 1    
    47   23   81 1    
    48   23   82 1    
    49   23   83 1    
    50   24   25 am   BACKBONE|DICT|INTERRES
    51   24   84 1    
    52   25   26 2    
    53   27   28 2    
    54   27   29 am   BACKBONE|DICT|INTERRES
    55   29   30 1    
    56   29   85 1    
    57   30   31 1    
    58   30   32 1    
    59   30   86 1    
    60   31   87 1    
    61   31   88 1    
    62   31   89 1    
    63   32   33 2    
    64   32   34 am   BACKBONE|DICT|INTERRES
    65   34   35 1    
    66   34   90 1    
    67   35   36 1    
    68   35   37 1    
    69   35   91 1    
    70   36   92 1    
    71   36   93 1    
    72   36   94 1    
    73   37   38 2    
    74   37   39 am   BACKBONE|DICT|INTERRES
    75   39   40 1    
    76   39   95 1    
    77   40   41 1    
    78   40   42 1    
    79   40   96 1    
    80   41   97 1    
    81   41   98 1    
    82   41   99 1    
    83   42   43 2    
    84   42   44 am   BACKBONE|DICT|INTERRES
    85   44   45 1    
    86   44  100 1    
    87   45   46 1    
    88   45   47 1    
    89   45  101 1    
    90   46  102 1    
    91   46  103 1    
    92   46  104 1    
    93   47   48 2    
    94   47   49 am   BACKBONE|DICT|INTERRES
    95   49   50 1    
    96   49  105 1    
    97   50   51 1    
    98   50   52 1    
    99   50  106 1    
   100   51  107 1    
   101   51  108 1    
   102   51  109 1    
   103   52   53 2    
   104   52   54 am   BACKBONE|DICT|INTERRES
   105   54   55 1    
   106   54  110 1    
   107   55   56 1    
   108   55   59 1    
   109   55  111 1    
   110   56   57 am   BACKBONE|DICT|INTERRES
   111   56   58 2    
   112   57  112 1    
   113   57  113 1    
   114   59   60 1    
   115   59  114 1    
   116   59  115 1    
   117   60   61 1    
   118   61  116 1    
   119   61  117 1    
@<TRIPOS>SUBSTRUCTURE
     1 UNK         1 GROUP             0       ****    0 ROOT    
