@<TRIPOS>MOLECULE
3R8
117   119    1
SMALL
USER_CHARGES


@<TRIPOS>ATOM
      1 CA         15.6559  -23.3210  -44.6559 C.3       0 UNK        -0.2013 
      2 C          16.3579  -23.6933  -43.3533 C.2       0 UNK         0.4866 
      3 O          15.9698  -23.1975  -42.2971 O.2       0 UNK        -0.5176 
      4 N          17.3898  -24.5447  -43.3656 N.am      1 UNK        -0.4884 
      5 CA         18.0312  -25.1647  -44.5272 C.3       1 UNK         0.0853 
      6 C6         17.6946  -26.6731  -44.6518 C.3       10 UNK        -0.0849 
      7 S7         15.9260  -27.0683  -44.8932 S.3       10 UNK        -0.2776 
      8 C8         15.6253  -28.3959  -43.6592 C.3       10 UNK         0.0316 
      9 C9         16.7051  -29.4797  -43.6121 C.ar      10 UNK        -0.0863 
     10 C10        17.0997  -30.0169  -42.3812 C.ar      10 UNK        -0.1009 
     11 C11        18.1774  -30.9057  -42.3025 C.ar      10 UNK        -0.0712 
     12 C12        18.8507  -31.2763  -43.4695 C.ar      10 UNK        -0.0894 
     13 C13        18.4387  -30.7806  -44.7074 C.ar      10 UNK        -0.0745 
     14 C14        17.3510  -29.9085  -44.7758 C.ar      10 UNK        -0.0972 
     15 C15        19.1904  -31.1367  -45.9754 C.3       10 UNK         0.0209 
     16 S16        20.2295  -29.7431  -46.5121 S.3       10 UNK        -0.2568 
     17 C17        21.7137  -29.9428  -45.4652 C.3       10 UNK        -0.0983 
     18 CA         22.0686  -28.7385  -44.5474 C.3       3 UNK         0.0876 
     19 N          21.7462  -27.4354  -45.1341 N.am      3 UNK        -0.4424 
     20 C          22.3522  -26.2858  -44.8103 C.2       2 UNK         0.4918 
     21 O          23.2784  -26.2079  -44.0041 O.2       2 UNK        -0.4875 
     22 CA         21.7760  -25.0046  -45.4398 C.3       2 UNK         0.0481 
     23 CB         22.3130  -24.8118  -46.8663 C.3       2 UNK        -0.1831 
     24 N          20.3067  -24.9930  -45.4513 N.am      2 UNK        -0.4498 
     25 C          19.5522  -25.0160  -44.3431 C.2       1 UNK         0.5027 
     26 O          20.0274  -25.0132  -43.2034 O.2       1 UNK        -0.4969 
     27 C          21.5811  -28.8958  -43.0893 C.2       3 UNK         0.5005 
     28 O          22.1195  -29.7513  -42.3875 O.2       3 UNK        -0.5279 
     29 N          20.6506  -28.0485  -42.6170 N.am      4 UNK        -0.4463 
     30 CA         20.3151  -27.9450  -41.1909 C.3       4 UNK         0.0283 
     31 CB         18.9546  -27.2621  -40.9716 C.3       4 UNK        -0.1875 
     32 C          21.4125  -27.1910  -40.4303 C.2       4 UNK         0.4949 
     33 O          21.8524  -27.6626  -39.3831 O.2       4 UNK        -0.5039 
     34 N          21.8629  -26.0583  -40.9917 N.am      5 UNK        -0.4663 
     35 CA         22.9527  -25.2374  -40.4535 C.3       5 UNK         0.0242 
     36 CB         23.0619  -23.9340  -41.2609 C.3       5 UNK        -0.1982 
     37 C          24.3011  -25.9786  -40.4153 C.2       5 UNK         0.5017 
     38 O          25.0381  -25.8443  -39.4384 O.2       5 UNK        -0.5012 
     39 N          24.5764  -26.7770  -41.4563 N.am      6 UNK        -0.4439 
     40 CA         25.7397  -27.6652  -41.5451 C.3       6 UNK         0.0297 
     41 CB         25.9714  -28.0432  -43.0172 C.3       6 UNK        -0.2006 
     42 C          25.6237  -28.9394  -40.6827 C.2       6 UNK         0.4892 
     43 O          26.6284  -29.6351  -40.5292 O.2       6 UNK        -0.5089 
     44 N          24.4221  -29.2317  -40.1576 N.am      7 UNK        -0.4243 
     45 CA         24.0487  -30.4207  -39.3797 C.3       7 UNK         0.0196 
     46 CB         24.7574  -30.4271  -38.0087 C.3       7 UNK        -0.2007 
     47 C          24.2398  -31.7311  -40.1696 C.2       7 UNK         0.5020 
     48 O          24.7556  -32.7141  -39.6354 O.2       7 UNK        -0.5147 
     49 N          23.8078  -31.7201  -41.4349 N.am      8 UNK        -0.4734 
     50 CA         23.8998  -32.8253  -42.3870 C.3       8 UNK         0.0238 
     51 CB         24.5399  -32.2996  -43.6860 C.3       8 UNK        -0.1912 
     52 C          22.5061  -33.4358  -42.6136 C.2       8 UNK         0.5038 
     53 O          22.0730  -33.5845  -43.7577 O.2       8 UNK        -0.5046 
     54 N          21.8210  -33.7602  -41.5095 N.am      9 UNK        -0.4200 
     55 CA         20.4826  -34.3741  -41.4934 C.3       9 UNK         0.0839 
     56 C          20.4752  -35.9179  -41.6970 C.2       9 UNK         0.5513 
     57 N          21.6194  -36.5892  -41.7549 N.am      9 UNK        -0.7519 
     58 O          19.4101  -36.5183  -41.8124 O.2       9 UNK        -0.4960 
     59 C59        19.6781  -33.9342  -40.2323 C.3       10 UNK        -0.0876 
     60 S60        18.0984  -33.1320  -40.6655 S.3       10 UNK        -0.2414 
     61 C61        18.6550  -31.4236  -40.9556 C.3       10 UNK         0.0169 
     62 H62        16.2964  -22.6875  -45.2687 H         1 UNK         0.0903 
     63 H63        15.3828  -24.2056  -45.2289 H         1 UNK         0.0903 
     64 H64        14.7391  -22.7687  -44.4505 H         1 UNK         0.0903 
     65 H65        17.8887  -24.7093  -42.5015 H         1 UNK         0.3096 
     66 H66        17.7558  -24.6509  -45.4493 H         1 UNK         0.1121 
     67 H67        18.0529  -27.2003  -43.7691 H         1 UNK         0.0849 
     68 H68        18.2307  -27.1126  -45.4955 H         1 UNK         0.0849 
     69 H69        14.6640  -28.8649  -43.8718 H         1 UNK         0.0865 
     70 H70        15.5283  -27.9242  -42.6800 H         1 UNK         0.0865 
     71 H71        16.5988  -29.7067  -41.4742 H         1 UNK         0.1346 
     72 H72        19.7062  -31.9347  -43.4114 H         1 UNK         0.1412 
     73 H73        17.0523  -29.5130  -45.7369 H         1 UNK         0.1426 
     74 H74        18.4751  -31.3688  -46.7658 H         1 UNK         0.0716 
     75 H75        19.7981  -32.0331  -45.8398 H         1 UNK         0.0716 
     76 H76        22.5428  -30.1056  -46.1555 H         1 UNK         0.0695 
     77 H77        21.6456  -30.8701  -44.8928 H         1 UNK         0.0695 
     78 H78        23.1556  -28.7650  -44.4581 H         1 UNK         0.0983 
     79 H79        21.0033  -27.4345  -45.8184 H         1 UNK         0.3095 
     80 H80        22.1119  -24.1596  -44.8348 H         1 UNK         0.0454 
     81 H81        21.9901  -25.6100  -47.5358 H         1 UNK         0.0851 
     82 H82        23.4040  -24.8030  -46.8733 H         1 UNK         0.0851 
     83 H83        21.9821  -23.8636  -47.2900 H         1 UNK         0.0851 
     84 H84        19.8597  -25.0033  -46.3576 H         1 UNK         0.2976 
     85 H85        20.2908  -27.3308  -43.2273 H         1 UNK         0.3116 
     86 H86        20.2485  -28.9531  -40.7777 H         1 UNK         0.0646 
     87 H87        18.1633  -27.7343  -41.5457 H         1 UNK         0.0847 
     88 H88        18.9710  -26.2051  -41.2304 H         1 UNK         0.0847 
     89 H89        18.6645  -27.3237  -39.9220 H         1 UNK         0.0847 
     90 H90        21.4153  -25.7243  -41.8390 H         1 UNK         0.3040 
     91 H91        22.6935  -24.9801  -39.4240 H         1 UNK         0.1015 
     92 H92        23.8404  -23.2875  -40.8538 H         1 UNK         0.0786 
     93 H93        22.1276  -23.3727  -41.2350 H         1 UNK         0.0786 
     94 H94        23.3083  -24.1223  -42.3061 H         1 UNK         0.0786 
     95 H95        23.9550  -26.7459  -42.2603 H         1 UNK         0.3172 
     96 H96        26.6154  -27.1134  -41.1969 H         1 UNK         0.0595 
     97 H97        25.1737  -28.6797  -43.3979 H         1 UNK         0.0839 
     98 H98        26.9052  -28.5947  -43.1342 H         1 UNK         0.0839 
     99 H99        26.0349  -27.1605  -43.6540 H         1 UNK         0.0839 
    100 H100       23.6637  -28.5847  -40.3325 H         1 UNK         0.2998 
    101 H101       22.9768  -30.3342  -39.1944 H         1 UNK         0.0822 
    102 H102       24.5814  -29.4966  -37.4689 H         1 UNK         0.0787 
    103 H103       24.3880  -31.2398  -37.3821 H         1 UNK         0.0787 
    104 H104       25.8352  -30.5588  -38.1090 H         1 UNK         0.0787 
    105 H105       23.2927  -30.9010  -41.7635 H         1 UNK         0.3055 
    106 H106       24.5389  -33.6192  -41.9942 H         1 UNK         0.1106 
    107 H107       24.6487  -33.0971  -44.4221 H         1 UNK         0.0828 
    108 H108       25.5344  -31.8940  -43.4989 H         1 UNK         0.0828 
    109 H109       23.9397  -31.5117  -44.1409 H         1 UNK         0.0828 
    110 H110       22.2647  -33.6217  -40.6133 H         1 UNK         0.2931 
    111 H111       19.9622  -33.9960  -42.3745 H         1 UNK         0.0412 
    112 H112       22.5012  -36.1115  -41.6635 H         1 UNK         0.3472 
    113 H113       21.5988  -37.5881  -41.8911 H         1 UNK         0.3472 
    114 H114       19.4539  -34.7790  -39.5775 H         1 UNK         0.0970 
    115 H115       20.2517  -33.2492  -39.6057 H         1 UNK         0.0970 
    116 H116       19.7442  -31.3646  -40.9244 H         1 UNK         0.0612 
    117 H117       18.2923  -30.7889  -40.1457 H         1 UNK         0.0612 
@<TRIPOS>BOND
     1    1    2 1    
     2    1   62 1    
     3    1   63 1    
     4    1   64 1    
     5    2    3 2    
     6    2    4 am   BACKBONE|DICT|INTERRES
     7    4    5 1    
     8    4   65 1    
     9    5    6 1    
    10    5   25 1    
    11    5   66 1    
    12    6    7 1    
    13    6   67 1    
    14    6   68 1    
    15    7    8 1    
    16    8    9 1    
    17    8   69 1    
    18    8   70 1    
    19    9   10 ar   
    20    9   14 ar   
    21   10   11 ar   
    22   10   71 1    
    23   11   12 ar   
    24   11   61 1    
    25   12   13 ar   
    26   12   72 1    
    27   13   14 ar   
    28   13   15 1    
    29   14   73 1    
    30   15   16 1    
    31   15   74 1    
    32   15   75 1    
    33   16   17 1    
    34   17   18 1    
    35   17   76 1    
    36   17   77 1    
    37   18   19 1    
    38   18   27 1    
    39   18   78 1    
    40   19   20 am   BACKBONE|DICT|INTERRES
    41   19   79 1    
    42   20   21 2    
    43   20   22 1    
    44   22   23 1    
    45   22   24 1    
    46   22   80 1    
    47   23   81 1    
    48   23   82 1    
    49   23   83 1    
    50   24   25 am   BACKBONE|DICT|INTERRES
    51   24   84 1    
    52   25   26 2    
    53   27   28 2    
    54   27   29 am   BACKBONE|DICT|INTERRES
    55   29   30 1    
    56   29   85 1    
    57   30   31 1    
    58   30   32 1    
    59   30   86 1    
    60   31   87 1    
    61   31   88 1    
    62   31   89 1    
    63   32   33 2    
    64   32   34 am   BACKBONE|DICT|INTERRES
    65   34   35 1    
    66   34   90 1    
    67   35   36 1    
    68   35   37 1    
    69   35   91 1    
    70   36   92 1    
    71   36   93 1    
    72   36   94 1    
    73   37   38 2    
    74   37   39 am   BACKBONE|DICT|INTERRES
    75   39   40 1    
    76   39   95 1    
    77   40   41 1    
    78   40   42 1    
    79   40   96 1    
    80   41   97 1    
    81   41   98 1    
    82   41   99 1    
    83   42   43 2    
    84   42   44 am   BACKBONE|DICT|INTERRES
    85   44   45 1    
    86   44  100 1    
    87   45   46 1    
    88   45   47 1    
    89   45  101 1    
    90   46  102 1    
    91   46  103 1    
    92   46  104 1    
    93   47   48 2    
    94   47   49 am   BACKBONE|DICT|INTERRES
    95   49   50 1    
    96   49  105 1    
    97   50   51 1    
    98   50   52 1    
    99   50  106 1    
   100   51  107 1    
   101   51  108 1    
   102   51  109 1    
   103   52   53 2    
   104   52   54 am   BACKBONE|DICT|INTERRES
   105   54   55 1    
   106   54  110 1    
   107   55   56 1    
   108   55   59 1    
   109   55  111 1    
   110   56   57 am   BACKBONE|DICT|INTERRES
   111   56   58 2    
   112   57  112 1    
   113   57  113 1    
   114   59   60 1    
   115   59  114 1    
   116   59  115 1    
   117   60   61 1    
   118   61  116 1    
   119   61  117 1    
@<TRIPOS>SUBSTRUCTURE
     1 UNK         1 GROUP             0       ****    0 ROOT    
