@<TRIPOS>MOLECULE
3R8
117   119    1
SMALL
USER_CHARGES


@<TRIPOS>ATOM
      1 CA         16.2599  -24.9554  -42.1439 C.3       0 UNK        -0.2013 
      2 C          16.9547  -25.0192  -43.4954 C.2       0 UNK         0.4866 
      3 O          17.1602  -23.9794  -44.1225 O.2       0 UNK        -0.5176 
      4 N          17.3034  -26.2308  -43.9463 N.am      1 UNK        -0.4884 
      5 CA         17.9967  -26.4910  -45.2129 C.3       1 UNK         0.0853 
      6 C6         17.3832  -27.6806  -46.0133 C.3       10 UNK        -0.0849 
      7 S7         15.5541  -27.6145  -46.1077 S.3       10 UNK        -0.2776 
      8 C8         15.0107  -29.2913  -45.6074 C.3       10 UNK         0.0316 
      9 C9         15.8122  -29.8883  -44.4545 C.ar      10 UNK        -0.0863 
     10 C10        16.5182  -31.0806  -44.6446 C.ar      10 UNK        -0.1009 
     11 C11        17.3058  -31.6138  -43.6207 C.ar      10 UNK        -0.0712 
     12 C12        17.3813  -30.9468  -42.3947 C.ar      10 UNK        -0.0894 
     13 C13        16.6725  -29.7597  -42.1874 C.ar      10 UNK        -0.0745 
     14 C14        15.8770  -29.2431  -43.2157 C.ar      10 UNK        -0.0972 
     15 C15        16.7555  -29.0378  -40.8516 C.3       10 UNK         0.0209 
     16 S16        18.0575  -27.7666  -40.8575 S.3       10 UNK        -0.2568 
     17 C17        19.5417  -28.7225  -40.3867 C.3       10 UNK        -0.0983 
     18 CA         20.8485  -28.2352  -41.0607 C.3       3 UNK         0.0876 
     19 N          20.7886  -28.3509  -42.5212 N.am      3 UNK        -0.4424 
     20 C          21.8079  -28.1325  -43.3661 C.2       2 UNK         0.4918 
     21 O          22.9469  -27.8464  -42.9984 O.2       2 UNK        -0.4875 
     22 CA         21.4838  -28.1620  -44.8736 C.3       2 UNK         0.0481 
     23 CB         21.8066  -29.5406  -45.4684 C.3       2 UNK        -0.1831 
     24 N          20.0922  -27.8145  -45.1901 N.am      2 UNK        -0.4498 
     25 C          19.4978  -26.6487  -44.8888 C.2       1 UNK         0.5027 
     26 O          20.0892  -25.7291  -44.3201 O.2       1 UNK        -0.4969 
     27 C          21.2637  -26.8331  -40.5582 C.2       3 UNK         0.5005 
     28 O          21.8318  -26.7367  -39.4696 O.2       3 UNK        -0.5279 
     29 N          21.0400  -25.7799  -41.3630 N.am      4 UNK        -0.4463 
     30 CA         21.5006  -24.4146  -41.0853 C.3       4 UNK         0.0283 
     31 CB         20.8534  -23.4407  -42.0821 C.3       4 UNK        -0.1875 
     32 C          23.0356  -24.2722  -41.1094 C.2       4 UNK         0.4949 
     33 O          23.5609  -23.3447  -40.4946 O.2       4 UNK        -0.5039 
     34 N          23.7251  -25.2028  -41.7842 N.am      5 UNK        -0.4663 
     35 CA         25.1825  -25.3335  -41.8088 C.3       5 UNK         0.0242 
     36 CB         25.6304  -25.5451  -43.2669 C.3       5 UNK        -0.1982 
     37 C          25.6602  -26.4812  -40.8963 C.2       5 UNK         0.5017 
     38 O          26.7682  -26.9809  -41.0918 O.2       5 UNK        -0.5012 
     39 N          24.8160  -26.9114  -39.9437 N.am      6 UNK        -0.4439 
     40 CA         24.9910  -27.9910  -38.9582 C.3       6 UNK         0.0297 
     41 CB         26.2285  -27.7588  -38.0694 C.3       6 UNK        -0.2006 
     42 C          24.9862  -29.4168  -39.5418 C.2       6 UNK         0.4892 
     43 O          24.5516  -30.3406  -38.8521 O.2       6 UNK        -0.5089 
     44 N          25.4419  -29.5843  -40.7883 N.am      7 UNK        -0.4243 
     45 CA         25.4465  -30.8357  -41.5444 C.3       7 UNK         0.0196 
     46 CB         26.4534  -30.7059  -42.7020 C.3       7 UNK        -0.2007 
     47 C          24.0317  -31.1859  -42.0378 C.2       7 UNK         0.5020 
     48 O          23.7358  -31.0320  -43.2225 O.2       7 UNK        -0.5147 
     49 N          23.1720  -31.6295  -41.1125 N.am      8 UNK        -0.4734 
     50 CA         21.7574  -31.9641  -41.3125 C.3       8 UNK         0.0238 
     51 CB         21.0813  -32.0734  -39.9327 C.3       8 UNK        -0.1912 
     52 C          21.5223  -33.2152  -42.1850 C.2       8 UNK         0.5038 
     53 O          20.9532  -34.2012  -41.7135 O.2       8 UNK        -0.5046 
     54 N          21.9501  -33.1325  -43.4486 N.am      9 UNK        -0.4200 
     55 CA         21.7444  -34.1106  -44.5298 C.3       9 UNK         0.0839 
     56 C          22.5309  -35.4460  -44.3650 C.2       9 UNK         0.5513 
     57 N          23.5222  -35.5257  -43.4856 N.am      9 UNK        -0.7519 
     58 O          22.2619  -36.4182  -45.0665 O.2       9 UNK        -0.4960 
     59 C59        20.2435  -34.3384  -44.8776 C.3       10 UNK        -0.0876 
     60 S60        19.3216  -32.7799  -45.1339 S.3       10 UNK        -0.2414 
     61 C61        18.0576  -32.9199  -43.8312 C.3       10 UNK         0.0169 
     62 H62        15.4550  -24.2215  -42.1662 H         1 UNK         0.0903 
     63 H63        15.8274  -25.9161  -41.8658 H         1 UNK         0.0903 
     64 H64        16.9698  -24.6615  -41.3714 H         1 UNK         0.0903 
     65 H65        17.1380  -27.0416  -43.3671 H         1 UNK         0.3096 
     66 H66        17.9204  -25.6098  -45.8537 H         1 UNK         0.1121 
     67 H67        17.7677  -27.6747  -47.0349 H         1 UNK         0.0849 
     68 H68        17.6867  -28.6374  -45.5942 H         1 UNK         0.0849 
     69 H69        13.9580  -29.2507  -45.3249 H         1 UNK         0.0865 
     70 H70        15.0621  -29.9397  -46.4833 H         1 UNK         0.0865 
     71 H71        16.4706  -31.5925  -45.5963 H         1 UNK         0.1346 
     72 H72        17.9833  -31.3591  -41.5973 H         1 UNK         0.1412 
     73 H73        15.3218  -28.3275  -43.0627 H         1 UNK         0.1426 
     74 H74        16.9270  -29.7442  -40.0378 H         1 UNK         0.0716 
     75 H75        15.8002  -28.5567  -40.6361 H         1 UNK         0.0716 
     76 H76        19.6386  -28.6932  -39.2997 H         1 UNK         0.0695 
     77 H77        19.3819  -29.7703  -40.6356 H         1 UNK         0.0695 
     78 H78        21.6490  -28.9043  -40.7371 H         1 UNK         0.0983 
     79 H79        19.8791  -28.5518  -42.9093 H         1 UNK         0.3095 
     80 H80        22.1231  -27.4228  -45.3603 H         1 UNK         0.0454 
     81 H81        22.8655  -29.7721  -45.3502 H         1 UNK         0.0851 
     82 H82        21.2421  -30.3359  -44.9801 H         1 UNK         0.0851 
     83 H83        21.5904  -29.5788  -46.5359 H         1 UNK         0.0851 
     84 H84        19.5502  -28.5283  -45.6549 H         1 UNK         0.2976 
     85 H85        20.5909  -25.9308  -42.2603 H         1 UNK         0.3116 
     86 H86        21.1618  -24.1480  -40.0820 H         1 UNK         0.0646 
     87 H87        21.1029  -22.4081  -41.8347 H         1 UNK         0.0847 
     88 H88        19.7663  -23.5227  -42.0746 H         1 UNK         0.0847 
     89 H89        21.1957  -23.6206  -43.1018 H         1 UNK         0.0847 
     90 H90        23.2161  -25.9519  -42.2432 H         1 UNK         0.3040 
     91 H91        25.6515  -24.4193  -41.4391 H         1 UNK         0.1015 
     92 H92        25.2793  -24.7380  -43.9100 H         1 UNK         0.0786 
     93 H93        25.2532  -26.4847  -43.6723 H         1 UNK         0.0786 
     94 H94        26.7181  -25.5683  -43.3461 H         1 UNK         0.0786 
     95 H95        23.9038  -26.4692  -39.9050 H         1 UNK         0.3172 
     96 H96        24.1145  -27.9282  -38.3114 H         1 UNK         0.0595 
     97 H97        26.2055  -26.7729  -37.6055 H         1 UNK         0.0839 
     98 H98        27.1593  -27.8455  -38.6306 H         1 UNK         0.0839 
     99 H99        26.2700  -28.4941  -37.2647 H         1 UNK         0.0839 
    100 H100       25.8067  -28.7648  -41.2600 H         1 UNK         0.2998 
    101 H101       25.7850  -31.6434  -40.8919 H         1 UNK         0.0822 
    102 H102       27.4619  -30.5217  -42.3314 H         1 UNK         0.0787 
    103 H103       26.4873  -31.6211  -43.2947 H         1 UNK         0.0787 
    104 H104       26.1905  -29.8892  -43.3762 H         1 UNK         0.0787 
    105 H105       23.5113  -31.6666  -40.1574 H         1 UNK         0.3055 
    106 H106       21.2908  -31.1339  -41.8456 H         1 UNK         0.1106 
    107 H107       21.5027  -32.8881  -39.3424 H         1 UNK         0.0828 
    108 H108       21.1933  -31.1542  -39.3576 H         1 UNK         0.0828 
    109 H109       20.0120  -32.2642  -40.0331 H         1 UNK         0.0828 
    110 H110       22.4976  -32.3105  -43.6928 H         1 UNK         0.2931 
    111 H111       22.1966  -33.6416  -45.4044 H         1 UNK         0.0412 
    112 H112       24.0331  -36.3897  -43.3924 H         1 UNK         0.3472 
    113 H113       23.7541  -34.7341  -42.9076 H         1 UNK         0.3472 
    114 H114       19.7623  -34.9339  -44.0999 H         1 UNK         0.0970 
    115 H115       20.1551  -34.9238  -45.7944 H         1 UNK         0.0970 
    116 H116       18.5323  -33.2366  -42.9016 H         1 UNK         0.0612 
    117 H117       17.3499  -33.7047  -44.1014 H         1 UNK         0.0612 
@<TRIPOS>BOND
     1    1    2 1    
     2    1   62 1    
     3    1   63 1    
     4    1   64 1    
     5    2    3 2    
     6    2    4 am   BACKBONE|DICT|INTERRES
     7    4    5 1    
     8    4   65 1    
     9    5    6 1    
    10    5   25 1    
    11    5   66 1    
    12    6    7 1    
    13    6   67 1    
    14    6   68 1    
    15    7    8 1    
    16    8    9 1    
    17    8   69 1    
    18    8   70 1    
    19    9   10 ar   
    20    9   14 ar   
    21   10   11 ar   
    22   10   71 1    
    23   11   12 ar   
    24   11   61 1    
    25   12   13 ar   
    26   12   72 1    
    27   13   14 ar   
    28   13   15 1    
    29   14   73 1    
    30   15   16 1    
    31   15   74 1    
    32   15   75 1    
    33   16   17 1    
    34   17   18 1    
    35   17   76 1    
    36   17   77 1    
    37   18   19 1    
    38   18   27 1    
    39   18   78 1    
    40   19   20 am   BACKBONE|DICT|INTERRES
    41   19   79 1    
    42   20   21 2    
    43   20   22 1    
    44   22   23 1    
    45   22   24 1    
    46   22   80 1    
    47   23   81 1    
    48   23   82 1    
    49   23   83 1    
    50   24   25 am   BACKBONE|DICT|INTERRES
    51   24   84 1    
    52   25   26 2    
    53   27   28 2    
    54   27   29 am   BACKBONE|DICT|INTERRES
    55   29   30 1    
    56   29   85 1    
    57   30   31 1    
    58   30   32 1    
    59   30   86 1    
    60   31   87 1    
    61   31   88 1    
    62   31   89 1    
    63   32   33 2    
    64   32   34 am   BACKBONE|DICT|INTERRES
    65   34   35 1    
    66   34   90 1    
    67   35   36 1    
    68   35   37 1    
    69   35   91 1    
    70   36   92 1    
    71   36   93 1    
    72   36   94 1    
    73   37   38 2    
    74   37   39 am   BACKBONE|DICT|INTERRES
    75   39   40 1    
    76   39   95 1    
    77   40   41 1    
    78   40   42 1    
    79   40   96 1    
    80   41   97 1    
    81   41   98 1    
    82   41   99 1    
    83   42   43 2    
    84   42   44 am   BACKBONE|DICT|INTERRES
    85   44   45 1    
    86   44  100 1    
    87   45   46 1    
    88   45   47 1    
    89   45  101 1    
    90   46  102 1    
    91   46  103 1    
    92   46  104 1    
    93   47   48 2    
    94   47   49 am   BACKBONE|DICT|INTERRES
    95   49   50 1    
    96   49  105 1    
    97   50   51 1    
    98   50   52 1    
    99   50  106 1    
   100   51  107 1    
   101   51  108 1    
   102   51  109 1    
   103   52   53 2    
   104   52   54 am   BACKBONE|DICT|INTERRES
   105   54   55 1    
   106   54  110 1    
   107   55   56 1    
   108   55   59 1    
   109   55  111 1    
   110   56   57 am   BACKBONE|DICT|INTERRES
   111   56   58 2    
   112   57  112 1    
   113   57  113 1    
   114   59   60 1    
   115   59  114 1    
   116   59  115 1    
   117   60   61 1    
   118   61  116 1    
   119   61  117 1    
@<TRIPOS>SUBSTRUCTURE
     1 UNK         1 GROUP             0       ****    0 ROOT    
