@<TRIPOS>MOLECULE
3R8
117   119    1
SMALL
USER_CHARGES


@<TRIPOS>ATOM
      1 CA         19.9601  -27.1768  -40.9639 C.3       0 UNK        -0.2013 
      2 C          19.2254  -26.8407  -42.2512 C.2       0 UNK         0.4866 
      3 O          19.7517  -27.0998  -43.3331 O.2       0 UNK        -0.5176 
      4 N          18.0331  -26.2326  -42.1419 N.am      1 UNK        -0.4884 
      5 CA         17.0839  -25.9249  -43.2321 C.3       1 UNK         0.0853 
      6 C6         16.5147  -27.2037  -43.9017 C.3       10 UNK        -0.0849 
      7 S7         15.7190  -28.3731  -42.7465 S.3       10 UNK        -0.2776 
      8 C8         15.2262  -29.7073  -43.8915 C.3       10 UNK         0.0316 
      9 C9         16.4384  -30.3539  -44.5466 C.ar      10 UNK        -0.0863 
     10 C10        17.1261  -31.3834  -43.9002 C.ar      10 UNK        -0.1009 
     11 C11        18.2872  -31.9220  -44.4633 C.ar      10 UNK        -0.0712 
     12 C12        18.7655  -31.4155  -45.6773 C.ar      10 UNK        -0.0894 
     13 C13        18.0798  -30.3900  -46.3363 C.ar      10 UNK        -0.0745 
     14 C14        16.8983  -29.8912  -45.7824 C.ar      10 UNK        -0.0972 
     15 C15        18.6069  -29.8100  -47.6423 C.3       10 UNK         0.0209 
     16 S16        18.9731  -28.0267  -47.5058 S.3       10 UNK        -0.2568 
     17 C17        20.5494  -28.0361  -46.5902 C.3       10 UNK        -0.0983 
     18 CA         21.1984  -26.6261  -46.5569 C.3       3 UNK         0.0876 
     19 N          20.4169  -25.6805  -45.7477 N.am      3 UNK        -0.4424 
     20 C          20.3301  -24.3599  -45.9731 C.2       2 UNK         0.4918 
     21 O          20.8462  -23.8073  -46.9453 O.2       2 UNK        -0.4875 
     22 CA         19.6019  -23.4964  -44.9159 C.3       2 UNK         0.0481 
     23 CB         18.8396  -22.3089  -45.5417 C.3       2 UNK        -0.1831 
     24 N          18.7514  -24.2695  -44.0009 N.am      2 UNK        -0.4498 
     25 C          17.6411  -24.9579  -44.3086 C.2       1 UNK         0.5027 
     26 O          17.0783  -24.8788  -45.4016 O.2       1 UNK        -0.4969 
     27 C          22.6688  -26.6955  -46.0826 C.2       3 UNK         0.5005 
     28 O          23.4790  -27.3456  -46.7449 O.2       3 UNK        -0.5279 
     29 N          22.9917  -26.0266  -44.9608 N.am      4 UNK        -0.4463 
     30 CA         24.3103  -25.9268  -44.3172 C.3       4 UNK         0.0283 
     31 CB         25.3245  -25.2078  -45.2323 C.3       4 UNK        -0.1875 
     32 C          24.8349  -27.2751  -43.7844 C.2       4 UNK         0.4949 
     33 O          26.0469  -27.4818  -43.7130 O.2       4 UNK        -0.5039 
     34 N          23.9063  -28.1573  -43.3970 N.am      5 UNK        -0.4663 
     35 CA         24.1669  -29.5030  -42.8819 C.3       5 UNK         0.0242 
     36 CB         23.4954  -30.5201  -43.8209 C.3       5 UNK        -0.1982 
     37 C          23.6877  -29.6442  -41.4265 C.2       5 UNK         0.5017 
     38 O          23.3502  -30.7487  -40.9991 O.2       5 UNK        -0.5012 
     39 N          23.6742  -28.5263  -40.6836 N.am      6 UNK        -0.4439 
     40 CA         23.1597  -28.3769  -39.3135 C.3       6 UNK         0.0297 
     41 CB         23.3186  -26.9089  -38.8818 C.3       6 UNK        -0.2006 
     42 C          23.7794  -29.3075  -38.2516 C.2       6 UNK         0.4892 
     43 O          23.1813  -29.4891  -37.1909 O.2       6 UNK        -0.5089 
     44 N          24.9535  -29.8819  -38.5447 N.am      7 UNK        -0.4243 
     45 CA         25.6107  -30.9027  -37.7267 C.3       7 UNK         0.0196 
     46 CB         27.0583  -31.0775  -38.2143 C.3       7 UNK        -0.2007 
     47 C          24.8766  -32.2585  -37.7291 C.2       7 UNK         0.5020 
     48 O          25.0747  -33.0386  -36.7969 O.2       7 UNK        -0.5147 
     49 N          24.0643  -32.5243  -38.7618 N.am      8 UNK        -0.4734 
     50 CA         23.2989  -33.7622  -38.9251 C.3       8 UNK         0.0238 
     51 CB         23.8410  -34.5388  -40.1376 C.3       8 UNK        -0.1912 
     52 C          21.7989  -33.4839  -39.0897 C.2       8 UNK         0.5038 
     53 O          20.9896  -34.1560  -38.4490 O.2       8 UNK        -0.5046 
     54 N          21.4530  -32.5212  -39.9511 N.am      9 UNK        -0.4200 
     55 CA         20.0756  -32.1373  -40.2775 C.3       9 UNK         0.0839 
     56 C          19.4520  -31.2616  -39.1620 C.2       9 UNK         0.5513 
     57 N          18.2345  -31.5683  -38.7363 N.am      9 UNK        -0.7519 
     58 O          20.0421  -30.2815  -38.7157 O.2       9 UNK        -0.4960 
     59 C59        20.0050  -31.4194  -41.6482 C.3       10 UNK        -0.0876 
     60 S60        20.5862  -32.4861  -43.0122 S.3       10 UNK        -0.2414 
     61 C61        19.0260  -33.0493  -43.7571 C.3       10 UNK         0.0169 
     62 H62        19.9832  -28.2559  -40.8181 H         1 UNK         0.0903 
     63 H63        19.4880  -26.7257  -40.0916 H         1 UNK         0.0903 
     64 H64        20.9866  -26.8184  -41.0189 H         1 UNK         0.0903 
     65 H65        17.6814  -26.0294  -41.2159 H         1 UNK         0.3096 
     66 H66        16.2495  -25.3941  -42.7709 H         1 UNK         0.1121 
     67 H67        15.7762  -26.9515  -44.6652 H         1 UNK         0.0849 
     68 H68        17.3290  -27.7145  -44.4154 H         1 UNK         0.0849 
     69 H69        14.6574  -30.4579  -43.3406 H         1 UNK         0.0865 
     70 H70        14.5491  -29.3079  -44.6484 H         1 UNK         0.0865 
     71 H71        16.7675  -31.7500  -42.9480 H         1 UNK         0.1346 
     72 H72        19.6762  -31.8168  -46.1006 H         1 UNK         0.1412 
     73 H73        16.3699  -29.0946  -46.2886 H         1 UNK         0.1426 
     74 H74        19.4986  -30.3407  -47.9795 H         1 UNK         0.0716 
     75 H75        17.8531  -29.9533  -48.4176 H         1 UNK         0.0716 
     76 H76        21.2088  -28.7547  -47.0807 H         1 UNK         0.0695 
     77 H77        20.3763  -28.4161  -45.5817 H         1 UNK         0.0695 
     78 H78        21.2383  -26.2582  -47.5847 H         1 UNK         0.0983 
     79 H79        19.9787  -26.0787  -44.9199 H         1 UNK         0.3095 
     80 H80        20.3902  -23.0758  -44.2902 H         1 UNK         0.0454 
     81 H81        18.3258  -21.7205  -44.7818 H         1 UNK         0.0851 
     82 H82        18.0994  -22.6370  -46.2715 H         1 UNK         0.0851 
     83 H83        19.5239  -21.6367  -46.0607 H         1 UNK         0.0851 
     84 H84        19.1224  -24.4065  -43.0707 H         1 UNK         0.2976 
     85 H85        22.2415  -25.5375  -44.4937 H         1 UNK         0.3116 
     86 H86        24.1667  -25.2975  -43.4377 H         1 UNK         0.0646 
     87 H87        24.9327  -24.2555  -45.5893 H         1 UNK         0.0847 
     88 H88        26.2512  -24.9946  -44.6981 H         1 UNK         0.0847 
     89 H89        25.5855  -25.8110  -46.1023 H         1 UNK         0.0847 
     90 H90        22.9342  -27.8929  -43.4824 H         1 UNK         0.3040 
     91 H91        25.2389  -29.7114  -42.8718 H         1 UNK         0.1015 
     92 H92        22.4195  -30.3552  -43.8828 H         1 UNK         0.0786 
     93 H93        23.6549  -31.5448  -43.4822 H         1 UNK         0.0786 
     94 H94        23.8992  -30.4486  -44.8309 H         1 UNK         0.0786 
     95 H95        24.0052  -27.6823  -41.1277 H         1 UNK         0.3172 
     96 H96        22.0943  -28.6091  -39.3481 H         1 UNK         0.0595 
     97 H97        24.3679  -26.6141  -38.8380 H         1 UNK         0.0839 
     98 H98        22.8946  -26.7459  -37.8898 H         1 UNK         0.0839 
     99 H99        22.8077  -26.2284  -39.5622 H         1 UNK         0.0839 
    100 H100       25.3789  -29.6648  -39.4338 H         1 UNK         0.2998 
    101 H101       25.6364  -30.5465  -36.6945 H         1 UNK         0.0822 
    102 H102       27.6150  -30.1422  -38.1511 H         1 UNK         0.0787 
    103 H103       27.5893  -31.8102  -37.6049 H         1 UNK         0.0787 
    104 H104       27.0971  -31.4244  -39.2478 H         1 UNK         0.0787 
    105 H105       23.9350  -31.8131  -39.4757 H         1 UNK         0.3055 
    106 H106       23.4064  -34.3971  -38.0425 H         1 UNK         0.1106 
    107 H107       24.8851  -34.8166  -39.9931 H         1 UNK         0.0828 
    108 H108       23.2791  -35.4606  -40.2949 H         1 UNK         0.0828 
    109 H109       23.7747  -33.9542  -41.0564 H         1 UNK         0.0828 
    110 H110       22.1761  -31.9786  -40.4161 H         1 UNK         0.2931 
    111 H111       19.4871  -33.0539  -40.3598 H         1 UNK         0.0412 
    112 H112       17.8078  -30.9981  -38.0229 H         1 UNK         0.3472 
    113 H113       17.7405  -32.3686  -39.0997 H         1 UNK         0.3472 
    114 H114       18.9890  -31.0812  -41.8535 H         1 UNK         0.0970 
    115 H115       20.6203  -30.5183  -41.6397 H         1 UNK         0.0970 
    116 H116       19.2465  -33.8387  -44.4769 H         1 UNK         0.0612 
    117 H117       18.4029  -33.5040  -42.9853 H         1 UNK         0.0612 
@<TRIPOS>BOND
     1    1    2 1    
     2    1   62 1    
     3    1   63 1    
     4    1   64 1    
     5    2    3 2    
     6    2    4 am   BACKBONE|DICT|INTERRES
     7    4    5 1    
     8    4   65 1    
     9    5    6 1    
    10    5   25 1    
    11    5   66 1    
    12    6    7 1    
    13    6   67 1    
    14    6   68 1    
    15    7    8 1    
    16    8    9 1    
    17    8   69 1    
    18    8   70 1    
    19    9   10 ar   
    20    9   14 ar   
    21   10   11 ar   
    22   10   71 1    
    23   11   12 ar   
    24   11   61 1    
    25   12   13 ar   
    26   12   72 1    
    27   13   14 ar   
    28   13   15 1    
    29   14   73 1    
    30   15   16 1    
    31   15   74 1    
    32   15   75 1    
    33   16   17 1    
    34   17   18 1    
    35   17   76 1    
    36   17   77 1    
    37   18   19 1    
    38   18   27 1    
    39   18   78 1    
    40   19   20 am   BACKBONE|DICT|INTERRES
    41   19   79 1    
    42   20   21 2    
    43   20   22 1    
    44   22   23 1    
    45   22   24 1    
    46   22   80 1    
    47   23   81 1    
    48   23   82 1    
    49   23   83 1    
    50   24   25 am   BACKBONE|DICT|INTERRES
    51   24   84 1    
    52   25   26 2    
    53   27   28 2    
    54   27   29 am   BACKBONE|DICT|INTERRES
    55   29   30 1    
    56   29   85 1    
    57   30   31 1    
    58   30   32 1    
    59   30   86 1    
    60   31   87 1    
    61   31   88 1    
    62   31   89 1    
    63   32   33 2    
    64   32   34 am   BACKBONE|DICT|INTERRES
    65   34   35 1    
    66   34   90 1    
    67   35   36 1    
    68   35   37 1    
    69   35   91 1    
    70   36   92 1    
    71   36   93 1    
    72   36   94 1    
    73   37   38 2    
    74   37   39 am   BACKBONE|DICT|INTERRES
    75   39   40 1    
    76   39   95 1    
    77   40   41 1    
    78   40   42 1    
    79   40   96 1    
    80   41   97 1    
    81   41   98 1    
    82   41   99 1    
    83   42   43 2    
    84   42   44 am   BACKBONE|DICT|INTERRES
    85   44   45 1    
    86   44  100 1    
    87   45   46 1    
    88   45   47 1    
    89   45  101 1    
    90   46  102 1    
    91   46  103 1    
    92   46  104 1    
    93   47   48 2    
    94   47   49 am   BACKBONE|DICT|INTERRES
    95   49   50 1    
    96   49  105 1    
    97   50   51 1    
    98   50   52 1    
    99   50  106 1    
   100   51  107 1    
   101   51  108 1    
   102   51  109 1    
   103   52   53 2    
   104   52   54 am   BACKBONE|DICT|INTERRES
   105   54   55 1    
   106   54  110 1    
   107   55   56 1    
   108   55   59 1    
   109   55  111 1    
   110   56   57 am   BACKBONE|DICT|INTERRES
   111   56   58 2    
   112   57  112 1    
   113   57  113 1    
   114   59   60 1    
   115   59  114 1    
   116   59  115 1    
   117   60   61 1    
   118   61  116 1    
   119   61  117 1    
@<TRIPOS>SUBSTRUCTURE
     1 UNK         1 GROUP             0       ****    0 ROOT    
