@<TRIPOS>MOLECULE
3R8
117   119    1
SMALL
USER_CHARGES


@<TRIPOS>ATOM
      1 CA         16.5886  -22.3546  -46.6685 C.3       0 UNK        -0.2013 
      2 C          16.9466  -23.7840  -46.2879 C.2       0 UNK         0.4866 
      3 O          16.5512  -24.2413  -45.2152 O.2       0 UNK        -0.5176 
      4 N          17.6791  -24.4833  -47.1684 N.am      1 UNK        -0.4884 
      5 CA         18.2056  -25.8487  -47.0126 C.3       1 UNK         0.0853 
      6 C6         17.1141  -26.8797  -46.6085 C.3       10 UNK        -0.0849 
      7 S7         17.4381  -28.5610  -47.2367 S.3       10 UNK        -0.2776 
      8 C8         15.9800  -29.4527  -46.6044 C.3       10 UNK         0.0316 
      9 C9         16.1581  -29.8746  -45.1522 C.ar      10 UNK        -0.0863 
     10 C10        16.6776  -31.1366  -44.8493 C.ar      10 UNK        -0.1009 
     11 C11        16.8484  -31.5381  -43.5196 C.ar      10 UNK        -0.0712 
     12 C12        16.4829  -30.6658  -42.4903 C.ar      10 UNK        -0.0894 
     13 C13        15.9561  -29.4035  -42.7786 C.ar      10 UNK        -0.0745 
     14 C14        15.7895  -29.0166  -44.1116 C.ar      10 UNK        -0.0972 
     15 C15        15.5464  -28.4658  -41.6506 C.3       10 UNK         0.0209 
     16 S16        16.9499  -27.9868  -40.5919 S.3       10 UNK        -0.2568 
     17 C17        18.0305  -27.0946  -41.7611 C.3       10 UNK        -0.0983 
     18 CA         19.3264  -27.8796  -42.0883 C.3       3 UNK         0.0876 
     19 N          19.9343  -27.3773  -43.3194 N.am      3 UNK        -0.4424 
     20 C          20.8943  -27.9890  -44.0217 C.2       2 UNK         0.4918 
     21 O          21.3844  -29.0752  -43.7128 O.2       2 UNK        -0.4875 
     22 CA         21.3576  -27.2742  -45.3057 C.3       2 UNK         0.0481 
     23 CB         22.3940  -28.0931  -46.0970 C.3       2 UNK        -0.1831 
     24 N          20.2171  -26.9735  -46.1757 N.am      2 UNK        -0.4498 
     25 C          19.4248  -25.8999  -46.0634 C.2       1 UNK         0.5027 
     26 O          19.6220  -25.0097  -45.2320 O.2       1 UNK        -0.4969 
     27 C          20.3314  -27.8321  -40.9175 C.2       3 UNK         0.5005 
     28 O          21.0647  -26.8478  -40.7911 O.2       3 UNK        -0.5279 
     29 N          20.2965  -28.8760  -40.0770 N.am      4 UNK        -0.4463 
     30 CA         21.1577  -29.1805  -38.9295 C.3       4 UNK         0.0283 
     31 CB         21.3406  -27.9807  -37.9780 C.3       4 UNK        -0.1875 
     32 C          22.5060  -29.7691  -39.3662 C.2       4 UNK         0.4949 
     33 O          23.0173  -29.4501  -40.4411 O.2       4 UNK        -0.5039 
     34 N          23.0749  -30.6181  -38.4995 N.am      5 UNK        -0.4663 
     35 CA         24.3277  -31.3497  -38.7323 C.3       5 UNK         0.0242 
     36 CB         24.5406  -32.3600  -37.5940 C.3       5 UNK        -0.1982 
     37 C          25.5655  -30.4496  -38.8952 C.2       5 UNK         0.5017 
     38 O          26.5440  -30.8755  -39.5087 O.2       5 UNK        -0.5012 
     39 N          25.4883  -29.2186  -38.3693 N.am      6 UNK        -0.4439 
     40 CA         26.4735  -28.1537  -38.5651 C.3       6 UNK         0.0297 
     41 CB         26.1478  -26.9835  -37.6230 C.3       6 UNK        -0.2006 
     42 C          26.5553  -27.6640  -40.0239 C.2       6 UNK         0.4892 
     43 O          27.6202  -27.2013  -40.4349 O.2       6 UNK        -0.5089 
     44 N          25.4495  -27.7797  -40.7738 N.am      7 UNK        -0.4243 
     45 CA         25.3943  -27.5230  -42.2098 C.3       7 UNK         0.0196 
     46 CB         24.0666  -26.8400  -42.5712 C.3       7 UNK        -0.2007 
     47 C          25.5828  -28.8437  -42.9660 C.2       7 UNK         0.5020 
     48 O          26.5671  -28.9759  -43.6933 O.2       7 UNK        -0.5147 
     49 N          24.6690  -29.8021  -42.7533 N.am      8 UNK        -0.4734 
     50 CA         24.7272  -31.1600  -43.2998 C.3       8 UNK         0.0238 
     51 CB         24.6645  -31.1717  -44.8446 C.3       8 UNK        -0.1912 
     52 C          23.6039  -32.0367  -42.7355 C.2       8 UNK         0.5038 
     53 O          23.8851  -33.1037  -42.1882 O.2       8 UNK        -0.5046 
     54 N          22.3546  -31.6005  -42.9319 N.am      9 UNK        -0.4200 
     55 CA         21.1393  -32.3886  -42.7060 C.3       9 UNK         0.0839 
     56 C          20.6784  -32.3267  -41.2271 C.2       9 UNK         0.5513 
     57 N          21.3140  -33.0905  -40.3497 N.am      9 UNK        -0.7519 
     58 O          19.7569  -31.5965  -40.8680 O.2       9 UNK        -0.4960 
     59 C59        20.0388  -31.9850  -43.7235 C.3       10 UNK        -0.0876 
     60 S60        18.9055  -33.3558  -44.1269 S.3       10 UNK        -0.2414 
     61 C61        17.4127  -32.9138  -43.1768 C.3       10 UNK         0.0169 
     62 H62        16.9926  -21.6595  -45.9328 H         1 UNK         0.0903 
     63 H63        16.9829  -22.0797  -47.6466 H         1 UNK         0.0903 
     64 H64        15.5060  -22.2331  -46.6934 H         1 UNK         0.0903 
     65 H65        17.9738  -24.0187  -48.0168 H         1 UNK         0.3096 
     66 H66        18.5742  -26.1115  -48.0060 H         1 UNK         0.1121 
     67 H67        16.9907  -26.9069  -45.5251 H         1 UNK         0.0849 
     68 H68        16.1472  -26.5743  -47.0119 H         1 UNK         0.0849 
     69 H69        15.0861  -28.8369  -46.7162 H         1 UNK         0.0865 
     70 H70        15.8143  -30.3339  -47.2262 H         1 UNK         0.0865 
     71 H71        16.9565  -31.8069  -45.6509 H         1 UNK         0.1346 
     72 H72        16.6108  -30.9657  -41.4588 H         1 UNK         0.1412 
     73 H73        15.3694  -28.0467  -44.3394 H         1 UNK         0.1426 
     74 H74        14.7950  -28.9615  -41.0343 H         1 UNK         0.0716 
     75 H75        15.0738  -27.5636  -42.0422 H         1 UNK         0.0716 
     76 H76        17.4658  -26.9049  -42.6756 H         1 UNK         0.0695 
     77 H77        18.2599  -26.1095  -41.3500 H         1 UNK         0.0695 
     78 H78        19.0605  -28.9225  -42.2769 H         1 UNK         0.0983 
     79 H79        19.6337  -26.4631  -43.6333 H         1 UNK         0.3095 
     80 H80        21.8384  -26.3419  -45.0026 H         1 UNK         0.0454 
     81 H81        21.9952  -29.0595  -46.4077 H         1 UNK         0.0851 
     82 H82        22.7222  -27.5617  -46.9902 H         1 UNK         0.0851 
     83 H83        23.2818  -28.2836  -45.4929 H         1 UNK         0.0851 
     84 H84        19.9529  -27.6959  -46.8325 H         1 UNK         0.2976 
     85 H85        19.7014  -29.6564  -40.3403 H         1 UNK         0.3116 
     86 H86        20.6251  -29.9595  -38.3815 H         1 UNK         0.0646 
     87 H87        21.8044  -28.2932  -37.0419 H         1 UNK         0.0847 
     88 H88        20.3841  -27.5223  -37.7272 H         1 UNK         0.0847 
     89 H89        21.9807  -27.2099  -38.4085 H         1 UNK         0.0847 
     90 H90        22.5944  -30.8198  -37.6338 H         1 UNK         0.3040 
     91 H91        24.2149  -31.9053  -39.6657 H         1 UNK         0.1015 
     92 H92        23.7152  -33.0696  -37.5335 H         1 UNK         0.0786 
     93 H93        24.6331  -31.8655  -36.6262 H         1 UNK         0.0786 
     94 H94        25.4511  -32.9401  -37.7521 H         1 UNK         0.0786 
     95 H95        24.6464  -28.9772  -37.8674 H         1 UNK         0.3172 
     96 H96        27.4542  -28.5504  -38.2939 H         1 UNK         0.0595 
     97 H97        26.1603  -27.2971  -36.5790 H         1 UNK         0.0839 
     98 H98        25.1680  -26.5533  -37.8348 H         1 UNK         0.0839 
     99 H99        26.8830  -26.1841  -37.7272 H         1 UNK         0.0839 
    100 H100       24.6294  -28.2230  -40.3739 H         1 UNK         0.2998 
    101 H101       26.2018  -26.8480  -42.5025 H         1 UNK         0.0822 
    102 H102       23.9658  -25.8796  -42.0657 H         1 UNK         0.0787 
    103 H103       24.0041  -26.6522  -43.6433 H         1 UNK         0.0787 
    104 H104       23.2089  -27.4497  -42.2907 H         1 UNK         0.0787 
    105 H105       23.9269  -29.6272  -42.0759 H         1 UNK         0.3055 
    106 H106       25.6751  -31.6031  -42.9865 H         1 UNK         0.1106 
    107 H107       23.7839  -30.6492  -45.2175 H         1 UNK         0.0828 
    108 H108       25.5424  -30.7113  -45.2958 H         1 UNK         0.0828 
    109 H109       24.6191  -32.1933  -45.2246 H         1 UNK         0.0828 
    110 H110       22.2009  -30.6669  -43.3071 H         1 UNK         0.2931 
    111 H111       21.3928  -33.4306  -42.9141 H         1 UNK         0.0412 
    112 H112       21.0284  -33.0834  -39.3842 H         1 UNK         0.3472 
    113 H113       22.1007  -33.6498  -40.6456 H         1 UNK         0.3472 
    114 H114       20.4985  -31.6957  -44.6700 H         1 UNK         0.0970 
    115 H115       19.4931  -31.0989  -43.3976 H         1 UNK         0.0970 
    116 H116       16.6437  -33.6632  -43.3673 H         1 UNK         0.0612 
    117 H117       17.6506  -32.9795  -42.1141 H         1 UNK         0.0612 
@<TRIPOS>BOND
     1    1    2 1    
     2    1   62 1    
     3    1   63 1    
     4    1   64 1    
     5    2    3 2    
     6    2    4 am   BACKBONE|DICT|INTERRES
     7    4    5 1    
     8    4   65 1    
     9    5    6 1    
    10    5   25 1    
    11    5   66 1    
    12    6    7 1    
    13    6   67 1    
    14    6   68 1    
    15    7    8 1    
    16    8    9 1    
    17    8   69 1    
    18    8   70 1    
    19    9   10 ar   
    20    9   14 ar   
    21   10   11 ar   
    22   10   71 1    
    23   11   12 ar   
    24   11   61 1    
    25   12   13 ar   
    26   12   72 1    
    27   13   14 ar   
    28   13   15 1    
    29   14   73 1    
    30   15   16 1    
    31   15   74 1    
    32   15   75 1    
    33   16   17 1    
    34   17   18 1    
    35   17   76 1    
    36   17   77 1    
    37   18   19 1    
    38   18   27 1    
    39   18   78 1    
    40   19   20 am   BACKBONE|DICT|INTERRES
    41   19   79 1    
    42   20   21 2    
    43   20   22 1    
    44   22   23 1    
    45   22   24 1    
    46   22   80 1    
    47   23   81 1    
    48   23   82 1    
    49   23   83 1    
    50   24   25 am   BACKBONE|DICT|INTERRES
    51   24   84 1    
    52   25   26 2    
    53   27   28 2    
    54   27   29 am   BACKBONE|DICT|INTERRES
    55   29   30 1    
    56   29   85 1    
    57   30   31 1    
    58   30   32 1    
    59   30   86 1    
    60   31   87 1    
    61   31   88 1    
    62   31   89 1    
    63   32   33 2    
    64   32   34 am   BACKBONE|DICT|INTERRES
    65   34   35 1    
    66   34   90 1    
    67   35   36 1    
    68   35   37 1    
    69   35   91 1    
    70   36   92 1    
    71   36   93 1    
    72   36   94 1    
    73   37   38 2    
    74   37   39 am   BACKBONE|DICT|INTERRES
    75   39   40 1    
    76   39   95 1    
    77   40   41 1    
    78   40   42 1    
    79   40   96 1    
    80   41   97 1    
    81   41   98 1    
    82   41   99 1    
    83   42   43 2    
    84   42   44 am   BACKBONE|DICT|INTERRES
    85   44   45 1    
    86   44  100 1    
    87   45   46 1    
    88   45   47 1    
    89   45  101 1    
    90   46  102 1    
    91   46  103 1    
    92   46  104 1    
    93   47   48 2    
    94   47   49 am   BACKBONE|DICT|INTERRES
    95   49   50 1    
    96   49  105 1    
    97   50   51 1    
    98   50   52 1    
    99   50  106 1    
   100   51  107 1    
   101   51  108 1    
   102   51  109 1    
   103   52   53 2    
   104   52   54 am   BACKBONE|DICT|INTERRES
   105   54   55 1    
   106   54  110 1    
   107   55   56 1    
   108   55   59 1    
   109   55  111 1    
   110   56   57 am   BACKBONE|DICT|INTERRES
   111   56   58 2    
   112   57  112 1    
   113   57  113 1    
   114   59   60 1    
   115   59  114 1    
   116   59  115 1    
   117   60   61 1    
   118   61  116 1    
   119   61  117 1    
@<TRIPOS>SUBSTRUCTURE
     1 UNK         1 GROUP             0       ****    0 ROOT    
