@<TRIPOS>MOLECULE
3R8
117   119    1
SMALL
USER_CHARGES


@<TRIPOS>ATOM
      1 CA         15.3832  -22.5342  -46.9223 C.3       0 UNK        -0.2013 
      2 C          16.6114  -23.4022  -46.6917 C.2       0 UNK         0.4866 
      3 O          17.6783  -23.1102  -47.2334 O.2       0 UNK        -0.5176 
      4 N          16.4679  -24.4725  -45.9006 N.am      1 UNK        -0.4884 
      5 CA         17.5513  -25.3891  -45.5318 C.3       1 UNK         0.0853 
      6 C6         17.0129  -26.6809  -44.8719 C.3       10 UNK        -0.0849 
      7 S7         16.0230  -27.7172  -45.9990 S.3       10 UNK        -0.2776 
      8 C8         17.2194  -29.0267  -46.4566 C.3       10 UNK         0.0316 
      9 C9         17.8007  -29.8519  -45.3023 C.ar      10 UNK        -0.0863 
     10 C10        18.9646  -30.5932  -45.5352 C.ar      10 UNK        -0.1009 
     11 C11        19.5412  -31.3605  -44.5188 C.ar      10 UNK        -0.0712 
     12 C12        18.9566  -31.3731  -43.2500 C.ar      10 UNK        -0.0894 
     13 C13        17.7928  -30.6439  -42.9990 C.ar      10 UNK        -0.0745 
     14 C14        17.2104  -29.9023  -44.0310 C.ar      10 UNK        -0.0972 
     15 C15        17.1526  -30.6728  -41.6178 C.3       10 UNK         0.0209 
     16 S16        18.2104  -29.9168  -40.3404 S.3       10 UNK        -0.2568 
     17 C17        18.3624  -28.1915  -40.9216 C.3       10 UNK        -0.0983 
     18 CA         19.8235  -27.8366  -41.2937 C.3       3 UNK         0.0876 
     19 N          19.8943  -26.6570  -42.1605 N.am      3 UNK        -0.4424 
     20 C          21.0118  -26.1914  -42.7379 C.2       2 UNK         0.4918 
     21 O          22.1170  -26.7232  -42.6120 O.2       2 UNK        -0.4875 
     22 CA         20.8505  -24.9460  -43.6289 C.3       2 UNK         0.0481 
     23 CB         22.1497  -24.5643  -44.3619 C.3       2 UNK        -0.1831 
     24 N          19.8037  -25.2034  -44.6176 N.am      2 UNK        -0.4498 
     25 C          18.5535  -24.7292  -44.5644 C.2       1 UNK         0.5027 
     26 O          18.1638  -23.9011  -43.7371 O.2       1 UNK        -0.4969 
     27 C          20.6954  -27.6322  -40.0383 C.2       3 UNK         0.5005 
     28 O          20.5842  -26.5908  -39.3865 O.2       3 UNK        -0.5279 
     29 N          21.5828  -28.5969  -39.7666 N.am      4 UNK        -0.4463 
     30 CA         22.6176  -28.6355  -38.7228 C.3       4 UNK         0.0283 
     31 CB         22.0178  -28.4943  -37.3108 C.3       4 UNK        -0.1875 
     32 C          23.7809  -27.6501  -38.9436 C.2       4 UNK         0.4949 
     33 O          24.9109  -27.9803  -38.5853 O.2       4 UNK        -0.5039 
     34 N          23.5055  -26.4821  -39.5387 N.am      5 UNK        -0.4663 
     35 CA         24.4904  -25.4683  -39.9189 C.3       5 UNK         0.0242 
     36 CB         23.7666  -24.1808  -40.3460 C.3       5 UNK        -0.1982 
     37 C          25.4432  -25.9627  -41.0193 C.2       5 UNK         0.5017 
     38 O          26.6584  -25.8350  -40.8640 O.2       5 UNK        -0.5012 
     39 N          24.8781  -26.5365  -42.0905 N.am      6 UNK        -0.4439 
     40 CA         25.6252  -27.2174  -43.1475 C.3       6 UNK         0.0297 
     41 CB         24.9228  -27.0316  -44.5026 C.3       6 UNK        -0.2006 
     42 C          25.7875  -28.7047  -42.8093 C.2       6 UNK         0.4892 
     43 O          26.9128  -29.2052  -42.8197 O.2       6 UNK        -0.5089 
     44 N          24.6709  -29.3772  -42.5002 N.am      7 UNK        -0.4243 
     45 CA         24.6165  -30.7880  -42.1273 C.3       7 UNK         0.0196 
     46 CB         24.8097  -31.6821  -43.3687 C.3       7 UNK        -0.2007 
     47 C          23.2655  -31.0861  -41.4758 C.2       7 UNK         0.5020 
     48 O          22.2717  -30.4313  -41.7958 O.2       7 UNK        -0.5147 
     49 N          23.2397  -32.1014  -40.6091 N.am      8 UNK        -0.4734 
     50 CA         22.0254  -32.7002  -40.0510 C.3       8 UNK         0.0238 
     51 CB         22.1434  -32.7644  -38.5161 C.3       8 UNK        -0.1912 
     52 C          21.8565  -34.0846  -40.6968 C.2       8 UNK         0.5038 
     53 O          21.9618  -35.1074  -40.0174 O.2       8 UNK        -0.5046 
     54 N          21.6912  -34.0762  -42.0247 N.am      9 UNK        -0.4200 
     55 CA         21.6190  -35.2576  -42.8933 C.3       9 UNK         0.0839 
     56 C          20.4052  -36.1896  -42.6065 C.2       9 UNK         0.5513 
     57 N          20.4974  -37.4553  -42.9922 N.am      9 UNK        -0.7519 
     58 O          19.3800  -35.7771  -42.0671 O.2       9 UNK        -0.4960 
     59 C59        21.7395  -34.8518  -44.3899 C.3       10 UNK        -0.0876 
     60 S60        20.3005  -33.9370  -45.0469 S.3       10 UNK        -0.2414 
     61 C61        20.7782  -32.2007  -44.7882 C.3       10 UNK         0.0169 
     62 H62        15.5698  -21.5198  -46.5702 H         1 UNK         0.0903 
     63 H63        15.1500  -22.4887  -47.9858 H         1 UNK         0.0903 
     64 H64        14.5076  -22.9189  -46.3996 H         1 UNK         0.0903 
     65 H65        15.5713  -24.6633  -45.4764 H         1 UNK         0.3096 
     66 H66        18.0875  -25.6574  -46.4453 H         1 UNK         0.1121 
     67 H67        16.3926  -26.4380  -44.0066 H         1 UNK         0.0849 
     68 H68        17.8374  -27.2785  -44.4805 H         1 UNK         0.0849 
     69 H69        16.7288  -29.7091  -47.1519 H         1 UNK         0.0865 
     70 H70        18.0338  -28.5587  -47.0120 H         1 UNK         0.0865 
     71 H71        19.4197  -30.5828  -46.5165 H         1 UNK         0.1346 
     72 H72        19.3988  -31.9621  -42.4586 H         1 UNK         0.1412 
     73 H73        16.2996  -29.3563  -43.8316 H         1 UNK         0.1426 
     74 H74        16.9532  -31.7089  -41.3407 H         1 UNK         0.0716 
     75 H75        16.1861  -30.1664  -41.6228 H         1 UNK         0.0716 
     76 H76        17.9733  -27.5207  -40.1530 H         1 UNK         0.0695 
     77 H77        17.7117  -28.0557  -41.7863 H         1 UNK         0.0695 
     78 H78        20.2351  -28.6629  -41.8787 H         1 UNK         0.0983 
     79 H79        19.0425  -26.1278  -42.2689 H         1 UNK         0.3095 
     80 H80        20.5766  -24.1145  -42.9767 H         1 UNK         0.0454 
     81 H81        22.4731  -25.3510  -45.0437 H         1 UNK         0.0851 
     82 H82        22.9638  -24.3827  -43.6595 H         1 UNK         0.0851 
     83 H83        22.0189  -23.6528  -44.9448 H         1 UNK         0.0851 
     84 H84        20.0242  -25.9069  -45.3094 H         1 UNK         0.2976 
     85 H85        21.6431  -29.3595  -40.4402 H         1 UNK         0.3116 
     86 H86        23.0535  -29.6327  -38.7885 H         1 UNK         0.0646 
     87 H87        21.6012  -27.5016  -37.1390 H         1 UNK         0.0847 
     88 H88        22.7807  -28.6583  -36.5488 H         1 UNK         0.0847 
     89 H89        21.2273  -29.2251  -37.1409 H         1 UNK         0.0847 
     90 H90        22.5310  -26.2869  -39.7432 H         1 UNK         0.3040 
     91 H91        25.0950  -25.2429  -39.0374 H         1 UNK         0.1015 
     92 H92        23.0956  -24.3509  -41.1878 H         1 UNK         0.0786 
     93 H93        24.4805  -23.4123  -40.6462 H         1 UNK         0.0786 
     94 H94        23.1755  -23.7705  -39.5271 H         1 UNK         0.0786 
     95 H95        23.8620  -26.5927  -42.1415 H         1 UNK         0.3172 
     96 H96        26.6222  -26.7799  -43.2338 H         1 UNK         0.0595 
     97 H97        25.4702  -27.5418  -45.2963 H         1 UNK         0.0839 
     98 H98        24.8696  -25.9779  -44.7751 H         1 UNK         0.0839 
     99 H99        23.9084  -27.4314  -44.5000 H         1 UNK         0.0839 
    100 H100       23.7751  -28.9041  -42.5010 H         1 UNK         0.2998 
    101 H101       25.4066  -30.9891  -41.4004 H         1 UNK         0.0822 
    102 H102       24.7279  -32.7391  -43.1117 H         1 UNK         0.0787 
    103 H103       24.0610  -31.4725  -44.1339 H         1 UNK         0.0787 
    104 H104       25.7927  -31.5386  -43.8174 H         1 UNK         0.0787 
    105 H105       24.0982  -32.6047  -40.4282 H         1 UNK         0.3055 
    106 H106       21.1393  -32.1099  -40.2979 H         1 UNK         0.1106 
    107 H107       21.2638  -33.2377  -38.0779 H         1 UNK         0.0828 
    108 H108       23.0154  -33.3371  -38.1981 H         1 UNK         0.0828 
    109 H109       22.2209  -31.7685  -38.0815 H         1 UNK         0.0828 
    110 H110       21.6054  -33.1861  -42.4887 H         1 UNK         0.2931 
    111 H111       22.5101  -35.8427  -42.6562 H         1 UNK         0.0412 
    112 H112       19.7194  -38.0752  -42.8269 H         1 UNK         0.3472 
    113 H113       21.3299  -37.8068  -43.4399 H         1 UNK         0.3472 
    114 H114       21.8681  -35.7457  -45.0026 H         1 UNK         0.0970 
    115 H115       22.6455  -34.2650  -44.5507 H         1 UNK         0.0970 
    116 H116       21.3133  -31.8392  -45.6676 H         1 UNK         0.0612 
    117 H117       21.4679  -32.1071  -43.9501 H         1 UNK         0.0612 
@<TRIPOS>BOND
     1    1    2 1    
     2    1   62 1    
     3    1   63 1    
     4    1   64 1    
     5    2    3 2    
     6    2    4 am   BACKBONE|DICT|INTERRES
     7    4    5 1    
     8    4   65 1    
     9    5    6 1    
    10    5   25 1    
    11    5   66 1    
    12    6    7 1    
    13    6   67 1    
    14    6   68 1    
    15    7    8 1    
    16    8    9 1    
    17    8   69 1    
    18    8   70 1    
    19    9   10 ar   
    20    9   14 ar   
    21   10   11 ar   
    22   10   71 1    
    23   11   12 ar   
    24   11   61 1    
    25   12   13 ar   
    26   12   72 1    
    27   13   14 ar   
    28   13   15 1    
    29   14   73 1    
    30   15   16 1    
    31   15   74 1    
    32   15   75 1    
    33   16   17 1    
    34   17   18 1    
    35   17   76 1    
    36   17   77 1    
    37   18   19 1    
    38   18   27 1    
    39   18   78 1    
    40   19   20 am   BACKBONE|DICT|INTERRES
    41   19   79 1    
    42   20   21 2    
    43   20   22 1    
    44   22   23 1    
    45   22   24 1    
    46   22   80 1    
    47   23   81 1    
    48   23   82 1    
    49   23   83 1    
    50   24   25 am   BACKBONE|DICT|INTERRES
    51   24   84 1    
    52   25   26 2    
    53   27   28 2    
    54   27   29 am   BACKBONE|DICT|INTERRES
    55   29   30 1    
    56   29   85 1    
    57   30   31 1    
    58   30   32 1    
    59   30   86 1    
    60   31   87 1    
    61   31   88 1    
    62   31   89 1    
    63   32   33 2    
    64   32   34 am   BACKBONE|DICT|INTERRES
    65   34   35 1    
    66   34   90 1    
    67   35   36 1    
    68   35   37 1    
    69   35   91 1    
    70   36   92 1    
    71   36   93 1    
    72   36   94 1    
    73   37   38 2    
    74   37   39 am   BACKBONE|DICT|INTERRES
    75   39   40 1    
    76   39   95 1    
    77   40   41 1    
    78   40   42 1    
    79   40   96 1    
    80   41   97 1    
    81   41   98 1    
    82   41   99 1    
    83   42   43 2    
    84   42   44 am   BACKBONE|DICT|INTERRES
    85   44   45 1    
    86   44  100 1    
    87   45   46 1    
    88   45   47 1    
    89   45  101 1    
    90   46  102 1    
    91   46  103 1    
    92   46  104 1    
    93   47   48 2    
    94   47   49 am   BACKBONE|DICT|INTERRES
    95   49   50 1    
    96   49  105 1    
    97   50   51 1    
    98   50   52 1    
    99   50  106 1    
   100   51  107 1    
   101   51  108 1    
   102   51  109 1    
   103   52   53 2    
   104   52   54 am   BACKBONE|DICT|INTERRES
   105   54   55 1    
   106   54  110 1    
   107   55   56 1    
   108   55   59 1    
   109   55  111 1    
   110   56   57 am   BACKBONE|DICT|INTERRES
   111   56   58 2    
   112   57  112 1    
   113   57  113 1    
   114   59   60 1    
   115   59  114 1    
   116   59  115 1    
   117   60   61 1    
   118   61  116 1    
   119   61  117 1    
@<TRIPOS>SUBSTRUCTURE
     1 UNK         1 GROUP             0       ****    0 ROOT    
