@<TRIPOS>MOLECULE
3R8
117   119    1
SMALL
USER_CHARGES


@<TRIPOS>ATOM
      1 CA         21.5247  -23.7059  -47.7280 C.3       0 UNK        -0.2013 
      2 C          20.2645  -24.3078  -47.1246 C.2       0 UNK         0.4866 
      3 O          19.2347  -23.6357  -47.0692 O.2       0 UNK        -0.5176 
      4 N          20.3468  -25.5655  -46.6671 N.am      1 UNK        -0.4884 
      5 CA         19.2548  -26.3545  -46.0708 C.3       1 UNK         0.0853 
      6 C6         18.1339  -26.7242  -47.0808 C.3       10 UNK        -0.0849 
      7 S7         18.7675  -27.8863  -48.3373 S.3       10 UNK        -0.2776 
      8 C8         17.9886  -29.4586  -47.8330 C.3       10 UNK         0.0316 
      9 C9         18.2667  -29.8346  -46.3801 C.ar      10 UNK        -0.0863 
     10 C10        19.5618  -30.1604  -45.9643 C.ar      10 UNK        -0.1009 
     11 C11        19.8066  -30.5357  -44.6400 C.ar      10 UNK        -0.0712 
     12 C12        18.7448  -30.5915  -43.7337 C.ar      10 UNK        -0.0894 
     13 C13        17.4410  -30.2733  -44.1308 C.ar      10 UNK        -0.0745 
     14 C14        17.2157  -29.8907  -45.4574 C.ar      10 UNK        -0.0972 
     15 C15        16.2432  -30.3989  -43.1853 C.3       10 UNK         0.0209 
     16 S16        16.6305  -30.3405  -41.3979 S.3       10 UNK        -0.2568 
     17 C17        16.8499  -28.5528  -41.1071 C.3       10 UNK        -0.0983 
     18 CA         18.3377  -28.1276  -40.9758 C.3       3 UNK         0.0876 
     19 N          18.4990  -26.7291  -41.3923 N.am      3 UNK        -0.4424 
     20 C          19.6266  -26.1435  -41.8085 C.2       2 UNK         0.4918 
     21 O          20.7498  -26.6427  -41.7058 O.2       2 UNK        -0.4875 
     22 CA         19.4639  -24.8189  -42.5677 C.3       2 UNK         0.0481 
     23 CB         20.5125  -23.7816  -42.1349 C.3       2 UNK        -0.1831 
     24 N          19.6222  -25.1047  -43.9921 N.am      2 UNK        -0.4498 
     25 C          18.7298  -25.7713  -44.7399 C.2       1 UNK         0.5027 
     26 O          17.5693  -25.9802  -44.3807 O.2       1 UNK        -0.4969 
     27 C          18.9775  -28.4621  -39.6031 C.2       3 UNK         0.5005 
     28 O          18.3055  -28.9814  -38.7103 O.2       3 UNK        -0.5279 
     29 N          20.2738  -28.1607  -39.4784 N.am      4 UNK        -0.4463 
     30 CA         21.1918  -28.4432  -38.3742 C.3       4 UNK         0.0283 
     31 CB         20.6668  -27.9311  -37.0153 C.3       4 UNK        -0.1875 
     32 C          22.5489  -27.7953  -38.6772 C.2       4 UNK         0.4949 
     33 O          23.5841  -28.4368  -38.5028 O.2       4 UNK        -0.5039 
     34 N          22.5171  -26.5276  -39.1141 N.am      5 UNK        -0.4663 
     35 CA         23.7055  -25.7109  -39.3680 C.3       5 UNK         0.0242 
     36 CB         23.3296  -24.2239  -39.2688 C.3       5 UNK        -0.1982 
     37 C          24.3849  -26.0054  -40.7147 C.2       5 UNK         0.5017 
     38 O          25.6040  -25.8547  -40.8035 O.2       5 UNK        -0.5012 
     39 N          23.6067  -26.3983  -41.7359 N.am      6 UNK        -0.4439 
     40 CA         24.1144  -26.7196  -43.0745 C.3       6 UNK         0.0297 
     41 CB         22.9501  -26.8108  -44.0755 C.3       6 UNK        -0.2006 
     42 C          24.9483  -28.0100  -43.0903 C.2       6 UNK         0.4892 
     43 O          26.0261  -28.0290  -43.6856 O.2       6 UNK        -0.5089 
     44 N          24.4364  -29.0453  -42.4172 N.am      7 UNK        -0.4243 
     45 CA         25.0381  -30.3607  -42.2295 C.3       7 UNK         0.0196 
     46 CB         25.1898  -31.1029  -43.5745 C.3       7 UNK        -0.2007 
     47 C          24.1361  -31.1554  -41.2802 C.2       7 UNK         0.5020 
     48 O          22.9652  -30.8064  -41.1039 O.2       7 UNK        -0.5147 
     49 N          24.6739  -32.2449  -40.7227 N.am      8 UNK        -0.4734 
     50 CA         23.9397  -33.2051  -39.8948 C.3       8 UNK         0.0238 
     51 CB         24.9241  -33.8799  -38.9203 C.3       8 UNK        -0.1912 
     52 C          23.1795  -34.2195  -40.7730 C.2       8 UNK         0.5038 
     53 O          23.4502  -35.4202  -40.7017 O.2       8 UNK        -0.5046 
     54 N          22.2710  -33.7101  -41.6144 N.am      9 UNK        -0.4200 
     55 CA         21.4095  -34.4919  -42.5138 C.3       9 UNK         0.0839 
     56 C          20.4452  -35.4370  -41.7449 C.2       9 UNK         0.5513 
     57 N          20.1721  -36.6167  -42.2850 N.am      9 UNK        -0.7519 
     58 O          19.9106  -35.0918  -40.6929 O.2       9 UNK        -0.4960 
     59 C59        20.6080  -33.5781  -43.4756 C.3       10 UNK        -0.0876 
     60 S60        21.6722  -32.5982  -44.5917 S.3       10 UNK        -0.2414 
     61 C61        21.2161  -30.8820  -44.1821 C.3       10 UNK         0.0169 
     62 H62        22.3606  -24.4052  -47.7127 H         1 UNK         0.0903 
     63 H63        21.3433  -23.4181  -48.7632 H         1 UNK         0.0903 
     64 H64        21.8179  -22.8150  -47.1732 H         1 UNK         0.0903 
     65 H65        21.2215  -26.0616  -46.7695 H         1 UNK         0.3096 
     66 H66        19.7175  -27.2917  -45.7576 H         1 UNK         0.1121 
     67 H67        17.7457  -25.8344  -47.5778 H         1 UNK         0.0849 
     68 H68        17.2769  -27.1833  -46.5858 H         1 UNK         0.0849 
     69 H69        16.9151  -29.3916  -48.0165 H         1 UNK         0.0865 
     70 H70        18.3550  -30.2556  -48.4816 H         1 UNK         0.0865 
     71 H71        20.3781  -30.1259  -46.6731 H         1 UNK         0.1346 
     72 H72        18.9405  -30.9013  -42.7181 H         1 UNK         0.1412 
     73 H73        16.2096  -29.6561  -45.7783 H         1 UNK         0.1426 
     74 H74        15.7605  -31.3554  -43.3893 H         1 UNK         0.0716 
     75 H75        15.5016  -29.6319  -43.4136 H         1 UNK         0.0716 
     76 H76        16.2757  -28.2615  -40.2256 H         1 UNK         0.0695 
     77 H77        16.3817  -28.0256  -41.9401 H         1 UNK         0.0695 
     78 H78        18.9040  -28.7104  -41.7037 H         1 UNK         0.0983 
     79 H79        17.6361  -26.2232  -41.5311 H         1 UNK         0.3095 
     80 H80        18.4695  -24.4055  -42.3861 H         1 UNK         0.0454 
     81 H81        21.5319  -24.1321  -42.3009 H         1 UNK         0.0851 
     82 H82        20.4119  -23.5502  -41.0740 H         1 UNK         0.0851 
     83 H83        20.3902  -22.8461  -42.6808 H         1 UNK         0.0851 
     84 H84        20.5438  -24.9685  -44.3788 H         1 UNK         0.2976 
     85 H85        20.7030  -27.7232  -40.2926 H         1 UNK         0.3116 
     86 H86        21.3356  -29.5241  -38.3207 H         1 UNK         0.0646 
     87 H87        20.3706  -26.8829  -37.0632 H         1 UNK         0.0847 
     88 H88        21.4318  -28.0189  -36.2424 H         1 UNK         0.0847 
     89 H89        19.8088  -28.5065  -36.6694 H         1 UNK         0.0847 
     90 H90        21.6218  -26.0718  -39.2157 H         1 UNK         0.3040 
     91 H91        24.4390  -25.9218  -38.5858 H         1 UNK         0.1015 
     92 H92        22.5941  -23.9402  -40.0205 H         1 UNK         0.0786 
     93 H93        24.2054  -23.5901  -39.4163 H         1 UNK         0.0786 
     94 H94        22.9196  -23.9823  -38.2879 H         1 UNK         0.0786 
     95 H95        22.6043  -26.4876  -41.5908 H         1 UNK         0.3172 
     96 H96        24.7640  -25.9012  -43.3929 H         1 UNK         0.0595 
     97 H97        23.3141  -27.0539  -45.0746 H         1 UNK         0.0839 
     98 H98        22.4223  -25.8613  -44.1462 H         1 UNK         0.0839 
     99 H99        22.2290  -27.5799  -43.7955 H         1 UNK         0.0839 
    100 H100       23.5501  -28.9388  -41.9381 H         1 UNK         0.2998 
    101 H101       26.0154  -30.2342  -41.7597 H         1 UNK         0.0822 
    102 H102       25.5325  -32.1280  -43.4290 H         1 UNK         0.0787 
    103 H103       24.2450  -31.1500  -44.1147 H         1 UNK         0.0787 
    104 H104       25.9182  -30.6176  -44.2234 H         1 UNK         0.0787 
    105 H105       25.6291  -32.4856  -40.9480 H         1 UNK         0.3055 
    106 H106       23.1945  -32.6740  -39.2973 H         1 UNK         0.1106 
    107 H107       24.4062  -34.5841  -38.2677 H         1 UNK         0.0828 
    108 H108       25.7016  -34.4345  -39.4472 H         1 UNK         0.0828 
    109 H109       25.4117  -33.1460  -38.2784 H         1 UNK         0.0828 
    110 H110       22.1373  -32.7065  -41.6155 H         1 UNK         0.2931 
    111 H111       22.0724  -35.1148  -43.1183 H         1 UNK         0.0412 
    112 H112       20.5985  -36.9044  -43.1526 H         1 UNK         0.3472 
    113 H113       19.5358  -37.2384  -41.8101 H         1 UNK         0.3472 
    114 H114       19.9551  -32.9236  -42.9002 H         1 UNK         0.0970 
    115 H115       19.9481  -34.1752  -44.1081 H         1 UNK         0.0970 
    116 H116       21.9289  -30.2056  -44.6559 H         1 UNK         0.0612 
    117 H117       21.3163  -30.7236  -43.1085 H         1 UNK         0.0612 
@<TRIPOS>BOND
     1    1    2 1    
     2    1   62 1    
     3    1   63 1    
     4    1   64 1    
     5    2    3 2    
     6    2    4 am   BACKBONE|DICT|INTERRES
     7    4    5 1    
     8    4   65 1    
     9    5    6 1    
    10    5   25 1    
    11    5   66 1    
    12    6    7 1    
    13    6   67 1    
    14    6   68 1    
    15    7    8 1    
    16    8    9 1    
    17    8   69 1    
    18    8   70 1    
    19    9   10 ar   
    20    9   14 ar   
    21   10   11 ar   
    22   10   71 1    
    23   11   12 ar   
    24   11   61 1    
    25   12   13 ar   
    26   12   72 1    
    27   13   14 ar   
    28   13   15 1    
    29   14   73 1    
    30   15   16 1    
    31   15   74 1    
    32   15   75 1    
    33   16   17 1    
    34   17   18 1    
    35   17   76 1    
    36   17   77 1    
    37   18   19 1    
    38   18   27 1    
    39   18   78 1    
    40   19   20 am   BACKBONE|DICT|INTERRES
    41   19   79 1    
    42   20   21 2    
    43   20   22 1    
    44   22   23 1    
    45   22   24 1    
    46   22   80 1    
    47   23   81 1    
    48   23   82 1    
    49   23   83 1    
    50   24   25 am   BACKBONE|DICT|INTERRES
    51   24   84 1    
    52   25   26 2    
    53   27   28 2    
    54   27   29 am   BACKBONE|DICT|INTERRES
    55   29   30 1    
    56   29   85 1    
    57   30   31 1    
    58   30   32 1    
    59   30   86 1    
    60   31   87 1    
    61   31   88 1    
    62   31   89 1    
    63   32   33 2    
    64   32   34 am   BACKBONE|DICT|INTERRES
    65   34   35 1    
    66   34   90 1    
    67   35   36 1    
    68   35   37 1    
    69   35   91 1    
    70   36   92 1    
    71   36   93 1    
    72   36   94 1    
    73   37   38 2    
    74   37   39 am   BACKBONE|DICT|INTERRES
    75   39   40 1    
    76   39   95 1    
    77   40   41 1    
    78   40   42 1    
    79   40   96 1    
    80   41   97 1    
    81   41   98 1    
    82   41   99 1    
    83   42   43 2    
    84   42   44 am   BACKBONE|DICT|INTERRES
    85   44   45 1    
    86   44  100 1    
    87   45   46 1    
    88   45   47 1    
    89   45  101 1    
    90   46  102 1    
    91   46  103 1    
    92   46  104 1    
    93   47   48 2    
    94   47   49 am   BACKBONE|DICT|INTERRES
    95   49   50 1    
    96   49  105 1    
    97   50   51 1    
    98   50   52 1    
    99   50  106 1    
   100   51  107 1    
   101   51  108 1    
   102   51  109 1    
   103   52   53 2    
   104   52   54 am   BACKBONE|DICT|INTERRES
   105   54   55 1    
   106   54  110 1    
   107   55   56 1    
   108   55   59 1    
   109   55  111 1    
   110   56   57 am   BACKBONE|DICT|INTERRES
   111   56   58 2    
   112   57  112 1    
   113   57  113 1    
   114   59   60 1    
   115   59  114 1    
   116   59  115 1    
   117   60   61 1    
   118   61  116 1    
   119   61  117 1    
@<TRIPOS>SUBSTRUCTURE
     1 UNK         1 GROUP             0       ****    0 ROOT    
