@<TRIPOS>MOLECULE
3R8
117   119    1
SMALL
USER_CHARGES


@<TRIPOS>ATOM
      1 CA         17.6012  -27.9730  -49.1907 C.3       0 UNK        -0.2013 
      2 C          17.8470  -28.0493  -47.6918 C.2       0 UNK         0.4866 
      3 O          18.8223  -28.6649  -47.2593 O.2       0 UNK        -0.5176 
      4 N          16.9810  -27.4171  -46.8897 N.am      1 UNK        -0.4884 
      5 CA         17.0282  -27.3982  -45.4205 C.3       1 UNK         0.0853 
      6 C6         15.6220  -27.1693  -44.8069 C.3       10 UNK        -0.0849 
      7 S7         14.5240  -28.5896  -45.1399 S.3       10 UNK        -0.2776 
      8 C8         14.3499  -29.3476  -43.4864 C.3       10 UNK         0.0316 
      9 C9         15.6833  -29.6196  -42.7949 C.ar      10 UNK        -0.0863 
     10 C10        16.6609  -30.4065  -43.4104 C.ar      10 UNK        -0.1009 
     11 C11        17.8862  -30.6401  -42.7796 C.ar      10 UNK        -0.0712 
     12 C12        18.1172  -30.1158  -41.5039 C.ar      10 UNK        -0.0894 
     13 C13        17.1407  -29.3410  -40.8665 C.ar      10 UNK        -0.0745 
     14 C14        15.9316  -29.0916  -41.5241 C.ar      10 UNK        -0.0972 
     15 C15        17.3441  -28.8033  -39.4513 C.3       10 UNK         0.0209 
     16 S16        19.0014  -28.1143  -39.1281 S.3       10 UNK        -0.2568 
     17 C17        19.0991  -26.7377  -40.3208 C.3       10 UNK        -0.0983 
     18 CA         20.3805  -26.8294  -41.1876 C.3       3 UNK         0.0876 
     19 N          20.1654  -26.2769  -42.5300 N.am      3 UNK        -0.4424 
     20 C          21.0251  -26.3541  -43.5549 C.2       2 UNK         0.4918 
     21 O          22.1567  -26.8311  -43.4590 O.2       2 UNK        -0.4875 
     22 CA         20.5168  -25.8203  -44.9078 C.3       2 UNK         0.0481 
     23 CB         21.5898  -25.8890  -46.0097 C.3       2 UNK        -0.1831 
     24 N          19.3334  -26.5598  -45.3505 N.am      2 UNK        -0.4498 
     25 C          18.0858  -26.4067  -44.8884 C.2       1 UNK         0.5027 
     26 O          17.7781  -25.5444  -44.0622 O.2       1 UNK        -0.4969 
     27 C          21.6064  -26.2300  -40.4622 C.2       3 UNK         0.5005 
     28 O          22.2211  -26.9129  -39.6415 O.2       3 UNK        -0.5279 
     29 N          21.9750  -24.9895  -40.8210 N.am      4 UNK        -0.4463 
     30 CA         23.1682  -24.2769  -40.3537 C.3       4 UNK         0.0283 
     31 CB         23.2003  -22.8754  -40.9833 C.3       4 UNK        -0.1875 
     32 C          24.4931  -25.0150  -40.6251 C.2       4 UNK         0.4949 
     33 O          25.4451  -24.8303  -39.8667 O.2       4 UNK        -0.5039 
     34 N          24.5297  -25.8798  -41.6501 N.am      5 UNK        -0.4663 
     35 CA         25.6439  -26.7838  -41.9487 C.3       5 UNK         0.0242 
     36 CB         25.6118  -27.1367  -43.4479 C.3       5 UNK        -0.1982 
     37 C          25.6178  -28.0352  -41.0448 C.2       5 UNK         0.5017 
     38 O          25.6526  -29.1572  -41.5500 O.2       5 UNK        -0.5012 
     39 N          25.5274  -27.8195  -39.7232 N.am      6 UNK        -0.4439 
     40 CA         25.5210  -28.8150  -38.6404 C.3       6 UNK         0.0297 
     41 CB         26.9414  -29.3886  -38.4528 C.3       6 UNK        -0.2006 
     42 C          24.4568  -29.9250  -38.7941 C.2       6 UNK         0.4892 
     43 O          24.7028  -31.0625  -38.3883 O.2       6 UNK        -0.5089 
     44 N          23.3070  -29.5794  -39.3945 N.am      7 UNK        -0.4243 
     45 CA         22.1927  -30.4622  -39.7645 C.3       7 UNK         0.0196 
     46 CB         21.4425  -30.9438  -38.5052 C.3       7 UNK        -0.2007 
     47 C          22.5850  -31.6264  -40.7022 C.2       7 UNK         0.5020 
     48 O          21.9239  -32.6663  -40.6873 O.2       7 UNK        -0.5147 
     49 N          23.6444  -31.4525  -41.5067 N.am      8 UNK        -0.4734 
     50 CA         24.1525  -32.4588  -42.4419 C.3       8 UNK         0.0238 
     51 CB         25.6340  -32.1676  -42.7444 C.3       8 UNK        -0.1912 
     52 C          23.2958  -32.5197  -43.7189 C.2       8 UNK         0.5038 
     53 O          23.7009  -31.9943  -44.7581 O.2       8 UNK        -0.5046 
     54 N          22.1155  -33.1398  -43.6061 N.am      9 UNK        -0.4200 
     55 CA         21.1771  -33.3972  -44.7079 C.3       9 UNK         0.0839 
     56 C          21.7945  -34.2633  -45.8415 C.2       9 UNK         0.5513 
     57 N          21.4472  -33.9895  -47.0915 N.am      9 UNK        -0.7519 
     58 O          22.5423  -35.2071  -45.5927 O.2       9 UNK        -0.4960 
     59 C59        19.8644  -34.0531  -44.1996 C.3       10 UNK        -0.0876 
     60 S60        18.9951  -33.1631  -42.8613 S.3       10 UNK        -0.2414 
     61 C61        18.9584  -31.4557  -43.4824 C.3       10 UNK         0.0169 
     62 H62        16.7065  -27.3981  -49.4289 H         1 UNK         0.0903 
     63 H63        18.4497  -27.5021  -49.6863 H         1 UNK         0.0903 
     64 H64        17.4796  -28.9750  -49.6013 H         1 UNK         0.0903 
     65 H65        16.2074  -26.9141  -47.3014 H         1 UNK         0.3096 
     66 H66        17.3727  -28.3780  -45.0853 H         1 UNK         0.1121 
     67 H67        15.6793  -27.0154  -43.7277 H         1 UNK         0.0849 
     68 H68        15.1663  -26.2644  -45.2125 H         1 UNK         0.0849 
     69 H69        13.7227  -28.6975  -42.8742 H         1 UNK         0.0865 
     70 H70        13.8060  -30.2879  -43.5856 H         1 UNK         0.0865 
     71 H71        16.4721  -30.8212  -44.3914 H         1 UNK         0.1346 
     72 H72        19.0536  -30.3226  -41.0046 H         1 UNK         0.1412 
     73 H73        15.1721  -28.4960  -41.0357 H         1 UNK         0.1426 
     74 H74        17.1654  -29.6162  -38.7464 H         1 UNK         0.0716 
     75 H75        16.6065  -28.0322  -39.2233 H         1 UNK         0.0716 
     76 H76        18.2116  -26.7715  -40.9546 H         1 UNK         0.0695 
     77 H77        19.0383  -25.7887  -39.7844 H         1 UNK         0.0695 
     78 H78        20.6078  -27.8842  -41.3534 H         1 UNK         0.0983 
     79 H79        19.2508  -25.8805  -42.7214 H         1 UNK         0.3095 
     80 H80        20.2482  -24.7713  -44.7681 H         1 UNK         0.0454 
     81 H81        22.4801  -25.3269  -45.7247 H         1 UNK         0.0851 
     82 H82        21.2257  -25.4642  -46.9452 H         1 UNK         0.0851 
     83 H83        21.9017  -26.9156  -46.2068 H         1 UNK         0.0851 
     84 H84        19.4841  -27.3113  -46.0185 H         1 UNK         0.2976 
     85 H85        21.4056  -24.5139  -41.5058 H         1 UNK         0.3116 
     86 H86        23.0760  -24.1655  -39.2714 H         1 UNK         0.0646 
     87 H87        23.2629  -22.9222  -42.0713 H         1 UNK         0.0847 
     88 H88        22.3129  -22.2994  -40.7205 H         1 UNK         0.0847 
     89 H89        24.0649  -22.3100  -40.6323 H         1 UNK         0.0847 
     90 H90        23.6876  -26.0201  -42.1978 H         1 UNK         0.3040 
     91 H91        26.5855  -26.2667  -41.7506 H         1 UNK         0.1015 
     92 H92        26.4700  -27.7510  -43.7233 H         1 UNK         0.0786 
     93 H93        25.6428  -26.2410  -44.0683 H         1 UNK         0.0786 
     94 H94        24.7135  -27.6964  -43.7118 H         1 UNK         0.0786 
     95 H95        25.4743  -26.8489  -39.4308 H         1 UNK         0.3172 
     96 H96        25.2589  -28.2721  -37.7312 H         1 UNK         0.0595 
     97 H97        27.2490  -29.9857  -39.3122 H         1 UNK         0.0839 
     98 H98        26.9948  -30.0313  -37.5732 H         1 UNK         0.0839 
     99 H99        27.6761  -28.5954  -38.3151 H         1 UNK         0.0839 
    100 H100       23.1718  -28.5973  -39.6240 H         1 UNK         0.2998 
    101 H101       21.5019  -29.8442  -40.3373 H         1 UNK         0.0822 
    102 H102       20.5231  -31.4664  -38.7723 H         1 UNK         0.0787 
    103 H103       21.1609  -30.1054  -37.8680 H         1 UNK         0.0787 
    104 H104       22.0481  -31.6294  -37.9118 H         1 UNK         0.0787 
    105 H105       24.1604  -30.5784  -41.4649 H         1 UNK         0.3055 
    106 H106       24.1056  -33.4401  -41.9637 H         1 UNK         0.1106 
    107 H107       26.2299  -32.1511  -41.8316 H         1 UNK         0.0828 
    108 H108       26.0561  -32.9339  -43.3957 H         1 UNK         0.0828 
    109 H109       25.7655  -31.2077  -43.2453 H         1 UNK         0.0828 
    110 H110       21.8323  -33.4626  -42.6886 H         1 UNK         0.2931 
    111 H111       20.9348  -32.4252  -45.1404 H         1 UNK         0.0412 
    112 H112       21.8237  -34.5519  -47.8391 H         1 UNK         0.3472 
    113 H113       20.8271  -33.2237  -47.3060 H         1 UNK         0.3472 
    114 H114       19.1597  -34.1669  -45.0257 H         1 UNK         0.0970 
    115 H115       20.0649  -35.0645  -43.8401 H         1 UNK         0.0970 
    116 H116       19.9351  -30.9929  -43.3316 H         1 UNK         0.0612 
    117 H117       18.7765  -31.4616  -44.5585 H         1 UNK         0.0612 
@<TRIPOS>BOND
     1    1    2 1    
     2    1   62 1    
     3    1   63 1    
     4    1   64 1    
     5    2    3 2    
     6    2    4 am   BACKBONE|DICT|INTERRES
     7    4    5 1    
     8    4   65 1    
     9    5    6 1    
    10    5   25 1    
    11    5   66 1    
    12    6    7 1    
    13    6   67 1    
    14    6   68 1    
    15    7    8 1    
    16    8    9 1    
    17    8   69 1    
    18    8   70 1    
    19    9   10 ar   
    20    9   14 ar   
    21   10   11 ar   
    22   10   71 1    
    23   11   12 ar   
    24   11   61 1    
    25   12   13 ar   
    26   12   72 1    
    27   13   14 ar   
    28   13   15 1    
    29   14   73 1    
    30   15   16 1    
    31   15   74 1    
    32   15   75 1    
    33   16   17 1    
    34   17   18 1    
    35   17   76 1    
    36   17   77 1    
    37   18   19 1    
    38   18   27 1    
    39   18   78 1    
    40   19   20 am   BACKBONE|DICT|INTERRES
    41   19   79 1    
    42   20   21 2    
    43   20   22 1    
    44   22   23 1    
    45   22   24 1    
    46   22   80 1    
    47   23   81 1    
    48   23   82 1    
    49   23   83 1    
    50   24   25 am   BACKBONE|DICT|INTERRES
    51   24   84 1    
    52   25   26 2    
    53   27   28 2    
    54   27   29 am   BACKBONE|DICT|INTERRES
    55   29   30 1    
    56   29   85 1    
    57   30   31 1    
    58   30   32 1    
    59   30   86 1    
    60   31   87 1    
    61   31   88 1    
    62   31   89 1    
    63   32   33 2    
    64   32   34 am   BACKBONE|DICT|INTERRES
    65   34   35 1    
    66   34   90 1    
    67   35   36 1    
    68   35   37 1    
    69   35   91 1    
    70   36   92 1    
    71   36   93 1    
    72   36   94 1    
    73   37   38 2    
    74   37   39 am   BACKBONE|DICT|INTERRES
    75   39   40 1    
    76   39   95 1    
    77   40   41 1    
    78   40   42 1    
    79   40   96 1    
    80   41   97 1    
    81   41   98 1    
    82   41   99 1    
    83   42   43 2    
    84   42   44 am   BACKBONE|DICT|INTERRES
    85   44   45 1    
    86   44  100 1    
    87   45   46 1    
    88   45   47 1    
    89   45  101 1    
    90   46  102 1    
    91   46  103 1    
    92   46  104 1    
    93   47   48 2    
    94   47   49 am   BACKBONE|DICT|INTERRES
    95   49   50 1    
    96   49  105 1    
    97   50   51 1    
    98   50   52 1    
    99   50  106 1    
   100   51  107 1    
   101   51  108 1    
   102   51  109 1    
   103   52   53 2    
   104   52   54 am   BACKBONE|DICT|INTERRES
   105   54   55 1    
   106   54  110 1    
   107   55   56 1    
   108   55   59 1    
   109   55  111 1    
   110   56   57 am   BACKBONE|DICT|INTERRES
   111   56   58 2    
   112   57  112 1    
   113   57  113 1    
   114   59   60 1    
   115   59  114 1    
   116   59  115 1    
   117   60   61 1    
   118   61  116 1    
   119   61  117 1    
@<TRIPOS>SUBSTRUCTURE
     1 UNK         1 GROUP             0       ****    0 ROOT    
