@<TRIPOS>MOLECULE
3R8
117   119    1
SMALL
USER_CHARGES


@<TRIPOS>ATOM
      1 CA         17.4363  -24.5916  -49.2803 C.3       0 UNK        -0.2013 
      2 C          17.8149  -25.5838  -48.1907 C.2       0 UNK         0.4866 
      3 O          18.4259  -26.6109  -48.4870 O.2       0 UNK        -0.5176 
      4 N          17.4581  -25.2807  -46.9384 N.am      1 UNK        -0.4884 
      5 CA         17.7716  -26.0789  -45.7511 C.3       1 UNK         0.0853 
      6 C6         16.4903  -26.5504  -45.0197 C.3       10 UNK        -0.0849 
      7 S7         15.4715  -27.7388  -45.9635 S.3       10 UNK        -0.2776 
      8 C8         16.6212  -29.1188  -46.3261 C.3       10 UNK         0.0316 
      9 C9         17.4238  -29.6324  -45.1300 C.ar      10 UNK        -0.0863 
     10 C10        18.7371  -30.0741  -45.3243 C.ar      10 UNK        -0.1009 
     11 C11        19.4942  -30.5550  -44.2516 C.ar      10 UNK        -0.0712 
     12 C12        18.9438  -30.5626  -42.9675 C.ar      10 UNK        -0.0894 
     13 C13        17.6365  -30.1212  -42.7575 C.ar      10 UNK        -0.0745 
     14 C14        16.8727  -29.6889  -43.8447 C.ar      10 UNK        -0.0972 
     15 C15        17.0439  -30.0888  -41.3593 C.3       10 UNK         0.0209 
     16 S16        17.0312  -28.3857  -40.7164 S.3       10 UNK        -0.2568 
     17 C17        18.4969  -28.3507  -39.6293 C.3       10 UNK        -0.0983 
     18 CA         19.8447  -28.0481  -40.3381 C.3       3 UNK         0.0876 
     19 N          19.7580  -26.9224  -41.2737 N.am      3 UNK        -0.4424 
     20 C          20.7568  -26.4339  -42.0227 C.2       2 UNK         0.4918 
     21 O          21.9159  -26.8565  -42.0047 O.2       2 UNK        -0.4875 
     22 CA         20.3563  -25.3253  -43.0036 C.3       2 UNK         0.0481 
     23 CB         21.5599  -24.6450  -43.6863 C.3       2 UNK        -0.1831 
     24 N          19.4665  -25.9112  -44.0029 N.am      2 UNK        -0.4498 
     25 C          18.6325  -25.2328  -44.7985 C.2       1 UNK         0.5027 
     26 O          18.5055  -24.0050  -44.7795 O.2       1 UNK        -0.4969 
     27 C          20.9451  -27.8229  -39.2825 C.2       3 UNK         0.5005 
     28 O          20.9077  -26.8123  -38.5768 O.2       3 UNK        -0.5279 
     29 N          21.9170  -28.7416  -39.2240 N.am      4 UNK        -0.4463 
     30 CA         23.1156  -28.7753  -38.3732 C.3       4 UNK         0.0283 
     31 CB         22.7581  -28.7404  -36.8749 C.3       4 UNK        -0.1875 
     32 C          24.1745  -27.7125  -38.7223 C.2       4 UNK         0.4949 
     33 O          25.3636  -27.9866  -38.5624 O.2       4 UNK        -0.5039 
     34 N          23.7429  -26.5386  -39.2005 N.am      5 UNK        -0.4663 
     35 CA         24.5923  -25.4379  -39.6556 C.3       5 UNK         0.0242 
     36 CB         23.7270  -24.1921  -39.9045 C.3       5 UNK        -0.1982 
     37 C          25.4133  -25.8023  -40.9028 C.2       5 UNK         0.5017 
     38 O          26.6189  -25.5507  -40.9202 O.2       5 UNK        -0.5012 
     39 N          24.7556  -26.4035  -41.9040 N.am      6 UNK        -0.4439 
     40 CA         25.4071  -26.9613  -43.0900 C.3       6 UNK         0.0297 
     41 CB         24.5306  -26.7396  -44.3327 C.3       6 UNK        -0.2006 
     42 C          25.6993  -28.4531  -42.8890 C.2       6 UNK         0.4892 
     43 O          26.8372  -28.8794  -43.0891 O.2       6 UNK        -0.5089 
     44 N          24.6723  -29.2131  -42.4912 N.am      7 UNK        -0.4243 
     45 CA         24.7158  -30.6528  -42.2531 C.3       7 UNK         0.0196 
     46 CB         24.8002  -31.4154  -43.5914 C.3       7 UNK        -0.2007 
     47 C          23.4537  -31.0558  -41.4870 C.2       7 UNK         0.5020 
     48 O          22.4890  -30.2882  -41.4444 O.2       7 UNK        -0.5147 
     49 N          23.4608  -32.2613  -40.9099 N.am      8 UNK        -0.4734 
     50 CA         22.2839  -32.8477  -40.2615 C.3       8 UNK         0.0238 
     51 CB         22.7330  -33.9337  -39.2707 C.3       8 UNK        -0.1912 
     52 C          21.2757  -33.4235  -41.2729 C.2       8 UNK         0.5038 
     53 O          20.0745  -33.3766  -41.0065 O.2       8 UNK        -0.5046 
     54 N          21.7835  -33.9519  -42.3984 N.am      9 UNK        -0.4200 
     55 CA         21.0379  -34.6945  -43.4323 C.3       9 UNK         0.0839 
     56 C          20.3712  -36.0005  -42.8909 C.2       9 UNK         0.5513 
     57 N          19.4959  -36.6389  -43.6570 N.am      9 UNK        -0.7519 
     58 O          20.6831  -36.4862  -41.8048 O.2       9 UNK        -0.4960 
     59 C59        20.0761  -33.7808  -44.2518 C.3       10 UNK        -0.0876 
     60 S60        20.9691  -32.6410  -45.3667 S.3       10 UNK        -0.2414 
     61 C61        20.9120  -31.0581  -44.4725 C.3       10 UNK         0.0169 
     62 H62        16.8972  -23.7326  -48.8813 H         1 UNK         0.0903 
     63 H63        18.3315  -24.2267  -49.7832 H         1 UNK         0.0903 
     64 H64        16.8013  -25.0748  -50.0225 H         1 UNK         0.0903 
     65 H65        17.0196  -24.3906  -46.7435 H         1 UNK         0.3096 
     66 H66        18.3686  -26.9496  -46.0276 H         1 UNK         0.1121 
     67 H67        15.8580  -25.6932  -44.7797 H         1 UNK         0.0849 
     68 H68        16.7359  -27.0031  -44.0579 H         1 UNK         0.0849 
     69 H69        16.0439  -29.9493  -46.7340 H         1 UNK         0.0865 
     70 H70        17.2938  -28.8013  -47.1244 H         1 UNK         0.0865 
     71 H71        19.1721  -30.0588  -46.3147 H         1 UNK         0.1346 
     72 H72        19.5329  -30.9175  -42.1330 H         1 UNK         0.1412 
     73 H73        15.8559  -29.3608  -43.6776 H         1 UNK         0.1426 
     74 H74        17.5873  -30.7534  -40.6859 H         1 UNK         0.0716 
     75 H75        16.0187  -30.4605  -41.3927 H         1 UNK         0.0716 
     76 H76        18.5582  -29.2954  -39.0858 H         1 UNK         0.0695 
     77 H77        18.2909  -27.5901  -38.8731 H         1 UNK         0.0695 
     78 H78        20.1156  -28.9201  -40.9349 H         1 UNK         0.0983 
     79 H79        18.8394  -26.5141  -41.3662 H         1 UNK         0.3095 
     80 H80        19.8116  -24.5711  -42.4317 H         1 UNK         0.0454 
     81 H81        22.0381  -25.3120  -44.4016 H         1 UNK         0.0851 
     82 H82        22.3137  -24.3392  -42.9607 H         1 UNK         0.0851 
     83 H83        21.2539  -23.7491  -44.2263 H         1 UNK         0.0851 
     84 H84        19.4904  -26.9214  -44.0586 H         1 UNK         0.2976 
     85 H85        21.9264  -29.4412  -39.9665 H         1 UNK         0.3116 
     86 H86        23.5788  -29.7431  -38.5719 H         1 UNK         0.0646 
     87 H87        22.3257  -27.7846  -36.5782 H         1 UNK         0.0847 
     88 H88        23.6471  -28.8940  -36.2619 H         1 UNK         0.0847 
     89 H89        22.0477  -29.5258  -36.6175 H         1 UNK         0.0847 
     90 H90        22.7384  -26.4000  -39.2413 H         1 UNK         0.3040 
     91 H91        25.2983  -25.2084  -38.8542 H         1 UNK         0.1015 
     92 H92        22.9469  -24.3813  -40.6418 H         1 UNK         0.0786 
     93 H93        24.3317  -23.3614  -40.2712 H         1 UNK         0.0786 
     94 H94        23.2426  -23.8589  -38.9865 H         1 UNK         0.0786 
     95 H95        23.7554  -26.5676  -41.8067 H         1 UNK         0.3172 
     96 H96        26.3579  -26.4541  -43.2677 H         1 UNK         0.0595 
     97 H97        23.5468  -27.1981  -44.2280 H         1 UNK         0.0839 
     98 H98        24.9970  -27.1712  -45.2194 H         1 UNK         0.0839 
     99 H99        24.3926  -25.6765  -44.5284 H         1 UNK         0.0839 
    100 H100       23.7655  -28.7943  -42.3171 H         1 UNK         0.2998 
    101 H101       25.5860  -30.8832  -41.6348 H         1 UNK         0.0822 
    102 H102       25.7110  -31.1690  -44.1370 H         1 UNK         0.0787 
    103 H103       24.8077  -32.4945  -43.4354 H         1 UNK         0.0787 
    104 H104       23.9535  -31.1851  -44.2391 H         1 UNK         0.0787 
    105 H105       24.2934  -32.8318  -40.9618 H         1 UNK         0.3055 
    106 H106       21.7675  -32.0700  -39.6934 H         1 UNK         0.1106 
    107 H107       21.8747  -34.3717  -38.7589 H         1 UNK         0.0828 
    108 H108       23.2617  -34.7465  -39.7702 H         1 UNK         0.0828 
    109 H109       23.3909  -33.5242  -38.5040 H         1 UNK         0.0828 
    110 H110       22.7853  -33.9477  -42.5098 H         1 UNK         0.2931 
    111 H111       21.8038  -35.0607  -44.1170 H         1 UNK         0.0412 
    112 H112       19.0847  -37.4943  -43.3161 H         1 UNK         0.3472 
    113 H113       19.2493  -36.2980  -44.5726 H         1 UNK         0.3472 
    114 H114       19.3990  -33.2371  -43.5939 H         1 UNK         0.0970 
    115 H115       19.4293  -34.3674  -44.9038 H         1 UNK         0.0970 
    116 H116       21.4808  -30.3113  -45.0278 H         1 UNK         0.0612 
    117 H117       21.4223  -31.1914  -43.5232 H         1 UNK         0.0612 
@<TRIPOS>BOND
     1    1    2 1    
     2    1   62 1    
     3    1   63 1    
     4    1   64 1    
     5    2    3 2    
     6    2    4 am   BACKBONE|DICT|INTERRES
     7    4    5 1    
     8    4   65 1    
     9    5    6 1    
    10    5   25 1    
    11    5   66 1    
    12    6    7 1    
    13    6   67 1    
    14    6   68 1    
    15    7    8 1    
    16    8    9 1    
    17    8   69 1    
    18    8   70 1    
    19    9   10 ar   
    20    9   14 ar   
    21   10   11 ar   
    22   10   71 1    
    23   11   12 ar   
    24   11   61 1    
    25   12   13 ar   
    26   12   72 1    
    27   13   14 ar   
    28   13   15 1    
    29   14   73 1    
    30   15   16 1    
    31   15   74 1    
    32   15   75 1    
    33   16   17 1    
    34   17   18 1    
    35   17   76 1    
    36   17   77 1    
    37   18   19 1    
    38   18   27 1    
    39   18   78 1    
    40   19   20 am   BACKBONE|DICT|INTERRES
    41   19   79 1    
    42   20   21 2    
    43   20   22 1    
    44   22   23 1    
    45   22   24 1    
    46   22   80 1    
    47   23   81 1    
    48   23   82 1    
    49   23   83 1    
    50   24   25 am   BACKBONE|DICT|INTERRES
    51   24   84 1    
    52   25   26 2    
    53   27   28 2    
    54   27   29 am   BACKBONE|DICT|INTERRES
    55   29   30 1    
    56   29   85 1    
    57   30   31 1    
    58   30   32 1    
    59   30   86 1    
    60   31   87 1    
    61   31   88 1    
    62   31   89 1    
    63   32   33 2    
    64   32   34 am   BACKBONE|DICT|INTERRES
    65   34   35 1    
    66   34   90 1    
    67   35   36 1    
    68   35   37 1    
    69   35   91 1    
    70   36   92 1    
    71   36   93 1    
    72   36   94 1    
    73   37   38 2    
    74   37   39 am   BACKBONE|DICT|INTERRES
    75   39   40 1    
    76   39   95 1    
    77   40   41 1    
    78   40   42 1    
    79   40   96 1    
    80   41   97 1    
    81   41   98 1    
    82   41   99 1    
    83   42   43 2    
    84   42   44 am   BACKBONE|DICT|INTERRES
    85   44   45 1    
    86   44  100 1    
    87   45   46 1    
    88   45   47 1    
    89   45  101 1    
    90   46  102 1    
    91   46  103 1    
    92   46  104 1    
    93   47   48 2    
    94   47   49 am   BACKBONE|DICT|INTERRES
    95   49   50 1    
    96   49  105 1    
    97   50   51 1    
    98   50   52 1    
    99   50  106 1    
   100   51  107 1    
   101   51  108 1    
   102   51  109 1    
   103   52   53 2    
   104   52   54 am   BACKBONE|DICT|INTERRES
   105   54   55 1    
   106   54  110 1    
   107   55   56 1    
   108   55   59 1    
   109   55  111 1    
   110   56   57 am   BACKBONE|DICT|INTERRES
   111   56   58 2    
   112   57  112 1    
   113   57  113 1    
   114   59   60 1    
   115   59  114 1    
   116   59  115 1    
   117   60   61 1    
   118   61  116 1    
   119   61  117 1    
@<TRIPOS>SUBSTRUCTURE
     1 UNK         1 GROUP             0       ****    0 ROOT    
