@<TRIPOS>MOLECULE
3R8
117   119    1
SMALL
USER_CHARGES


@<TRIPOS>ATOM
      1 CA         14.8004  -23.6566  -41.8113 C.3       0 UNK        -0.2013 
      2 C          15.3859  -23.8175  -43.2063 C.2       0 UNK         0.4866 
      3 O          15.3383  -22.8796  -44.0034 O.2       0 UNK        -0.5176 
      4 N          15.9285  -25.0027  -43.5099 N.am      1 UNK        -0.4884 
      5 CA         16.5865  -25.3219  -44.7816 C.3       1 UNK         0.0853 
      6 C6         16.8197  -26.8430  -44.9444 C.3       10 UNK        -0.0849 
      7 S7         15.3150  -27.8681  -44.7833 S.3       10 UNK        -0.2776 
      8 C8         15.7513  -29.0168  -43.4199 C.3       10 UNK         0.0316 
      9 C9         17.1180  -29.6973  -43.5451 C.ar      10 UNK        -0.0863 
     10 C10        17.8121  -30.0570  -42.3851 C.ar      10 UNK        -0.1009 
     11 C11        19.0896  -30.6215  -42.4607 C.ar      10 UNK        -0.0712 
     12 C12        19.6882  -30.8066  -43.7106 C.ar      10 UNK        -0.0894 
     13 C13        19.0081  -30.4520  -44.8778 C.ar      10 UNK        -0.0745 
     14 C14        17.7112  -29.9414  -44.7890 C.ar      10 UNK        -0.0972 
     15 C15        19.6661  -30.5959  -46.2412 C.3       10 UNK         0.0209 
     16 S16        19.8666  -28.9771  -47.0616 S.3       10 UNK        -0.2568 
     17 C17        21.5202  -28.4237  -46.5089 C.3       10 UNK        -0.0983 
     18 CA         21.5376  -27.1975  -45.5505 C.3       3 UNK         0.0876 
     19 N          20.6307  -26.1345  -45.9918 N.am      3 UNK        -0.4424 
     20 C          20.8904  -24.8210  -45.9655 C.2       2 UNK         0.4918 
     21 O          21.9510  -24.3369  -45.5714 O.2       2 UNK        -0.4875 
     22 CA         19.7590  -23.8855  -46.4388 C.3       2 UNK         0.0481 
     23 CB         19.8848  -23.6132  -47.9461 C.3       2 UNK        -0.1831 
     24 N          18.4157  -24.4021  -46.1437 N.am      2 UNK        -0.4498 
     25 C          17.9456  -24.6013  -44.9038 C.2       1 UNK         0.5027 
     26 O          18.5880  -24.3254  -43.8880 O.2       1 UNK        -0.4969 
     27 C          21.3478  -27.5874  -44.0675 C.2       3 UNK         0.5005 
     28 O          22.0028  -28.5305  -43.6228 O.2       3 UNK        -0.5279 
     29 N          20.5085  -26.8686  -43.3013 N.am      4 UNK        -0.4463 
     30 CA         20.2856  -27.1118  -41.8696 C.3       4 UNK         0.0283 
     31 CB         18.9155  -26.5528  -41.4431 C.3       4 UNK        -0.1875 
     32 C          21.4388  -26.5723  -41.0008 C.2       4 UNK         0.4949 
     33 O          21.2418  -25.6480  -40.2102 O.2       4 UNK        -0.5039 
     34 N          22.6278  -27.1557  -41.1710 N.am      5 UNK        -0.4663 
     35 CA         23.8611  -26.8289  -40.4620 C.3       5 UNK         0.0242 
     36 CB         24.4938  -25.5658  -41.0792 C.3       5 UNK        -0.1982 
     37 C          24.8235  -28.0214  -40.5446 C.2       5 UNK         0.5017 
     38 O          24.5904  -28.9454  -41.3275 O.2       5 UNK        -0.5012 
     39 N          25.8950  -27.9698  -39.7389 N.am      6 UNK        -0.4439 
     40 CA         27.0604  -28.8706  -39.7447 C.3       6 UNK         0.0297 
     41 CB         27.8966  -28.6354  -41.0212 C.3       6 UNK        -0.2006 
     42 C          26.7450  -30.3677  -39.5300 C.2       6 UNK         0.4892 
     43 O          27.5362  -31.2158  -39.9465 O.2       6 UNK        -0.5089 
     44 N          25.6043  -30.6637  -38.8866 N.am      7 UNK        -0.4243 
     45 CA         25.0455  -32.0010  -38.6439 C.3       7 UNK         0.0196 
     46 CB         25.9088  -32.7812  -37.6290 C.3       7 UNK        -0.2007 
     47 C          24.7798  -32.7920  -39.9432 C.2       7 UNK         0.5020 
     48 O          24.9914  -34.0046  -39.9834 O.2       7 UNK        -0.5147 
     49 N          24.3069  -32.0940  -40.9864 N.am      8 UNK        -0.4734 
     50 CA         24.0100  -32.6494  -42.3138 C.3       8 UNK         0.0238 
     51 CB         23.9129  -31.4905  -43.3195 C.3       8 UNK        -0.1912 
     52 C          22.7512  -33.5401  -42.3866 C.2       8 UNK         0.5038 
     53 O          22.4386  -34.0373  -43.4696 O.2       8 UNK        -0.5046 
     54 N          22.0477  -33.7247  -41.2655 N.am      9 UNK        -0.4200 
     55 CA         20.8560  -34.5660  -41.1293 C.3       9 UNK         0.0839 
     56 C          20.8085  -35.2446  -39.7344 C.2       9 UNK         0.5513 
     57 N          19.9820  -36.2689  -39.5727 N.am      9 UNK        -0.7519 
     58 O          21.5027  -34.8509  -38.7981 O.2       9 UNK        -0.4960 
     59 C59        19.5561  -33.7966  -41.4943 C.3       10 UNK        -0.0876 
     60 S60        19.1351  -32.4328  -40.3501 S.3       10 UNK        -0.2414 
     61 C61        19.8427  -30.9813  -41.1881 C.3       10 UNK         0.0169 
     62 H62        15.3075  -22.8494  -41.2833 H         1 UNK         0.0903 
     63 H63        13.7409  -23.4101  -41.8749 H         1 UNK         0.0903 
     64 H64        14.9021  -24.5655  -41.2185 H         1 UNK         0.0903 
     65 H65        15.9397  -25.7368  -42.8179 H         1 UNK         0.3096 
     66 H66        15.9394  -24.9759  -45.5911 H         1 UNK         0.1121 
     67 H67        17.2401  -27.0572  -45.9290 H         1 UNK         0.0849 
     68 H68        17.5696  -27.1803  -44.2289 H         1 UNK         0.0849 
     69 H69        15.7048  -28.4578  -42.4841 H         1 UNK         0.0865 
     70 H70        14.9832  -29.7883  -43.3544 H         1 UNK         0.0865 
     71 H71        17.3656  -29.8864  -41.4148 H         1 UNK         0.1346 
     72 H72        20.6912  -31.2059  -43.7733 H         1 UNK         0.1412 
     73 H73        17.1901  -29.6819  -45.6997 H         1 UNK         0.1426 
     74 H74        19.0343  -31.2272  -46.8675 H         1 UNK         0.0716 
     75 H75        20.6283  -31.1051  -46.1685 H         1 UNK         0.0716 
     76 H76        22.0640  -28.1534  -47.4152 H         1 UNK         0.0695 
     77 H77        22.0782  -29.2653  -46.0947 H         1 UNK         0.0695 
     78 H78        22.5568  -26.8060  -45.5878 H         1 UNK         0.0983 
     79 H79        19.7431  -26.4496  -46.3545 H         1 UNK         0.3095 
     80 H80        19.8743  -22.9358  -45.9121 H         1 UNK         0.0454 
     81 H81        20.8671  -23.2046  -48.1873 H         1 UNK         0.0851 
     82 H82        19.1442  -22.8874  -48.2823 H         1 UNK         0.0851 
     83 H83        19.7575  -24.5222  -48.5353 H         1 UNK         0.0851 
     84 H84        17.8410  -24.6512  -46.9368 H         1 UNK         0.2976 
     85 H85        20.0511  -26.0574  -43.6972 H         1 UNK         0.3116 
     86 H86        20.2530  -28.1885  -41.7090 H         1 UNK         0.0646 
     87 H87        18.8596  -25.4717  -41.5693 H         1 UNK         0.0847 
     88 H88        18.1043  -27.0060  -42.0094 H         1 UNK         0.0847 
     89 H89        18.7230  -26.7640  -40.3906 H         1 UNK         0.0847 
     90 H90        22.7097  -27.9099  -41.8518 H         1 UNK         0.3040 
     91 H91        23.6287  -26.6500  -39.4098 H         1 UNK         0.1015 
     92 H92        25.4188  -25.2929  -40.5699 H         1 UNK         0.0786 
     93 H93        23.8252  -24.7079  -41.0063 H         1 UNK         0.0786 
     94 H94        24.7323  -25.7130  -42.1335 H         1 UNK         0.0786 
     95 H95        25.9677  -27.1842  -39.1061 H         1 UNK         0.3172 
     96 H96        27.6733  -28.5739  -38.8924 H         1 UNK         0.0595 
     97 H97        27.3668  -28.9677  -41.9149 H         1 UNK         0.0839 
     98 H98        28.8412  -29.1795  -40.9819 H         1 UNK         0.0839 
     99 H99        28.1405  -27.5808  -41.1489 H         1 UNK         0.0839 
    100 H100       25.0306  -29.8874  -38.5884 H         1 UNK         0.2998 
    101 H101       24.0674  -31.8442  -38.1863 H         1 UNK         0.0822 
    102 H102       25.4275  -33.7181  -37.3455 H         1 UNK         0.0787 
    103 H103       26.0621  -32.2081  -36.7147 H         1 UNK         0.0787 
    104 H104       26.8886  -33.0308  -38.0372 H         1 UNK         0.0787 
    105 H105       24.2130  -31.0883  -40.8944 H         1 UNK         0.3055 
    106 H106       24.8512  -33.2810  -42.6078 H         1 UNK         0.1106 
    107 H107       24.8333  -30.9069  -43.3447 H         1 UNK         0.0828 
    108 H108       23.7336  -31.8524  -44.3327 H         1 UNK         0.0828 
    109 H109       23.0976  -30.8139  -43.0650 H         1 UNK         0.0828 
    110 H110       22.3932  -33.3390  -40.3982 H         1 UNK         0.2931 
    111 H111       20.9599  -35.3884  -41.8402 H         1 UNK         0.0412 
    112 H112       19.9330  -36.7201  -38.6722 H         1 UNK         0.3472 
    113 H113       19.4077  -36.6031  -40.3311 H         1 UNK         0.3472 
    114 H114       19.6269  -33.4137  -42.5127 H         1 UNK         0.0970 
    115 H115       18.7109  -34.4862  -41.5103 H         1 UNK         0.0970 
    116 H116       20.9000  -31.1522  -41.3941 H         1 UNK         0.0612 
    117 H117       19.8015  -30.1390  -40.4969 H         1 UNK         0.0612 
@<TRIPOS>BOND
     1    1    2 1    
     2    1   62 1    
     3    1   63 1    
     4    1   64 1    
     5    2    3 2    
     6    2    4 am   BACKBONE|DICT|INTERRES
     7    4    5 1    
     8    4   65 1    
     9    5    6 1    
    10    5   25 1    
    11    5   66 1    
    12    6    7 1    
    13    6   67 1    
    14    6   68 1    
    15    7    8 1    
    16    8    9 1    
    17    8   69 1    
    18    8   70 1    
    19    9   10 ar   
    20    9   14 ar   
    21   10   11 ar   
    22   10   71 1    
    23   11   12 ar   
    24   11   61 1    
    25   12   13 ar   
    26   12   72 1    
    27   13   14 ar   
    28   13   15 1    
    29   14   73 1    
    30   15   16 1    
    31   15   74 1    
    32   15   75 1    
    33   16   17 1    
    34   17   18 1    
    35   17   76 1    
    36   17   77 1    
    37   18   19 1    
    38   18   27 1    
    39   18   78 1    
    40   19   20 am   BACKBONE|DICT|INTERRES
    41   19   79 1    
    42   20   21 2    
    43   20   22 1    
    44   22   23 1    
    45   22   24 1    
    46   22   80 1    
    47   23   81 1    
    48   23   82 1    
    49   23   83 1    
    50   24   25 am   BACKBONE|DICT|INTERRES
    51   24   84 1    
    52   25   26 2    
    53   27   28 2    
    54   27   29 am   BACKBONE|DICT|INTERRES
    55   29   30 1    
    56   29   85 1    
    57   30   31 1    
    58   30   32 1    
    59   30   86 1    
    60   31   87 1    
    61   31   88 1    
    62   31   89 1    
    63   32   33 2    
    64   32   34 am   BACKBONE|DICT|INTERRES
    65   34   35 1    
    66   34   90 1    
    67   35   36 1    
    68   35   37 1    
    69   35   91 1    
    70   36   92 1    
    71   36   93 1    
    72   36   94 1    
    73   37   38 2    
    74   37   39 am   BACKBONE|DICT|INTERRES
    75   39   40 1    
    76   39   95 1    
    77   40   41 1    
    78   40   42 1    
    79   40   96 1    
    80   41   97 1    
    81   41   98 1    
    82   41   99 1    
    83   42   43 2    
    84   42   44 am   BACKBONE|DICT|INTERRES
    85   44   45 1    
    86   44  100 1    
    87   45   46 1    
    88   45   47 1    
    89   45  101 1    
    90   46  102 1    
    91   46  103 1    
    92   46  104 1    
    93   47   48 2    
    94   47   49 am   BACKBONE|DICT|INTERRES
    95   49   50 1    
    96   49  105 1    
    97   50   51 1    
    98   50   52 1    
    99   50  106 1    
   100   51  107 1    
   101   51  108 1    
   102   51  109 1    
   103   52   53 2    
   104   52   54 am   BACKBONE|DICT|INTERRES
   105   54   55 1    
   106   54  110 1    
   107   55   56 1    
   108   55   59 1    
   109   55  111 1    
   110   56   57 am   BACKBONE|DICT|INTERRES
   111   56   58 2    
   112   57  112 1    
   113   57  113 1    
   114   59   60 1    
   115   59  114 1    
   116   59  115 1    
   117   60   61 1    
   118   61  116 1    
   119   61  117 1    
@<TRIPOS>SUBSTRUCTURE
     1 UNK         1 GROUP             0       ****    0 ROOT    
