@<TRIPOS>MOLECULE
3R8
117   119    1
SMALL
USER_CHARGES


@<TRIPOS>ATOM
      1 CA         17.8249  -28.0773  -42.3245 C.3       0 UNK        -0.2013 
      2 C          16.9830  -27.2609  -43.2860 C.2       0 UNK         0.4866 
      3 O          16.3648  -26.2768  -42.8784 O.2       0 UNK        -0.5176 
      4 N          16.9662  -27.6442  -44.5676 N.am      1 UNK        -0.4884 
      5 CA         16.1995  -26.9963  -45.6393 C.3       1 UNK         0.0853 
      6 C6         15.8906  -27.9707  -46.8081 C.3       10 UNK        -0.0849 
      7 S7         15.1843  -29.5619  -46.2485 S.3       10 UNK        -0.2776 
      8 C8         16.4506  -30.7567  -46.7939 C.3       10 UNK         0.0316 
      9 C9         17.7534  -30.6496  -46.0081 C.ar      10 UNK        -0.0863 
     10 C10        17.9255  -31.3688  -44.8202 C.ar      10 UNK        -0.1009 
     11 C11        19.1458  -31.3323  -44.1354 C.ar      10 UNK        -0.0712 
     12 C12        20.1884  -30.5455  -44.6332 C.ar      10 UNK        -0.0894 
     13 C13        20.0245  -29.8088  -45.8101 C.ar      10 UNK        -0.0745 
     14 C14        18.8108  -29.8767  -46.4984 C.ar      10 UNK        -0.0972 
     15 C15        21.1674  -28.9723  -46.3699 C.3       10 UNK         0.0209 
     16 S16        20.8586  -27.1853  -46.2040 S.3       10 UNK        -0.2568 
     17 C17        21.0445  -26.9618  -44.4073 C.3       10 UNK        -0.0983 
     18 CA         20.9479  -25.4788  -43.9622 C.3       3 UNK         0.0876 
     19 N          19.6343  -24.9061  -44.2513 N.am      3 UNK        -0.4424 
     20 C          19.3630  -23.9441  -45.1407 C.2       2 UNK         0.4918 
     21 O          20.2117  -23.3942  -45.8448 O.2       2 UNK        -0.4875 
     22 CA         17.8762  -23.5442  -45.2532 C.3       2 UNK         0.0481 
     23 CB         17.5714  -22.6413  -46.4678 C.3       2 UNK        -0.1831 
     24 N          17.0014  -24.7238  -45.2126 N.am      2 UNK        -0.4498 
     25 C          16.9352  -25.7213  -46.1086 C.2       1 UNK         0.5027 
     26 O          17.4690  -25.6884  -47.2186 O.2       1 UNK        -0.4969 
     27 C          21.1846  -25.3820  -42.4457 C.2       3 UNK         0.5005 
     28 O          20.2215  -25.3238  -41.6755 O.2       3 UNK        -0.5279 
     29 N          22.4575  -25.4175  -42.0417 N.am      4 UNK        -0.4463 
     30 CA         22.9030  -25.5137  -40.6556 C.3       4 UNK         0.0283 
     31 CB         23.0165  -24.1130  -40.0295 C.3       4 UNK        -0.1875 
     32 C          24.2542  -26.2333  -40.6573 C.2       4 UNK         0.4949 
     33 O          25.0433  -26.0217  -41.5810 O.2       4 UNK        -0.5039 
     34 N          24.4808  -27.0809  -39.6436 N.am      5 UNK        -0.4663 
     35 CA         25.6681  -27.9320  -39.4394 C.3       5 UNK         0.0242 
     36 CB         26.9333  -27.0730  -39.2285 C.3       5 UNK        -0.1982 
     37 C          25.8709  -29.0125  -40.5262 C.2       5 UNK         0.5017 
     38 O          26.9526  -29.5958  -40.6162 O.2       5 UNK        -0.5012 
     39 N          24.8284  -29.2709  -41.3239 N.am      6 UNK        -0.4439 
     40 CA         24.8102  -30.2254  -42.4262 C.3       6 UNK         0.0297 
     41 CB         23.8575  -29.6975  -43.5117 C.3       6 UNK        -0.2006 
     42 C          24.4046  -31.6145  -41.9140 C.2       6 UNK         0.4892 
     43 O          23.2345  -31.9901  -42.0219 O.2       6 UNK        -0.5089 
     44 N          25.3828  -32.3337  -41.3445 N.am      7 UNK        -0.4243 
     45 CA         25.2821  -33.6908  -40.7940 C.3       7 UNK         0.0196 
     46 CB         25.1093  -34.7218  -41.9336 C.3       7 UNK        -0.2007 
     47 C          24.2028  -33.7762  -39.6991 C.2       7 UNK         0.5020 
     48 O          24.3779  -33.1756  -38.6381 O.2       7 UNK        -0.5147 
     49 N          23.0944  -34.4753  -39.9802 N.am      8 UNK        -0.4734 
     50 CA         21.9199  -34.5880  -39.1073 C.3       8 UNK         0.0238 
     51 CB         20.9302  -35.5910  -39.7221 C.3       8 UNK        -0.1912 
     52 C          21.2168  -33.2455  -38.8281 C.2       8 UNK         0.5038 
     53 O          20.5667  -33.1181  -37.7898 O.2       8 UNK        -0.5046 
     54 N          21.3763  -32.2776  -39.7390 N.am      9 UNK        -0.4200 
     55 CA         20.9165  -30.8897  -39.5957 C.3       9 UNK         0.0839 
     56 C          22.0228  -29.9434  -39.0416 C.2       9 UNK         0.5513 
     57 N          23.1413  -30.4447  -38.5297 N.am      9 UNK        -0.7519 
     58 O          21.8687  -28.7253  -39.0645 O.2       9 UNK        -0.4960 
     59 C59        20.2829  -30.3659  -40.9113 C.3       10 UNK        -0.0876 
     60 S60        18.8022  -31.3322  -41.3777 S.3       10 UNK        -0.2414 
     61 C61        19.3514  -32.1829  -42.8882 C.3       10 UNK         0.0169 
     62 H62        17.1826  -28.6333  -41.6423 H         1 UNK         0.0903 
     63 H63        18.4567  -28.7875  -42.8554 H         1 UNK         0.0903 
     64 H64        18.4677  -27.4254  -41.7341 H         1 UNK         0.0903 
     65 H65        17.4921  -28.4604  -44.8536 H         1 UNK         0.3096 
     66 H66        15.2383  -26.6789  -45.2278 H         1 UNK         0.1121 
     67 H67        15.1751  -27.5097  -47.4914 H         1 UNK         0.0849 
     68 H68        16.7796  -28.1619  -47.4078 H         1 UNK         0.0849 
     69 H69        16.0452  -31.7641  -46.6869 H         1 UNK         0.0865 
     70 H70        16.6377  -30.6257  -47.8610 H         1 UNK         0.0865 
     71 H71        17.1177  -31.9806  -44.4418 H         1 UNK         0.1346 
     72 H72        21.1346  -30.5291  -44.1145 H         1 UNK         0.1412 
     73 H73        18.7020  -29.3323  -47.4262 H         1 UNK         0.1426 
     74 H74        21.2959  -29.2074  -47.4274 H         1 UNK         0.0716 
     75 H75        22.1122  -29.2243  -45.8872 H         1 UNK         0.0716 
     76 H76        22.0111  -27.3808  -44.1239 H         1 UNK         0.0695 
     77 H77        20.2872  -27.5663  -43.9064 H         1 UNK         0.0695 
     78 H78        21.7275  -24.9001  -44.4629 H         1 UNK         0.0983 
     79 H79        18.8932  -25.2318  -43.6475 H         1 UNK         0.3095 
     80 H80        17.6474  -22.9689  -44.3551 H         1 UNK         0.0454 
     81 H81        18.1188  -21.7007  -46.3974 H         1 UNK         0.0851 
     82 H82        16.5113  -22.3953  -46.5243 H         1 UNK         0.0851 
     83 H83        17.8593  -23.1093  -47.4094 H         1 UNK         0.0851 
     84 H84        16.5599  -24.9073  -44.3155 H         1 UNK         0.2976 
     85 H85        23.2084  -25.4948  -42.7181 H         1 UNK         0.3116 
     86 H86        22.1868  -26.1097  -40.0850 H         1 UNK         0.0646 
     87 H87        23.7212  -23.4840  -40.5750 H         1 UNK         0.0847 
     88 H88        22.0525  -23.6043  -40.0179 H         1 UNK         0.0847 
     89 H89        23.3632  -24.1739  -38.9971 H         1 UNK         0.0847 
     90 H90        23.7345  -27.2116  -38.9707 H         1 UNK         0.3040 
     91 H91        25.4937  -28.4783  -38.5118 H         1 UNK         0.1015 
     92 H92        27.7784  -27.6893  -38.9191 H         1 UNK         0.0786 
     93 H93        26.7801  -26.3244  -38.4512 H         1 UNK         0.0786 
     94 H94        27.2299  -26.5545  -40.1406 H         1 UNK         0.0786 
     95 H95        23.9685  -28.7779  -41.1356 H         1 UNK         0.3172 
     96 H96        25.8059  -30.3027  -42.8686 H         1 UNK         0.0595 
     97 H97        22.8685  -29.4861  -43.1073 H         1 UNK         0.0839 
     98 H98        23.7408  -30.4236  -44.3174 H         1 UNK         0.0839 
     99 H99        24.2387  -28.7779  -43.9560 H         1 UNK         0.0839 
    100 H100       26.2833  -31.8843  -41.2363 H         1 UNK         0.2998 
    101 H101       26.2323  -33.8998  -40.3000 H         1 UNK         0.0822 
    102 H102       25.0646  -35.7394  -41.5427 H         1 UNK         0.0787 
    103 H103       25.9545  -34.6843  -42.6211 H         1 UNK         0.0787 
    104 H104       24.2062  -34.5482  -42.5200 H         1 UNK         0.0787 
    105 H105       23.0289  -34.9111  -40.8890 H         1 UNK         0.3055 
    106 H106       22.2578  -34.9796  -38.1452 H         1 UNK         0.1106 
    107 H107       21.3852  -36.5735  -39.8488 H         1 UNK         0.0828 
    108 H108       20.0575  -35.7211  -39.0804 H         1 UNK         0.0828 
    109 H109       20.5700  -35.2569  -40.6962 H         1 UNK         0.0828 
    110 H110       21.9665  -32.4549  -40.5458 H         1 UNK         0.2931 
    111 H111       20.1302  -30.8587  -38.8396 H         1 UNK         0.0412 
    112 H112       23.8161  -29.8233  -38.1198 H         1 UNK         0.3472 
    113 H113       23.3138  -31.4434  -38.5170 H         1 UNK         0.3472 
    114 H114       21.0141  -30.3749  -41.7193 H         1 UNK         0.0970 
    115 H115       19.9715  -29.3267  -40.7965 H         1 UNK         0.0970 
    116 H116       18.7858  -33.1107  -42.9854 H         1 UNK         0.0612 
    117 H117       20.3972  -32.4793  -42.7886 H         1 UNK         0.0612 
@<TRIPOS>BOND
     1    1    2 1    
     2    1   62 1    
     3    1   63 1    
     4    1   64 1    
     5    2    3 2    
     6    2    4 am   BACKBONE|DICT|INTERRES
     7    4    5 1    
     8    4   65 1    
     9    5    6 1    
    10    5   25 1    
    11    5   66 1    
    12    6    7 1    
    13    6   67 1    
    14    6   68 1    
    15    7    8 1    
    16    8    9 1    
    17    8   69 1    
    18    8   70 1    
    19    9   10 ar   
    20    9   14 ar   
    21   10   11 ar   
    22   10   71 1    
    23   11   12 ar   
    24   11   61 1    
    25   12   13 ar   
    26   12   72 1    
    27   13   14 ar   
    28   13   15 1    
    29   14   73 1    
    30   15   16 1    
    31   15   74 1    
    32   15   75 1    
    33   16   17 1    
    34   17   18 1    
    35   17   76 1    
    36   17   77 1    
    37   18   19 1    
    38   18   27 1    
    39   18   78 1    
    40   19   20 am   BACKBONE|DICT|INTERRES
    41   19   79 1    
    42   20   21 2    
    43   20   22 1    
    44   22   23 1    
    45   22   24 1    
    46   22   80 1    
    47   23   81 1    
    48   23   82 1    
    49   23   83 1    
    50   24   25 am   BACKBONE|DICT|INTERRES
    51   24   84 1    
    52   25   26 2    
    53   27   28 2    
    54   27   29 am   BACKBONE|DICT|INTERRES
    55   29   30 1    
    56   29   85 1    
    57   30   31 1    
    58   30   32 1    
    59   30   86 1    
    60   31   87 1    
    61   31   88 1    
    62   31   89 1    
    63   32   33 2    
    64   32   34 am   BACKBONE|DICT|INTERRES
    65   34   35 1    
    66   34   90 1    
    67   35   36 1    
    68   35   37 1    
    69   35   91 1    
    70   36   92 1    
    71   36   93 1    
    72   36   94 1    
    73   37   38 2    
    74   37   39 am   BACKBONE|DICT|INTERRES
    75   39   40 1    
    76   39   95 1    
    77   40   41 1    
    78   40   42 1    
    79   40   96 1    
    80   41   97 1    
    81   41   98 1    
    82   41   99 1    
    83   42   43 2    
    84   42   44 am   BACKBONE|DICT|INTERRES
    85   44   45 1    
    86   44  100 1    
    87   45   46 1    
    88   45   47 1    
    89   45  101 1    
    90   46  102 1    
    91   46  103 1    
    92   46  104 1    
    93   47   48 2    
    94   47   49 am   BACKBONE|DICT|INTERRES
    95   49   50 1    
    96   49  105 1    
    97   50   51 1    
    98   50   52 1    
    99   50  106 1    
   100   51  107 1    
   101   51  108 1    
   102   51  109 1    
   103   52   53 2    
   104   52   54 am   BACKBONE|DICT|INTERRES
   105   54   55 1    
   106   54  110 1    
   107   55   56 1    
   108   55   59 1    
   109   55  111 1    
   110   56   57 am   BACKBONE|DICT|INTERRES
   111   56   58 2    
   112   57  112 1    
   113   57  113 1    
   114   59   60 1    
   115   59  114 1    
   116   59  115 1    
   117   60   61 1    
   118   61  116 1    
   119   61  117 1    
@<TRIPOS>SUBSTRUCTURE
     1 UNK         1 GROUP             0       ****    0 ROOT    
