@<TRIPOS>MOLECULE
3R8
117   119    1
SMALL
USER_CHARGES


@<TRIPOS>ATOM
      1 CA         17.4249  -26.9783  -49.3950 C.3       0 UNK        -0.2013 
      2 C          17.7765  -27.6741  -48.0884 C.2       0 UNK         0.4866 
      3 O          18.1998  -28.8302  -48.1051 O.2       0 UNK        -0.5176 
      4 N          17.5951  -26.9836  -46.9564 N.am      1 UNK        -0.4884 
      5 CA         17.9271  -27.4770  -45.6169 C.3       1 UNK         0.0853 
      6 C6         17.3026  -26.5894  -44.5110 C.3       10 UNK        -0.0849 
      7 S7         15.4825  -26.6658  -44.4190 S.3       10 UNK        -0.2776 
      8 C8         15.1291  -28.4235  -44.0523 C.3       10 UNK         0.0316 
      9 C9         16.1043  -29.0769  -43.0756 C.ar      10 UNK        -0.0863 
     10 C10        16.7474  -30.2664  -43.4316 C.ar      10 UNK        -0.1009 
     11 C11        17.6435  -30.8887  -42.5564 C.ar      10 UNK        -0.0712 
     12 C12        17.8850  -30.3108  -41.3051 C.ar      10 UNK        -0.0894 
     13 C13        17.2327  -29.1324  -40.9250 C.ar      10 UNK        -0.0745 
     14 C14        16.3424  -28.5218  -41.8140 C.ar      10 UNK        -0.0972 
     15 C15        17.4367  -28.5580  -39.5283 C.3       10 UNK         0.0209 
     16 S16        19.1103  -27.8897  -39.2667 S.3       10 UNK        -0.2568 
     17 C17        19.0699  -26.3390  -40.2269 C.3       10 UNK        -0.0983 
     18 CA         20.3208  -26.2136  -41.1273 C.3       3 UNK         0.0876 
     19 N          20.3421  -27.2561  -42.1534 N.am      3 UNK        -0.4424 
     20 C          21.4322  -27.6317  -42.8302 C.2       2 UNK         0.4918 
     21 O          22.5694  -27.2665  -42.5377 O.2       2 UNK        -0.4875 
     22 CA         21.2326  -28.5842  -44.0190 C.3       2 UNK         0.0481 
     23 CB         21.5464  -30.0191  -43.5897 C.3       2 UNK        -0.1831 
     24 N          19.8757  -28.5187  -44.5686 N.am      2 UNK        -0.4498 
     25 C          19.4500  -27.5526  -45.3954 C.2       1 UNK         0.5027 
     26 O          20.1892  -26.7074  -45.9069 O.2       1 UNK        -0.4969 
     27 C          20.3893  -24.8278  -41.8130 C.2       3 UNK         0.5005 
     28 O          19.8302  -24.6773  -42.8999 O.2       3 UNK        -0.5279 
     29 N          21.0359  -23.8083  -41.2285 N.am      4 UNK        -0.4463 
     30 CA         21.6771  -23.7648  -39.9089 C.3       4 UNK         0.0283 
     31 CB         21.5574  -22.3310  -39.3630 C.3       4 UNK        -0.1875 
     32 C          23.1509  -24.2195  -39.9026 C.2       4 UNK         0.4949 
     33 O          23.7699  -24.1871  -38.8393 O.2       4 UNK        -0.5039 
     34 N          23.6966  -24.6366  -41.0568 N.am      5 UNK        -0.4663 
     35 CA         25.0737  -25.1411  -41.1906 C.3       5 UNK         0.0242 
     36 CB         25.4271  -25.2922  -42.6793 C.3       5 UNK        -0.1982 
     37 C          25.3295  -26.4581  -40.4292 C.2       5 UNK         0.5017 
     38 O          26.4623  -26.7051  -40.0151 O.2       5 UNK        -0.5012 
     39 N          24.2630  -27.2473  -40.2391 N.am      6 UNK        -0.4439 
     40 CA         24.1707  -28.4734  -39.4423 C.3       6 UNK         0.0297 
     41 CB         24.5196  -28.2110  -37.9614 C.3       6 UNK        -0.2006 
     42 C          24.9450  -29.6535  -40.0542 C.2       6 UNK         0.4892 
     43 O          25.5675  -30.4295  -39.3277 O.2       6 UNK        -0.5089 
     44 N          24.8461  -29.7986  -41.3839 N.am      7 UNK        -0.4243 
     45 CA         25.3668  -30.9484  -42.1371 C.3       7 UNK         0.0196 
     46 CB         25.5380  -30.5507  -43.6140 C.3       7 UNK        -0.2007 
     47 C          24.5064  -32.2250  -41.9963 C.2       7 UNK         0.5020 
     48 O          24.9008  -33.2737  -42.5064 O.2       7 UNK        -0.5147 
     49 N          23.3432  -32.1156  -41.3324 N.am      8 UNK        -0.4734 
     50 CA         22.3926  -33.1817  -40.9720 C.3       8 UNK         0.0238 
     51 CB         23.0509  -34.1861  -40.0022 C.3       8 UNK        -0.1912 
     52 C          21.7108  -33.8925  -42.1595 C.2       8 UNK         0.5038 
     53 O          21.0692  -34.9231  -41.9510 O.2       8 UNK        -0.5046 
     54 N          21.8388  -33.3278  -43.3677 N.am      9 UNK        -0.4200 
     55 CA         21.3177  -33.8562  -44.6407 C.3       9 UNK         0.0839 
     56 C          21.9698  -35.2043  -45.0792 C.2       9 UNK         0.5513 
     57 N          23.1652  -35.5374  -44.6045 N.am      9 UNK        -0.7519 
     58 O          21.4070  -35.9446  -45.8819 O.2       9 UNK        -0.4960 
     59 C59        19.7608  -33.8691  -44.7068 C.3       10 UNK        -0.0876 
     60 S60        19.0400  -32.1947  -44.5963 S.3       10 UNK        -0.2414 
     61 C61        18.3012  -32.2149  -42.9304 C.3       10 UNK         0.0169 
     62 H62        18.3053  -26.9135  -50.0338 H         1 UNK         0.0903 
     63 H63        16.6588  -27.5424  -49.9264 H         1 UNK         0.0903 
     64 H64        17.0495  -25.9682  -49.2316 H         1 UNK         0.0903 
     65 H65        17.2549  -26.0335  -46.9998 H         1 UNK         0.3096 
     66 H66        17.5332  -28.4911  -45.5355 H         1 UNK         0.1121 
     67 H67        17.5883  -25.5461  -44.6611 H         1 UNK         0.0849 
     68 H68        17.6926  -26.8458  -43.5255 H         1 UNK         0.0849 
     69 H69        14.1203  -28.4992  -43.6445 H         1 UNK         0.0865 
     70 H70        15.1105  -28.9687  -44.9974 H         1 UNK         0.0865 
     71 H71        16.5430  -30.7204  -44.3920 H         1 UNK         0.1346 
     72 H72        18.5596  -30.7911  -40.6093 H         1 UNK         0.1412 
     73 H73        15.8264  -27.6159  -41.5253 H         1 UNK         0.1426 
     74 H74        17.2620  -29.3481  -38.7967 H         1 UNK         0.0716 
     75 H75        16.7023  -27.7804  -39.3122 H         1 UNK         0.0716 
     76 H76        19.0150  -25.5127  -39.5162 H         1 UNK         0.0695 
     77 H77        18.1572  -26.2885  -40.8236 H         1 UNK         0.0695 
     78 H78        21.2055  -26.3493  -40.5047 H         1 UNK         0.0983 
     79 H79        19.4450  -27.6142  -42.4383 H         1 UNK         0.3095 
     80 H80        21.9487  -28.2991  -44.7926 H         1 UNK         0.0454 
     81 H81        20.8157  -30.4011  -42.8760 H         1 UNK         0.0851 
     82 H82        22.5223  -30.0736  -43.1138 H         1 UNK         0.0851 
     83 H83        21.5685  -30.6818  -44.4539 H         1 UNK         0.0851 
     84 H84        19.2151  -29.2014  -44.2222 H         1 UNK         0.2976 
     85 H85        21.0636  -22.9373  -41.7394 H         1 UNK         0.3116 
     86 H86        21.1385  -24.4161  -39.2191 H         1 UNK         0.0646 
     87 H87        22.0997  -21.6152  -39.9821 H         1 UNK         0.0847 
     88 H88        21.9624  -22.2578  -38.3525 H         1 UNK         0.0847 
     89 H89        20.5167  -22.0103  -39.3118 H         1 UNK         0.0847 
     90 H90        23.1303  -24.6332  -41.8935 H         1 UNK         0.3040 
     91 H91        25.7418  -24.3919  -40.7596 H         1 UNK         0.1015 
     92 H92        24.7863  -26.0178  -43.1803 H         1 UNK         0.0786 
     93 H93        26.4568  -25.6311  -42.8019 H         1 UNK         0.0786 
     94 H94        25.3359  -24.3428  -43.2071 H         1 UNK         0.0786 
     95 H95        23.4314  -26.9975  -40.7635 H         1 UNK         0.3172 
     96 H96        23.1191  -28.7628  -39.4740 H         1 UNK         0.0595 
     97 H97        24.2970  -29.0844  -37.3472 H         1 UNK         0.0839 
     98 H98        23.9432  -27.3776  -37.5596 H         1 UNK         0.0839 
     99 H99        25.5774  -27.9832  -37.8266 H         1 UNK         0.0839 
    100 H100       24.3480  -29.0912  -41.9071 H         1 UNK         0.2998 
    101 H101       26.3555  -31.1942  -41.7433 H         1 UNK         0.0822 
    102 H102       25.9767  -31.3673  -44.1893 H         1 UNK         0.0787 
    103 H103       24.5914  -30.2944  -44.0883 H         1 UNK         0.0787 
    104 H104       26.2048  -29.6943  -43.7168 H         1 UNK         0.0787 
    105 H105       23.1170  -31.2021  -40.9670 H         1 UNK         0.3055 
    106 H106       21.5830  -32.6904  -40.4295 H         1 UNK         0.1106 
    107 H107       22.3181  -34.8897  -39.6051 H         1 UNK         0.0828 
    108 H108       23.8287  -34.7722  -40.4929 H         1 UNK         0.0828 
    109 H109       23.5017  -33.6778  -39.1498 H         1 UNK         0.0828 
    110 H110       22.4183  -32.5067  -43.4380 H         1 UNK         0.2931 
    111 H111       21.6559  -33.1483  -45.3983 H         1 UNK         0.0412 
    112 H112       23.5897  -36.4034  -44.8973 H         1 UNK         0.3472 
    113 H113       23.6477  -34.9308  -43.9565 H         1 UNK         0.3472 
    114 H114       19.3406  -34.5161  -43.9357 H         1 UNK         0.0970 
    115 H115       19.4241  -34.2868  -45.6571 H         1 UNK         0.0970 
    116 H116       19.0754  -32.4730  -42.2072 H         1 UNK         0.0612 
    117 H117       17.5505  -33.0046  -42.8822 H         1 UNK         0.0612 
@<TRIPOS>BOND
     1    1    2 1    
     2    1   62 1    
     3    1   63 1    
     4    1   64 1    
     5    2    3 2    
     6    2    4 am   BACKBONE|DICT|INTERRES
     7    4    5 1    
     8    4   65 1    
     9    5    6 1    
    10    5   25 1    
    11    5   66 1    
    12    6    7 1    
    13    6   67 1    
    14    6   68 1    
    15    7    8 1    
    16    8    9 1    
    17    8   69 1    
    18    8   70 1    
    19    9   10 ar   
    20    9   14 ar   
    21   10   11 ar   
    22   10   71 1    
    23   11   12 ar   
    24   11   61 1    
    25   12   13 ar   
    26   12   72 1    
    27   13   14 ar   
    28   13   15 1    
    29   14   73 1    
    30   15   16 1    
    31   15   74 1    
    32   15   75 1    
    33   16   17 1    
    34   17   18 1    
    35   17   76 1    
    36   17   77 1    
    37   18   19 1    
    38   18   27 1    
    39   18   78 1    
    40   19   20 am   BACKBONE|DICT|INTERRES
    41   19   79 1    
    42   20   21 2    
    43   20   22 1    
    44   22   23 1    
    45   22   24 1    
    46   22   80 1    
    47   23   81 1    
    48   23   82 1    
    49   23   83 1    
    50   24   25 am   BACKBONE|DICT|INTERRES
    51   24   84 1    
    52   25   26 2    
    53   27   28 2    
    54   27   29 am   BACKBONE|DICT|INTERRES
    55   29   30 1    
    56   29   85 1    
    57   30   31 1    
    58   30   32 1    
    59   30   86 1    
    60   31   87 1    
    61   31   88 1    
    62   31   89 1    
    63   32   33 2    
    64   32   34 am   BACKBONE|DICT|INTERRES
    65   34   35 1    
    66   34   90 1    
    67   35   36 1    
    68   35   37 1    
    69   35   91 1    
    70   36   92 1    
    71   36   93 1    
    72   36   94 1    
    73   37   38 2    
    74   37   39 am   BACKBONE|DICT|INTERRES
    75   39   40 1    
    76   39   95 1    
    77   40   41 1    
    78   40   42 1    
    79   40   96 1    
    80   41   97 1    
    81   41   98 1    
    82   41   99 1    
    83   42   43 2    
    84   42   44 am   BACKBONE|DICT|INTERRES
    85   44   45 1    
    86   44  100 1    
    87   45   46 1    
    88   45   47 1    
    89   45  101 1    
    90   46  102 1    
    91   46  103 1    
    92   46  104 1    
    93   47   48 2    
    94   47   49 am   BACKBONE|DICT|INTERRES
    95   49   50 1    
    96   49  105 1    
    97   50   51 1    
    98   50   52 1    
    99   50  106 1    
   100   51  107 1    
   101   51  108 1    
   102   51  109 1    
   103   52   53 2    
   104   52   54 am   BACKBONE|DICT|INTERRES
   105   54   55 1    
   106   54  110 1    
   107   55   56 1    
   108   55   59 1    
   109   55  111 1    
   110   56   57 am   BACKBONE|DICT|INTERRES
   111   56   58 2    
   112   57  112 1    
   113   57  113 1    
   114   59   60 1    
   115   59  114 1    
   116   59  115 1    
   117   60   61 1    
   118   61  116 1    
   119   61  117 1    
@<TRIPOS>SUBSTRUCTURE
     1 UNK         1 GROUP             0       ****    0 ROOT    
