@<TRIPOS>MOLECULE
3R8
117   119    1
SMALL
USER_CHARGES


@<TRIPOS>ATOM
      1 CA         22.0638  -22.7173  -48.5842 C.3       0 UNK        -0.2013 
      2 C          21.9373  -23.7933  -47.5160 C.2       0 UNK         0.4866 
      3 O          22.6267  -23.7288  -46.4981 O.2       0 UNK        -0.5176 
      4 N          21.0683  -24.7866  -47.7429 N.am      1 UNK        -0.4884 
      5 CA         20.7681  -25.8619  -46.7931 C.3       1 UNK         0.0853 
      6 C6         20.0947  -27.0587  -47.5100 C.3       10 UNK        -0.0849 
      7 S7         20.1377  -28.5824  -46.5074 S.3       10 UNK        -0.2776 
      8 C8         18.3617  -28.8645  -46.2020 C.3       10 UNK         0.0316 
      9 C9         18.0722  -29.7376  -44.9820 C.ar      10 UNK        -0.0863 
     10 C10        18.8385  -30.8718  -44.6804 C.ar      10 UNK        -0.1009 
     11 C11        18.5350  -31.6682  -43.5661 C.ar      10 UNK        -0.0712 
     12 C12        17.4579  -31.3110  -42.7501 C.ar      10 UNK        -0.0894 
     13 C13        16.6812  -30.1887  -43.0409 C.ar      10 UNK        -0.0745 
     14 C14        16.9890  -29.4126  -44.1608 C.ar      10 UNK        -0.0972 
     15 C15        15.5036  -29.8182  -42.1518 C.3       10 UNK         0.0209 
     16 S16        15.7323  -28.1929  -41.3684 S.3       10 UNK        -0.2568 
     17 C17        17.0589  -28.5233  -40.1551 C.3       10 UNK        -0.0983 
     18 CA         18.5068  -28.3021  -40.6836 C.3       3 UNK         0.0876 
     19 N          18.6124  -27.1197  -41.5416 N.am      3 UNK        -0.4424 
     20 C          19.6961  -26.7133  -42.2117 C.2       2 UNK         0.4918 
     21 O          20.8226  -27.2114  -42.1107 O.2       2 UNK        -0.4875 
     22 CA         19.4821  -25.5424  -43.1731 C.3       2 UNK         0.0481 
     23 CB         20.0307  -24.2318  -42.5817 C.3       2 UNK        -0.1831 
     24 N          20.1618  -25.8689  -44.4200 N.am      2 UNK        -0.4498 
     25 C          19.9170  -25.3296  -45.6182 C.2       1 UNK         0.5027 
     26 O          19.0556  -24.4697  -45.8229 O.2       1 UNK        -0.4969 
     27 C          19.5007  -28.2255  -39.5088 C.2       3 UNK         0.5005 
     28 O          19.3374  -27.3630  -38.6425 O.2       3 UNK        -0.5279 
     29 N          20.5356  -29.0772  -39.5242 N.am      4 UNK        -0.4463 
     30 CA         21.6603  -29.1844  -38.5805 C.3       4 UNK         0.0283 
     31 CB         21.1782  -29.4953  -37.1508 C.3       4 UNK        -0.1875 
     32 C          22.6294  -27.9870  -38.5946 C.2       4 UNK         0.4949 
     33 O          23.8300  -28.1891  -38.4156 O.2       4 UNK        -0.5039 
     34 N          22.1081  -26.7745  -38.8171 N.am      5 UNK        -0.4663 
     35 CA         22.8529  -25.5184  -38.9057 C.3       5 UNK         0.0242 
     36 CB         21.8593  -24.3468  -38.9454 C.3       5 UNK        -0.1982 
     37 C          23.8142  -25.4546  -40.1040 C.2       5 UNK         0.5017 
     38 O          24.8706  -24.8330  -39.9816 O.2       5 UNK        -0.5012 
     39 N          23.4439  -26.0958  -41.2212 N.am      6 UNK        -0.4439 
     40 CA         24.2817  -26.2225  -42.4155 C.3       6 UNK         0.0297 
     41 CB         23.7238  -25.3491  -43.5487 C.3       6 UNK        -0.2006 
     42 C          24.4259  -27.6830  -42.8651 C.2       6 UNK         0.4892 
     43 O          25.5089  -28.0468  -43.3256 O.2       6 UNK        -0.5089 
     44 N          23.3694  -28.4971  -42.7257 N.am      7 UNK        -0.4243 
     45 CA         23.3804  -29.9142  -43.0809 C.3       7 UNK         0.0196 
     46 CB         22.6856  -30.1126  -44.4362 C.3       7 UNK        -0.2007 
     47 C          22.6639  -30.7167  -41.9952 C.2       7 UNK         0.5020 
     48 O          21.4871  -30.4669  -41.7313 O.2       7 UNK        -0.5147 
     49 N          23.3744  -31.6834  -41.4039 N.am      8 UNK        -0.4734 
     50 CA         22.8097  -32.6713  -40.4776 C.3       8 UNK         0.0238 
     51 CB         23.8741  -33.0466  -39.4335 C.3       8 UNK        -0.1912 
     52 C          22.2921  -33.9279  -41.2029 C.2       8 UNK         0.5038 
     53 O          21.5409  -34.6945  -40.6001 O.2       8 UNK        -0.5046 
     54 N          22.6935  -34.1114  -42.4707 N.am      9 UNK        -0.4200 
     55 CA         22.3239  -35.2271  -43.3618 C.3       9 UNK         0.0839 
     56 C          22.8541  -36.6239  -42.9109 C.2       9 UNK         0.5513 
     57 N          23.8605  -36.7005  -42.0482 N.am      9 UNK        -0.7519 
     58 O          22.3726  -37.6561  -43.3716 O.2       9 UNK        -0.4960 
     59 C59        20.8097  -35.2450  -43.7224 C.3       10 UNK        -0.0876 
     60 S60        20.2451  -33.7135  -44.5442 S.3       10 UNK        -0.2414 
     61 C61        19.3492  -32.9018  -43.1784 C.3       10 UNK         0.0169 
     62 H62        21.4042  -22.9032  -49.4316 H         1 UNK         0.0903 
     63 H63        21.8119  -21.7431  -48.1659 H         1 UNK         0.0903 
     64 H64        23.0877  -22.6749  -48.9544 H         1 UNK         0.0903 
     65 H65        20.5039  -24.7688  -48.5806 H         1 UNK         0.3096 
     66 H66        21.7244  -26.2046  -46.3895 H         1 UNK         0.1121 
     67 H67        20.6291  -27.2807  -48.4353 H         1 UNK         0.0849 
     68 H68        19.0734  -26.8167  -47.8106 H         1 UNK         0.0849 
     69 H69        17.8734  -27.8963  -46.0789 H         1 UNK         0.0865 
     70 H70        17.9171  -29.3268  -47.0841 H         1 UNK         0.0865 
     71 H71        19.6742  -31.1284  -45.3152 H         1 UNK         0.1346 
     72 H72        17.2229  -31.9122  -41.8822 H         1 UNK         0.1412 
     73 H73        16.3810  -28.5465  -44.3852 H         1 UNK         0.1426 
     74 H74        15.3331  -30.5719  -41.3814 H         1 UNK         0.0716 
     75 H75        14.5982  -29.7908  -42.7596 H         1 UNK         0.0716 
     76 H76        16.9508  -29.5392  -39.7711 H         1 UNK         0.0695 
     77 H77        16.8523  -27.8646  -39.3091 H         1 UNK         0.0695 
     78 H78        18.7754  -29.1592  -41.3049 H         1 UNK         0.0983 
     79 H79        17.7409  -26.6312  -41.6866 H         1 UNK         0.3095 
     80 H80        18.4139  -25.4316  -43.3718 H         1 UNK         0.0454 
     81 H81        21.0977  -24.3000  -42.3679 H         1 UNK         0.0851 
     82 H82        19.5235  -23.9838  -41.6487 H         1 UNK         0.0851 
     83 H83        19.8807  -23.3937  -43.2620 H         1 UNK         0.0851 
     84 H84        20.8291  -26.6257  -44.3403 H         1 UNK         0.2976 
     85 H85        20.6520  -29.6561  -40.3575 H         1 UNK         0.3116 
     86 H86        22.2398  -30.0438  -38.9188 H         1 UNK         0.0646 
     87 H87        20.6129  -28.6687  -36.7197 H         1 UNK         0.0847 
     88 H88        22.0248  -29.6849  -36.4896 H         1 UNK         0.0847 
     89 H89        20.5459  -30.3827  -37.1295 H         1 UNK         0.0847 
     90 H90        21.0949  -26.7215  -38.8840 H         1 UNK         0.3040 
     91 H91        23.4570  -25.4271  -38.0003 H         1 UNK         0.1015 
     92 H92        21.1893  -24.4161  -39.8022 H         1 UNK         0.0786 
     93 H93        22.3816  -23.3913  -39.0133 H         1 UNK         0.0786 
     94 H94        21.2466  -24.3170  -38.0441 H         1 UNK         0.0786 
     95 H95        22.5442  -26.5637  -41.2369 H         1 UNK         0.3172 
     96 H96        25.2926  -25.8705  -42.1991 H         1 UNK         0.0595 
     97 H97        22.7270  -25.6650  -43.8444 H         1 UNK         0.0839 
     98 H98        24.3571  -25.4047  -44.4352 H         1 UNK         0.0839 
     99 H99        23.6702  -24.3007  -43.2552 H         1 UNK         0.0839 
    100 H100       22.4859  -28.1458  -42.3660 H         1 UNK         0.2998 
    101 H101       24.4062  -30.2798  -43.1640 H         1 UNK         0.0822 
    102 H102       23.1748  -29.5421  -45.2257 H         1 UNK         0.0787 
    103 H103       22.6932  -31.1618  -44.7342 H         1 UNK         0.0787 
    104 H104       21.6436  -29.7973  -44.3885 H         1 UNK         0.0787 
    105 H105       24.3497  -31.7935  -41.6458 H         1 UNK         0.3055 
    106 H106       21.9565  -32.2375  -39.9510 H         1 UNK         0.1106 
    107 H107       23.4792  -33.7654  -38.7140 H         1 UNK         0.0828 
    108 H108       24.7548  -33.4962  -39.8933 H         1 UNK         0.0828 
    109 H109       24.1988  -32.1723  -38.8688 H         1 UNK         0.0828 
    110 H110       23.3108  -33.4244  -42.8746 H         1 UNK         0.2931 
    111 H111       22.8621  -35.0308  -44.2899 H         1 UNK         0.0412 
    112 H112       24.2046  -37.6065  -41.7704 H         1 UNK         0.3472 
    113 H113       24.2772  -35.8647  -41.6713 H         1 UNK         0.3472 
    114 H114       20.5963  -36.0618  -44.4141 H         1 UNK         0.0970 
    115 H115       20.2056  -35.4470  -42.8369 H         1 UNK         0.0970 
    116 H116       18.6843  -33.6390  -42.7256 H         1 UNK         0.0612 
    117 H117       20.0614  -32.6110  -42.4085 H         1 UNK         0.0612 
@<TRIPOS>BOND
     1    1    2 1    
     2    1   62 1    
     3    1   63 1    
     4    1   64 1    
     5    2    3 2    
     6    2    4 am   BACKBONE|DICT|INTERRES
     7    4    5 1    
     8    4   65 1    
     9    5    6 1    
    10    5   25 1    
    11    5   66 1    
    12    6    7 1    
    13    6   67 1    
    14    6   68 1    
    15    7    8 1    
    16    8    9 1    
    17    8   69 1    
    18    8   70 1    
    19    9   10 ar   
    20    9   14 ar   
    21   10   11 ar   
    22   10   71 1    
    23   11   12 ar   
    24   11   61 1    
    25   12   13 ar   
    26   12   72 1    
    27   13   14 ar   
    28   13   15 1    
    29   14   73 1    
    30   15   16 1    
    31   15   74 1    
    32   15   75 1    
    33   16   17 1    
    34   17   18 1    
    35   17   76 1    
    36   17   77 1    
    37   18   19 1    
    38   18   27 1    
    39   18   78 1    
    40   19   20 am   BACKBONE|DICT|INTERRES
    41   19   79 1    
    42   20   21 2    
    43   20   22 1    
    44   22   23 1    
    45   22   24 1    
    46   22   80 1    
    47   23   81 1    
    48   23   82 1    
    49   23   83 1    
    50   24   25 am   BACKBONE|DICT|INTERRES
    51   24   84 1    
    52   25   26 2    
    53   27   28 2    
    54   27   29 am   BACKBONE|DICT|INTERRES
    55   29   30 1    
    56   29   85 1    
    57   30   31 1    
    58   30   32 1    
    59   30   86 1    
    60   31   87 1    
    61   31   88 1    
    62   31   89 1    
    63   32   33 2    
    64   32   34 am   BACKBONE|DICT|INTERRES
    65   34   35 1    
    66   34   90 1    
    67   35   36 1    
    68   35   37 1    
    69   35   91 1    
    70   36   92 1    
    71   36   93 1    
    72   36   94 1    
    73   37   38 2    
    74   37   39 am   BACKBONE|DICT|INTERRES
    75   39   40 1    
    76   39   95 1    
    77   40   41 1    
    78   40   42 1    
    79   40   96 1    
    80   41   97 1    
    81   41   98 1    
    82   41   99 1    
    83   42   43 2    
    84   42   44 am   BACKBONE|DICT|INTERRES
    85   44   45 1    
    86   44  100 1    
    87   45   46 1    
    88   45   47 1    
    89   45  101 1    
    90   46  102 1    
    91   46  103 1    
    92   46  104 1    
    93   47   48 2    
    94   47   49 am   BACKBONE|DICT|INTERRES
    95   49   50 1    
    96   49  105 1    
    97   50   51 1    
    98   50   52 1    
    99   50  106 1    
   100   51  107 1    
   101   51  108 1    
   102   51  109 1    
   103   52   53 2    
   104   52   54 am   BACKBONE|DICT|INTERRES
   105   54   55 1    
   106   54  110 1    
   107   55   56 1    
   108   55   59 1    
   109   55  111 1    
   110   56   57 am   BACKBONE|DICT|INTERRES
   111   56   58 2    
   112   57  112 1    
   113   57  113 1    
   114   59   60 1    
   115   59  114 1    
   116   59  115 1    
   117   60   61 1    
   118   61  116 1    
   119   61  117 1    
@<TRIPOS>SUBSTRUCTURE
     1 UNK         1 GROUP             0       ****    0 ROOT    
