@<TRIPOS>MOLECULE
3R8
117   119    1
SMALL
USER_CHARGES


@<TRIPOS>ATOM
      1 CA         21.3207  -26.1096  -49.0315 C.3       0 UNK        -0.2013 
      2 C          20.8456  -26.6529  -47.6928 C.2       0 UNK         0.4866 
      3 O          21.6230  -27.2824  -46.9747 O.2       0 UNK        -0.5176 
      4 N          19.5777  -26.4056  -47.3398 N.am      1 UNK        -0.4884 
      5 CA         18.9227  -26.8637  -46.1065 C.3       1 UNK         0.0853 
      6 C6         17.3809  -26.9158  -46.2631 C.3       10 UNK        -0.0849 
      7 S7         16.8580  -28.1667  -47.4823 S.3       10 UNK        -0.2776 
      8 C8         15.5028  -29.0047  -46.5964 C.3       10 UNK         0.0316 
      9 C9         15.9961  -29.8991  -45.4646 C.ar      10 UNK        -0.0863 
     10 C10        16.6085  -31.1219  -45.7588 C.ar      10 UNK        -0.1009 
     11 C11        17.0035  -31.9828  -44.7311 C.ar      10 UNK        -0.0712 
     12 C12        16.7690  -31.6200  -43.4026 C.ar      10 UNK        -0.0894 
     13 C13        16.1834  -30.3911  -43.0914 C.ar      10 UNK        -0.0745 
     14 C14        15.7970  -29.5330  -44.1273 C.ar      10 UNK        -0.0972 
     15 C15        15.9388  -30.0227  -41.6337 C.3       10 UNK         0.0209 
     16 S16        17.4907  -29.8497  -40.6917 S.3       10 UNK        -0.2568 
     17 C17        18.0281  -28.1818  -41.1897 C.3       10 UNK        -0.0983 
     18 CA         19.5685  -28.0134  -41.1714 C.3       3 UNK         0.0876 
     19 N          19.9603  -26.8629  -41.9813 N.am      3 UNK        -0.4424 
     20 C          21.1935  -26.4184  -42.2514 C.2       2 UNK         0.4918 
     21 O          22.2222  -26.8175  -41.7005 O.2       2 UNK        -0.4875 
     22 CA         21.2775  -25.4016  -43.4086 C.3       2 UNK         0.0481 
     23 CB         22.7224  -24.9850  -43.7289 C.3       2 UNK        -0.1831 
     24 N          20.6671  -25.9564  -44.6226 N.am      2 UNK        -0.4498 
     25 C          19.3541  -26.0327  -44.8763 C.2       1 UNK         0.5027 
     26 O          18.5059  -25.5155  -44.1457 O.2       1 UNK        -0.4969 
     27 C          20.1375  -27.9457  -39.7411 C.2       3 UNK         0.5005 
     28 O          19.7189  -27.0913  -38.9564 O.2       3 UNK        -0.5279 
     29 N          21.0944  -28.8402  -39.4547 N.am      4 UNK        -0.4463 
     30 CA         21.8300  -29.0041  -38.1947 C.3       4 UNK         0.0283 
     31 CB         20.8794  -29.3198  -37.0205 C.3       4 UNK        -0.1875 
     32 C          22.8000  -27.8482  -37.8784 C.2       4 UNK         0.4949 
     33 O          23.3094  -27.7798  -36.7588 O.2       4 UNK        -0.5039 
     34 N          23.0684  -26.9878  -38.8676 N.am      5 UNK        -0.4663 
     35 CA         24.0964  -25.9554  -38.8359 C.3       5 UNK         0.0242 
     36 CB         23.4821  -24.6097  -39.2752 C.3       5 UNK        -0.1982 
     37 C          25.2439  -26.4491  -39.7264 C.2       5 UNK         0.5017 
     38 O          26.0033  -27.3181  -39.2956 O.2       5 UNK        -0.5012 
     39 N          25.3401  -25.9206  -40.9529 N.am      6 UNK        -0.4439 
     40 CA         26.3276  -26.3343  -41.9518 C.3       6 UNK         0.0297 
     41 CB         26.4940  -25.2246  -43.0030 C.3       6 UNK        -0.2006 
     42 C          25.9957  -27.6797  -42.6253 C.2       6 UNK         0.4892 
     43 O          26.9151  -28.3166  -43.1415 O.2       6 UNK        -0.5089 
     44 N          24.7185  -28.0897  -42.6210 N.am      7 UNK        -0.4243 
     45 CA         24.2488  -29.3418  -43.2067 C.3       7 UNK         0.0196 
     46 CB         23.2301  -29.0387  -44.3205 C.3       7 UNK        -0.2007 
     47 C          23.6225  -30.2025  -42.1061 C.2       7 UNK         0.5020 
     48 O          22.5093  -29.9189  -41.6567 O.2       7 UNK        -0.5147 
     49 N          24.3119  -31.2812  -41.7170 N.am      8 UNK        -0.4734 
     50 CA         23.8170  -32.3071  -40.7886 C.3       8 UNK         0.0238 
     51 CB         25.0195  -33.0307  -40.1545 C.3       8 UNK        -0.1912 
     52 C          22.8329  -33.2767  -41.4809 C.2       8 UNK         0.5038 
     53 O          23.0140  -34.4943  -41.4255 O.2       8 UNK        -0.5046 
     54 N          21.8328  -32.7030  -42.1581 N.am      9 UNK        -0.4200 
     55 CA         20.8088  -33.3938  -42.9502 C.3       9 UNK         0.0839 
     56 C          19.7724  -34.1719  -42.0901 C.2       9 UNK         0.5513 
     57 N          19.4858  -33.7429  -40.8663 N.am      9 UNK        -0.7519 
     58 O          19.2396  -35.1878  -42.5274 O.2       9 UNK        -0.4960 
     59 C59        20.1330  -32.3891  -43.9206 C.3       10 UNK        -0.0876 
     60 S60        19.4415  -33.1464  -45.4327 S.3       10 UNK        -0.2414 
     61 C61        17.6667  -33.3152  -45.0480 C.3       10 UNK         0.0169 
     62 H62        20.5308  -25.5751  -49.5588 H         1 UNK         0.0903 
     63 H63        22.1546  -25.4241  -48.8830 H         1 UNK         0.0903 
     64 H64        21.6602  -26.9267  -49.6674 H         1 UNK         0.0903 
     65 H65        18.9895  -25.8729  -47.9652 H         1 UNK         0.3096 
     66 H66        19.2594  -27.8835  -45.9032 H         1 UNK         0.1121 
     67 H67        16.9075  -27.1491  -45.3082 H         1 UNK         0.0849 
     68 H68        16.9877  -25.9427  -46.5631 H         1 UNK         0.0849 
     69 H69        14.7967  -28.2599  -46.2256 H         1 UNK         0.0865 
     70 H70        14.9457  -29.6135  -47.3101 H         1 UNK         0.0865 
     71 H71        16.7720  -31.4068  -46.7894 H         1 UNK         0.1346 
     72 H72        17.0596  -32.2884  -42.6029 H         1 UNK         0.1412 
     73 H73        15.3213  -28.5905  -43.8925 H         1 UNK         0.1426 
     74 H74        15.3368  -30.8062  -41.1714 H         1 UNK         0.0716 
     75 H75        15.3577  -29.1029  -41.5503 H         1 UNK         0.0716 
     76 H76        17.5372  -27.4411  -40.5554 H         1 UNK         0.0695 
     77 H77        17.6546  -28.0042  -42.1998 H         1 UNK         0.0695 
     78 H78        19.9997  -28.8828  -41.6728 H         1 UNK         0.0983 
     79 H79        19.2081  -26.4177  -42.4950 H         1 UNK         0.3095 
     80 H80        20.7290  -24.5076  -43.1051 H         1 UNK         0.0454 
     81 H81        23.3275  -25.8392  -44.0345 H         1 UNK         0.0851 
     82 H82        23.1990  -24.5302  -42.8607 H         1 UNK         0.0851 
     83 H83        22.7531  -24.2503  -44.5334 H         1 UNK         0.0851 
     84 H84        21.2866  -26.4250  -45.2793 H         1 UNK         0.2976 
     85 H85        21.4548  -29.3943  -40.2310 H         1 UNK         0.3116 
     86 H86        22.4623  -29.8806  -38.3429 H         1 UNK         0.0646 
     87 H87        20.2700  -28.4579  -36.7478 H         1 UNK         0.0847 
     88 H88        21.4398  -29.6113  -36.1315 H         1 UNK         0.0847 
     89 H89        20.2081  -30.1435  -37.2627 H         1 UNK         0.0847 
     90 H90        22.6225  -27.1360  -39.7681 H         1 UNK         0.3040 
     91 H91        24.4993  -25.8325  -37.8281 H         1 UNK         0.1015 
     92 H92        22.7316  -24.2785  -38.5571 H         1 UNK         0.0786 
     93 H93        22.9926  -24.6673  -40.2472 H         1 UNK         0.0786 
     94 H94        24.2408  -23.8274  -39.3254 H         1 UNK         0.0786 
     95 H95        24.6652  -25.2231  -41.2287 H         1 UNK         0.3172 
     96 H96        27.2891  -26.4555  -41.4478 H         1 UNK         0.0595 
     97 H97        25.5806  -25.0568  -43.5717 H         1 UNK         0.0839 
     98 H98        27.2749  -25.4843  -43.7192 H         1 UNK         0.0839 
     99 H99        26.7831  -24.2798  -42.5424 H         1 UNK         0.0839 
    100 H100       24.0092  -27.5376  -42.1474 H         1 UNK         0.2998 
    101 H101       25.0734  -29.8983  -43.6568 H         1 UNK         0.0822 
    102 H102       23.6700  -28.4190  -45.1021 H         1 UNK         0.0787 
    103 H103       22.8849  -29.9587  -44.7935 H         1 UNK         0.0787 
    104 H104       22.3494  -28.5200  -43.9433 H         1 UNK         0.0787 
    105 H105       25.2089  -31.4623  -42.1458 H         1 UNK         0.3055 
    106 H106       23.2646  -31.8180  -39.9829 H         1 UNK         0.1106 
    107 H107       24.6905  -33.7670  -39.4198 H         1 UNK         0.0828 
    108 H108       25.6142  -33.5583  -40.9012 H         1 UNK         0.0828 
    109 H109       25.6750  -32.3311  -39.6356 H         1 UNK         0.0828 
    110 H110       21.7787  -31.6909  -42.1270 H         1 UNK         0.2931 
    111 H111       21.3378  -34.1349  -43.5532 H         1 UNK         0.0412 
    112 H112       19.9235  -32.9157  -40.4946 H         1 UNK         0.3472 
    113 H113       18.8237  -34.2571  -40.3069 H         1 UNK         0.3472 
    114 H114       19.3982  -31.7756  -43.4019 H         1 UNK         0.0970 
    115 H115       20.8776  -31.6769  -44.2803 H         1 UNK         0.0970 
    116 H116       17.5380  -34.0124  -44.2198 H         1 UNK         0.0612 
    117 H117       17.1679  -33.7724  -45.9037 H         1 UNK         0.0612 
@<TRIPOS>BOND
     1    1    2 1    
     2    1   62 1    
     3    1   63 1    
     4    1   64 1    
     5    2    3 2    
     6    2    4 am   BACKBONE|DICT|INTERRES
     7    4    5 1    
     8    4   65 1    
     9    5    6 1    
    10    5   25 1    
    11    5   66 1    
    12    6    7 1    
    13    6   67 1    
    14    6   68 1    
    15    7    8 1    
    16    8    9 1    
    17    8   69 1    
    18    8   70 1    
    19    9   10 ar   
    20    9   14 ar   
    21   10   11 ar   
    22   10   71 1    
    23   11   12 ar   
    24   11   61 1    
    25   12   13 ar   
    26   12   72 1    
    27   13   14 ar   
    28   13   15 1    
    29   14   73 1    
    30   15   16 1    
    31   15   74 1    
    32   15   75 1    
    33   16   17 1    
    34   17   18 1    
    35   17   76 1    
    36   17   77 1    
    37   18   19 1    
    38   18   27 1    
    39   18   78 1    
    40   19   20 am   BACKBONE|DICT|INTERRES
    41   19   79 1    
    42   20   21 2    
    43   20   22 1    
    44   22   23 1    
    45   22   24 1    
    46   22   80 1    
    47   23   81 1    
    48   23   82 1    
    49   23   83 1    
    50   24   25 am   BACKBONE|DICT|INTERRES
    51   24   84 1    
    52   25   26 2    
    53   27   28 2    
    54   27   29 am   BACKBONE|DICT|INTERRES
    55   29   30 1    
    56   29   85 1    
    57   30   31 1    
    58   30   32 1    
    59   30   86 1    
    60   31   87 1    
    61   31   88 1    
    62   31   89 1    
    63   32   33 2    
    64   32   34 am   BACKBONE|DICT|INTERRES
    65   34   35 1    
    66   34   90 1    
    67   35   36 1    
    68   35   37 1    
    69   35   91 1    
    70   36   92 1    
    71   36   93 1    
    72   36   94 1    
    73   37   38 2    
    74   37   39 am   BACKBONE|DICT|INTERRES
    75   39   40 1    
    76   39   95 1    
    77   40   41 1    
    78   40   42 1    
    79   40   96 1    
    80   41   97 1    
    81   41   98 1    
    82   41   99 1    
    83   42   43 2    
    84   42   44 am   BACKBONE|DICT|INTERRES
    85   44   45 1    
    86   44  100 1    
    87   45   46 1    
    88   45   47 1    
    89   45  101 1    
    90   46  102 1    
    91   46  103 1    
    92   46  104 1    
    93   47   48 2    
    94   47   49 am   BACKBONE|DICT|INTERRES
    95   49   50 1    
    96   49  105 1    
    97   50   51 1    
    98   50   52 1    
    99   50  106 1    
   100   51  107 1    
   101   51  108 1    
   102   51  109 1    
   103   52   53 2    
   104   52   54 am   BACKBONE|DICT|INTERRES
   105   54   55 1    
   106   54  110 1    
   107   55   56 1    
   108   55   59 1    
   109   55  111 1    
   110   56   57 am   BACKBONE|DICT|INTERRES
   111   56   58 2    
   112   57  112 1    
   113   57  113 1    
   114   59   60 1    
   115   59  114 1    
   116   59  115 1    
   117   60   61 1    
   118   61  116 1    
   119   61  117 1    
@<TRIPOS>SUBSTRUCTURE
     1 UNK         1 GROUP             0       ****    0 ROOT    
