@<TRIPOS>MOLECULE
3R8
117   119    1
SMALL
USER_CHARGES


@<TRIPOS>ATOM
      1 CA         14.7946  -23.0595  -41.4960 C.3       0 UNK        -0.2013 
      2 C          15.6421  -23.7989  -42.5207 C.2       0 UNK         0.4866 
      3 O          16.7059  -23.3098  -42.9025 O.2       0 UNK        -0.5176 
      4 N          15.1761  -24.9690  -42.9754 N.am      1 UNK        -0.4884 
      5 CA         15.8946  -25.8481  -43.9031 C.3       1 UNK         0.0853 
      6 C6         14.9257  -26.8591  -44.5662 C.3       10 UNK        -0.0849 
      7 S7         15.5612  -27.5343  -46.1400 S.3       10 UNK        -0.2776 
      8 C8         15.3350  -29.3291  -45.9129 C.3       10 UNK         0.0316 
      9 C9         16.4966  -29.9546  -45.1547 C.ar      10 UNK        -0.0863 
     10 C10        16.4810  -30.0147  -43.7594 C.ar      10 UNK        -0.1009 
     11 C11        17.5544  -30.5592  -43.0493 C.ar      10 UNK        -0.0712 
     12 C12        18.6566  -31.0509  -43.7630 C.ar      10 UNK        -0.0894 
     13 C13        18.6533  -31.0681  -45.1604 C.ar      10 UNK        -0.0745 
     14 C14        17.5774  -30.5022  -45.8505 C.ar      10 UNK        -0.0972 
     15 C15        19.7644  -31.7748  -45.9258 C.3       10 UNK         0.0209 
     16 S16        20.7169  -30.6537  -46.9953 S.3       10 UNK        -0.2568 
     17 C17        22.1692  -30.2563  -45.9686 C.3       10 UNK        -0.0983 
     18 CA         22.2186  -28.7481  -45.6259 C.3       3 UNK         0.0876 
     19 N          21.2741  -28.4189  -44.5536 N.am      3 UNK        -0.4424 
     20 C          20.3455  -27.4625  -44.6355 C.2       2 UNK         0.4918 
     21 O          20.1922  -26.7277  -45.6160 O.2       2 UNK        -0.4875 
     22 CA         19.4488  -27.2691  -43.4080 C.3       2 UNK         0.0481 
     23 CB         20.1473  -26.3894  -42.3545 C.3       2 UNK        -0.1831 
     24 N          18.2109  -26.6414  -43.8598 N.am      2 UNK        -0.4498 
     25 C          17.0661  -26.5457  -43.1785 C.2       1 UNK         0.5027 
     26 O          16.9035  -26.9788  -42.0346 O.2       1 UNK        -0.4969 
     27 C          23.6547  -28.2959  -45.2904 C.2       3 UNK         0.5005 
     28 O          24.5121  -28.3432  -46.1749 O.2       3 UNK        -0.5279 
     29 N          23.9120  -27.8546  -44.0533 N.am      4 UNK        -0.4463 
     30 CA         25.2078  -27.3734  -43.5811 C.3       4 UNK         0.0283 
     31 CB         26.1177  -28.5730  -43.2473 C.3       4 UNK        -0.1875 
     32 C          24.9951  -26.5016  -42.3404 C.2       4 UNK         0.4949 
     33 O          23.8983  -26.4926  -41.7772 O.2       4 UNK        -0.5039 
     34 N          26.0706  -25.8444  -41.8843 N.am      5 UNK        -0.4663 
     35 CA         26.1259  -25.1403  -40.5946 C.3       5 UNK         0.0242 
     36 CB         27.4295  -24.3306  -40.5096 C.3       5 UNK        -0.1982 
     37 C          25.9992  -26.0926  -39.3882 C.2       5 UNK         0.5017 
     38 O          25.4878  -25.6890  -38.3445 O.2       5 UNK        -0.5012 
     39 N          26.4163  -27.3523  -39.5809 N.am      6 UNK        -0.4439 
     40 CA         26.2138  -28.4815  -38.6688 C.3       6 UNK         0.0297 
     41 CB         27.4015  -29.4504  -38.8167 C.3       6 UNK        -0.2006 
     42 C          24.8668  -29.2016  -38.9051 C.2       6 UNK         0.4892 
     43 O          24.7146  -30.3486  -38.4811 O.2       6 UNK        -0.5089 
     44 N          23.9264  -28.5414  -39.5984 N.am      7 UNK        -0.4243 
     45 CA         22.5879  -28.9827  -40.0050 C.3       7 UNK         0.0196 
     46 CB         21.7410  -29.4344  -38.7991 C.3       7 UNK        -0.2007 
     47 C          22.6172  -30.0260  -41.1341 C.2       7 UNK         0.5020 
     48 O          22.0240  -29.7864  -42.1873 O.2       7 UNK        -0.5147 
     49 N          23.3303  -31.1382  -40.9016 N.am      8 UNK        -0.4734 
     50 CA         23.5460  -32.2797  -41.8052 C.3       8 UNK         0.0238 
     51 CB         24.4453  -31.8708  -42.9912 C.3       8 UNK        -0.1912 
     52 C          22.2470  -32.9907  -42.2428 C.2       8 UNK         0.5038 
     53 O          22.1669  -33.5012  -43.3615 O.2       8 UNK        -0.5046 
     54 N          21.2534  -33.0055  -41.3483 N.am      9 UNK        -0.4200 
     55 CA         19.9331  -33.6174  -41.5495 C.3       9 UNK         0.0839 
     56 C          19.9590  -35.1567  -41.3557 C.2       9 UNK         0.5513 
     57 N          19.0219  -35.8718  -41.9632 N.am      9 UNK        -0.7519 
     58 O          20.7914  -35.7052  -40.6357 O.2       9 UNK        -0.4960 
     59 C59        18.8490  -32.9527  -40.6543 C.3       10 UNK        -0.0876 
     60 S60        18.9347  -31.1239  -40.6110 S.3       10 UNK        -0.2414 
     61 C61        17.4492  -30.5899  -41.5228 C.3       10 UNK         0.0169 
     62 H62        13.8756  -23.5966  -41.2618 H         1 UNK         0.0903 
     63 H63        15.3553  -22.9279  -40.5710 H         1 UNK         0.0903 
     64 H64        14.5239  -22.0739  -41.8738 H         1 UNK         0.0903 
     65 H65        14.3151  -25.3386  -42.5978 H         1 UNK         0.3096 
     66 H66        16.3083  -25.2101  -44.6883 H         1 UNK         0.1121 
     67 H67        14.6557  -27.6577  -43.8743 H         1 UNK         0.0849 
     68 H68        13.9865  -26.3600  -44.8109 H         1 UNK         0.0849 
     69 H69        14.3909  -29.5288  -45.4035 H         1 UNK         0.0865 
     70 H70        15.2454  -29.7941  -46.8959 H         1 UNK         0.0865 
     71 H71        15.6325  -29.6245  -43.2154 H         1 UNK         0.1346 
     72 H72        19.5161  -31.4413  -43.2435 H         1 UNK         0.1412 
     73 H73        17.5799  -30.4990  -46.9322 H         1 UNK         0.1426 
     74 H74        19.3086  -32.5380  -46.5579 H         1 UNK         0.0716 
     75 H75        20.4305  -32.3135  -45.2503 H         1 UNK         0.0716 
     76 H76        22.1781  -30.8615  -45.0609 H         1 UNK         0.0695 
     77 H77        23.0447  -30.5639  -46.5440 H         1 UNK         0.0695 
     78 H78        21.9628  -28.1942  -46.5319 H         1 UNK         0.0983 
     79 H79        21.3605  -28.9719  -43.7012 H         1 UNK         0.3095 
     80 H80        19.2227  -28.2465  -42.9790 H         1 UNK         0.0454 
     81 H81        20.3197  -25.3785  -42.7257 H         1 UNK         0.0851 
     82 H82        21.1173  -26.8021  -42.0793 H         1 UNK         0.0851 
     83 H83        19.5578  -26.3158  -41.4409 H         1 UNK         0.0851 
     84 H84        18.2612  -26.2996  -44.8125 H         1 UNK         0.2976 
     85 H85        23.1656  -27.7913  -43.3717 H         1 UNK         0.3116 
     86 H86        25.6694  -26.7586  -44.3566 H         1 UNK         0.0646 
     87 H87        25.7183  -29.1563  -42.4170 H         1 UNK         0.0847 
     88 H88        27.1201  -28.2477  -42.9680 H         1 UNK         0.0847 
     89 H89        26.2302  -29.2419  -44.1006 H         1 UNK         0.0847 
     90 H90        26.9285  -25.8821  -42.4175 H         1 UNK         0.3040 
     91 H91        25.2838  -24.4455  -40.5514 H         1 UNK         0.1015 
     92 H92        27.4845  -23.7782  -39.5703 H         1 UNK         0.0786 
     93 H93        27.4963  -23.6002  -41.3163 H         1 UNK         0.0786 
     94 H94        28.3101  -24.9721  -40.5620 H         1 UNK         0.0786 
     95 H95        26.8296  -27.5707  -40.4754 H         1 UNK         0.3172 
     96 H96        26.2040  -28.1140  -37.6407 H         1 UNK         0.0595 
     97 H97        27.3374  -30.2649  -38.0938 H         1 UNK         0.0839 
     98 H98        28.3513  -28.9445  -38.6426 H         1 UNK         0.0839 
     99 H99        27.4358  -29.8993  -39.8102 H         1 UNK         0.0839 
    100 H100       24.1717  -27.6243  -39.9513 H         1 UNK         0.2998 
    101 H101       22.1075  -28.0927  -40.4109 H         1 UNK         0.0822 
    102 H102       22.0494  -30.4068  -38.4144 H         1 UNK         0.0787 
    103 H103       21.8030  -28.7168  -37.9811 H         1 UNK         0.0787 
    104 H104       20.6902  -29.5097  -39.0730 H         1 UNK         0.0787 
    105 H105       23.7977  -31.1878  -39.9993 H         1 UNK         0.3055 
    106 H106       24.0955  -33.0249  -41.2278 H         1 UNK         0.1106 
    107 H107       25.4186  -31.5282  -42.6420 H         1 UNK         0.0828 
    108 H108       24.6295  -32.7113  -43.6614 H         1 UNK         0.0828 
    109 H109       24.0015  -31.0716  -43.5832 H         1 UNK         0.0828 
    110 H110       21.4053  -32.5648  -40.4540 H         1 UNK         0.2931 
    111 H111       19.6513  -33.4581  -42.5900 H         1 UNK         0.0412 
    112 H112       19.0122  -36.8725  -41.8392 H         1 UNK         0.3472 
    113 H113       18.3294  -35.4348  -42.5517 H         1 UNK         0.3472 
    114 H114       18.9486  -33.2988  -39.6237 H         1 UNK         0.0970 
    115 H115       17.8536  -33.2629  -40.9765 H         1 UNK         0.0970 
    116 H116       16.6057  -31.2171  -41.2318 H         1 UNK         0.0612 
    117 H117       17.2109  -29.5821  -41.1800 H         1 UNK         0.0612 
@<TRIPOS>BOND
     1    1    2 1    
     2    1   62 1    
     3    1   63 1    
     4    1   64 1    
     5    2    3 2    
     6    2    4 am   BACKBONE|DICT|INTERRES
     7    4    5 1    
     8    4   65 1    
     9    5    6 1    
    10    5   25 1    
    11    5   66 1    
    12    6    7 1    
    13    6   67 1    
    14    6   68 1    
    15    7    8 1    
    16    8    9 1    
    17    8   69 1    
    18    8   70 1    
    19    9   10 ar   
    20    9   14 ar   
    21   10   11 ar   
    22   10   71 1    
    23   11   12 ar   
    24   11   61 1    
    25   12   13 ar   
    26   12   72 1    
    27   13   14 ar   
    28   13   15 1    
    29   14   73 1    
    30   15   16 1    
    31   15   74 1    
    32   15   75 1    
    33   16   17 1    
    34   17   18 1    
    35   17   76 1    
    36   17   77 1    
    37   18   19 1    
    38   18   27 1    
    39   18   78 1    
    40   19   20 am   BACKBONE|DICT|INTERRES
    41   19   79 1    
    42   20   21 2    
    43   20   22 1    
    44   22   23 1    
    45   22   24 1    
    46   22   80 1    
    47   23   81 1    
    48   23   82 1    
    49   23   83 1    
    50   24   25 am   BACKBONE|DICT|INTERRES
    51   24   84 1    
    52   25   26 2    
    53   27   28 2    
    54   27   29 am   BACKBONE|DICT|INTERRES
    55   29   30 1    
    56   29   85 1    
    57   30   31 1    
    58   30   32 1    
    59   30   86 1    
    60   31   87 1    
    61   31   88 1    
    62   31   89 1    
    63   32   33 2    
    64   32   34 am   BACKBONE|DICT|INTERRES
    65   34   35 1    
    66   34   90 1    
    67   35   36 1    
    68   35   37 1    
    69   35   91 1    
    70   36   92 1    
    71   36   93 1    
    72   36   94 1    
    73   37   38 2    
    74   37   39 am   BACKBONE|DICT|INTERRES
    75   39   40 1    
    76   39   95 1    
    77   40   41 1    
    78   40   42 1    
    79   40   96 1    
    80   41   97 1    
    81   41   98 1    
    82   41   99 1    
    83   42   43 2    
    84   42   44 am   BACKBONE|DICT|INTERRES
    85   44   45 1    
    86   44  100 1    
    87   45   46 1    
    88   45   47 1    
    89   45  101 1    
    90   46  102 1    
    91   46  103 1    
    92   46  104 1    
    93   47   48 2    
    94   47   49 am   BACKBONE|DICT|INTERRES
    95   49   50 1    
    96   49  105 1    
    97   50   51 1    
    98   50   52 1    
    99   50  106 1    
   100   51  107 1    
   101   51  108 1    
   102   51  109 1    
   103   52   53 2    
   104   52   54 am   BACKBONE|DICT|INTERRES
   105   54   55 1    
   106   54  110 1    
   107   55   56 1    
   108   55   59 1    
   109   55  111 1    
   110   56   57 am   BACKBONE|DICT|INTERRES
   111   56   58 2    
   112   57  112 1    
   113   57  113 1    
   114   59   60 1    
   115   59  114 1    
   116   59  115 1    
   117   60   61 1    
   118   61  116 1    
   119   61  117 1    
@<TRIPOS>SUBSTRUCTURE
     1 UNK         1 GROUP             0       ****    0 ROOT    
