@<TRIPOS>MOLECULE
3R8
117   119    1
SMALL
USER_CHARGES


@<TRIPOS>ATOM
      1 CA         12.2963  -24.9652  -45.6603 C.3       0 UNK        -0.2013 
      2 C          13.6746  -25.4921  -45.2878 C.2       0 UNK         0.4866 
      3 O          13.8531  -25.9647  -44.1657 O.2       0 UNK        -0.5176 
      4 N          14.6293  -25.4032  -46.2272 N.am      1 UNK        -0.4884 
      5 CA         16.0393  -25.8174  -46.1470 C.3       1 UNK         0.0853 
      6 C6         16.2798  -27.3069  -46.5350 C.3       10 UNK        -0.0849 
      7 S7         15.5814  -28.5799  -45.4212 S.3       10 UNK        -0.2776 
      8 C8         16.8151  -29.9144  -45.5485 C.3       10 UNK         0.0316 
      9 C9         18.1320  -29.5536  -44.8741 C.ar      10 UNK        -0.0863 
     10 C10        18.2598  -29.6468  -43.4855 C.ar      10 UNK        -0.1009 
     11 C11        19.4763  -29.3495  -42.8641 C.ar      10 UNK        -0.0712 
     12 C12        20.5666  -28.9550  -43.6435 C.ar      10 UNK        -0.0894 
     13 C13        20.4532  -28.8486  -45.0349 C.ar      10 UNK        -0.0745 
     14 C14        19.2325  -29.1580  -45.6405 C.ar      10 UNK        -0.0972 
     15 C15        21.6406  -28.4654  -45.9158 C.3       10 UNK         0.0209 
     16 S16        22.8315  -27.3283  -45.1325 S.3       10 UNK        -0.2568 
     17 C17        21.9954  -25.7050  -45.2789 C.3       10 UNK        -0.0983 
     18 CA         21.3773  -25.1297  -43.9738 C.3       3 UNK         0.0876 
     19 N          20.0748  -25.7366  -43.6742 N.am      3 UNK        -0.4424 
     20 C          19.1664  -25.2139  -42.8381 C.2       2 UNK         0.4918 
     21 O          19.3402  -24.1707  -42.2060 O.2       2 UNK        -0.4875 
     22 CA         17.8456  -25.9934  -42.7044 C.3       2 UNK         0.0481 
     23 CB         16.8579  -25.3441  -41.7123 C.3       2 UNK        -0.1831 
     24 N          17.1994  -26.2309  -44.0003 N.am      2 UNK        -0.4498 
     25 C          16.7534  -25.3118  -44.8703 C.2       1 UNK         0.5027 
     26 O          16.8801  -24.0954  -44.7127 O.2       1 UNK        -0.4969 
     27 C          22.3679  -25.1641  -42.7865 C.2       3 UNK         0.5005 
     28 O          23.3397  -24.4077  -42.7949 O.2       3 UNK        -0.5279 
     29 N          22.1400  -26.0740  -41.8245 N.am      4 UNK        -0.4463 
     30 CA         22.9381  -26.3897  -40.6278 C.3       4 UNK         0.0283 
     31 CB         23.0815  -25.1644  -39.7053 C.3       4 UNK        -0.1875 
     32 C          24.3112  -27.0323  -40.9079 C.2       4 UNK         0.4949 
     33 O          24.7740  -27.8270  -40.0901 O.2       4 UNK        -0.5039 
     34 N          24.9248  -26.7260  -42.0585 N.am      5 UNK        -0.4663 
     35 CA         26.2167  -27.2482  -42.5210 C.3       5 UNK         0.0242 
     36 CB         26.5997  -26.5414  -43.8310 C.3       5 UNK        -0.1982 
     37 C          26.2567  -28.7771  -42.7030 C.2       5 UNK         0.5017 
     38 O          27.3354  -29.3646  -42.6201 O.2       5 UNK        -0.5012 
     39 N          25.0857  -29.3938  -42.9147 N.am      6 UNK        -0.4439 
     40 CA         24.8936  -30.8451  -42.9751 C.3       6 UNK         0.0297 
     41 CB         23.5904  -31.1503  -43.7287 C.3       6 UNK        -0.2006 
     42 C          24.9167  -31.5420  -41.5971 C.2       6 UNK         0.4892 
     43 O          24.8265  -32.7705  -41.5642 O.2       6 UNK        -0.5089 
     44 N          25.0403  -30.7734  -40.5012 N.am      7 UNK        -0.4243 
     45 CA         25.2005  -31.1968  -39.1051 C.3       7 UNK         0.0196 
     46 CB         26.5610  -31.8972  -38.8942 C.3       7 UNK        -0.2007 
     47 C          24.0119  -32.0217  -38.5853 C.2       7 UNK         0.5020 
     48 O          23.0919  -31.4534  -37.9977 O.2       7 UNK        -0.5147 
     49 N          24.0526  -33.3419  -38.8060 N.am      8 UNK        -0.4734 
     50 CA         22.9652  -34.2737  -38.4989 C.3       8 UNK         0.0238 
     51 CB         23.5110  -35.7108  -38.5175 C.3       8 UNK        -0.1912 
     52 C          21.7716  -34.1364  -39.4611 C.2       8 UNK         0.5038 
     53 O          20.6556  -34.4866  -39.0753 O.2       8 UNK        -0.5046 
     54 N          22.0257  -33.6329  -40.6789 N.am      9 UNK        -0.4200 
     55 CA         21.0282  -33.3489  -41.7269 C.3       9 UNK         0.0839 
     56 C          20.3370  -34.6119  -42.3262 C.2       9 UNK         0.5513 
     57 N          20.9072  -35.8029  -42.1859 N.am      9 UNK        -0.7519 
     58 O          19.2862  -34.5139  -42.9548 O.2       9 UNK        -0.4960 
     59 C59        20.0149  -32.2411  -41.3133 C.3       10 UNK        -0.0876 
     60 S60        20.8371  -30.6814  -40.8320 S.3       10 UNK        -0.2414 
     61 C61        19.6108  -29.4401  -41.3500 C.3       10 UNK         0.0169 
     62 H62        12.2659  -24.5775  -46.6784 H         1 UNK         0.0903 
     63 H63        11.5570  -25.7617  -45.5796 H         1 UNK         0.0903 
     64 H64        12.0065  -24.1619  -44.9832 H         1 UNK         0.0903 
     65 H65        14.3794  -24.9711  -47.1061 H         1 UNK         0.3096 
     66 H66        16.5205  -25.2417  -46.9401 H         1 UNK         0.1121 
     67 H67        17.3497  -27.4709  -46.6566 H         1 UNK         0.0849 
     68 H68        15.8580  -27.4859  -47.5252 H         1 UNK         0.0849 
     69 H69        16.4079  -30.8138  -45.0841 H         1 UNK         0.0865 
     70 H70        16.9720  -30.1645  -46.5991 H         1 UNK         0.0865 
     71 H71        17.4107  -29.9556  -42.8906 H         1 UNK         0.1346 
     72 H72        21.5083  -28.7463  -43.1573 H         1 UNK         0.1412 
     73 H73        19.1430  -29.1053  -46.7173 H         1 UNK         0.1426 
     74 H74        21.2977  -28.0246  -46.8532 H         1 UNK         0.0716 
     75 H75        22.1680  -29.3801  -46.1873 H         1 UNK         0.0716 
     76 H76        21.2399  -25.7497  -46.0648 H         1 UNK         0.0695 
     77 H77        22.7458  -25.0046  -45.6497 H         1 UNK         0.0695 
     78 H78        21.1833  -24.0708  -44.1607 H         1 UNK         0.0983 
     79 H79        19.8589  -26.5988  -44.1559 H         1 UNK         0.3095 
     80 H80        18.1022  -26.9723  -42.3022 H         1 UNK         0.0454 
     81 H81        17.2981  -25.2664  -40.7176 H         1 UNK         0.0851 
     82 H82        15.9464  -25.9345  -41.6191 H         1 UNK         0.0851 
     83 H83        16.5725  -24.3378  -42.0204 H         1 UNK         0.0851 
     84 H84        17.0126  -27.2005  -44.2293 H         1 UNK         0.2976 
     85 H85        21.3187  -26.6471  -41.9476 H         1 UNK         0.3116 
     86 H86        22.3593  -27.1390  -40.0848 H         1 UNK         0.0646 
     87 H87        23.6829  -24.3772  -40.1605 H         1 UNK         0.0847 
     88 H88        23.5678  -25.4394  -38.7684 H         1 UNK         0.0847 
     89 H89        22.1091  -24.7411  -39.4535 H         1 UNK         0.0847 
     90 H90        24.4869  -26.0119  -42.6322 H         1 UNK         0.3040 
     91 H91        26.9612  -26.9970  -41.7625 H         1 UNK         0.1015 
     92 H92        25.8756  -26.7394  -44.6224 H         1 UNK         0.0786 
     93 H93        27.5739  -26.8789  -44.1878 H         1 UNK         0.0786 
     94 H94        26.6618  -25.4613  -43.6962 H         1 UNK         0.0786 
     95 H95        24.2610  -28.8161  -42.9898 H         1 UNK         0.3172 
     96 H96        25.7160  -31.2692  -43.5548 H         1 UNK         0.0595 
     97 H97        23.4788  -32.2225  -43.8933 H         1 UNK         0.0839 
     98 H98        23.5778  -30.6751  -44.7090 H         1 UNK         0.0839 
     99 H99        22.7156  -30.8118  -43.1759 H         1 UNK         0.0839 
    100 H100       25.0354  -29.7664  -40.6282 H         1 UNK         0.2998 
    101 H101       25.2163  -30.2789  -38.5149 H         1 UNK         0.0822 
    102 H102       26.6796  -32.2175  -37.8582 H         1 UNK         0.0787 
    103 H103       26.6826  -32.7775  -39.5259 H         1 UNK         0.0787 
    104 H104       27.3852  -31.2194  -39.1172 H         1 UNK         0.0787 
    105 H105       24.8273  -33.7016  -39.3472 H         1 UNK         0.3055 
    106 H106       22.5985  -34.0563  -37.4930 H         1 UNK         0.1106 
    107 H107       22.7269  -36.4289  -38.2728 H         1 UNK         0.0828 
    108 H108       23.9070  -35.9814  -39.4970 H         1 UNK         0.0828 
    109 H109       24.3074  -35.8420  -37.7848 H         1 UNK         0.0828 
    110 H110       22.9835  -33.3876  -40.9058 H         1 UNK         0.2931 
    111 H111       21.6043  -32.9488  -42.5598 H         1 UNK         0.0412 
    112 H112       21.7754  -35.8973  -41.6840 H         1 UNK         0.3472 
    113 H113       20.4613  -36.6147  -42.5839 H         1 UNK         0.3472 
    114 H114       19.3871  -32.5766  -40.4868 H         1 UNK         0.0970 
    115 H115       19.3349  -32.0330  -42.1405 H         1 UNK         0.0970 
    116 H116       18.6520  -29.6717  -40.8834 H         1 UNK         0.0612 
    117 H117       19.9139  -28.4672  -40.9616 H         1 UNK         0.0612 
@<TRIPOS>BOND
     1    1    2 1    
     2    1   62 1    
     3    1   63 1    
     4    1   64 1    
     5    2    3 2    
     6    2    4 am   BACKBONE|DICT|INTERRES
     7    4    5 1    
     8    4   65 1    
     9    5    6 1    
    10    5   25 1    
    11    5   66 1    
    12    6    7 1    
    13    6   67 1    
    14    6   68 1    
    15    7    8 1    
    16    8    9 1    
    17    8   69 1    
    18    8   70 1    
    19    9   10 ar   
    20    9   14 ar   
    21   10   11 ar   
    22   10   71 1    
    23   11   12 ar   
    24   11   61 1    
    25   12   13 ar   
    26   12   72 1    
    27   13   14 ar   
    28   13   15 1    
    29   14   73 1    
    30   15   16 1    
    31   15   74 1    
    32   15   75 1    
    33   16   17 1    
    34   17   18 1    
    35   17   76 1    
    36   17   77 1    
    37   18   19 1    
    38   18   27 1    
    39   18   78 1    
    40   19   20 am   BACKBONE|DICT|INTERRES
    41   19   79 1    
    42   20   21 2    
    43   20   22 1    
    44   22   23 1    
    45   22   24 1    
    46   22   80 1    
    47   23   81 1    
    48   23   82 1    
    49   23   83 1    
    50   24   25 am   BACKBONE|DICT|INTERRES
    51   24   84 1    
    52   25   26 2    
    53   27   28 2    
    54   27   29 am   BACKBONE|DICT|INTERRES
    55   29   30 1    
    56   29   85 1    
    57   30   31 1    
    58   30   32 1    
    59   30   86 1    
    60   31   87 1    
    61   31   88 1    
    62   31   89 1    
    63   32   33 2    
    64   32   34 am   BACKBONE|DICT|INTERRES
    65   34   35 1    
    66   34   90 1    
    67   35   36 1    
    68   35   37 1    
    69   35   91 1    
    70   36   92 1    
    71   36   93 1    
    72   36   94 1    
    73   37   38 2    
    74   37   39 am   BACKBONE|DICT|INTERRES
    75   39   40 1    
    76   39   95 1    
    77   40   41 1    
    78   40   42 1    
    79   40   96 1    
    80   41   97 1    
    81   41   98 1    
    82   41   99 1    
    83   42   43 2    
    84   42   44 am   BACKBONE|DICT|INTERRES
    85   44   45 1    
    86   44  100 1    
    87   45   46 1    
    88   45   47 1    
    89   45  101 1    
    90   46  102 1    
    91   46  103 1    
    92   46  104 1    
    93   47   48 2    
    94   47   49 am   BACKBONE|DICT|INTERRES
    95   49   50 1    
    96   49  105 1    
    97   50   51 1    
    98   50   52 1    
    99   50  106 1    
   100   51  107 1    
   101   51  108 1    
   102   51  109 1    
   103   52   53 2    
   104   52   54 am   BACKBONE|DICT|INTERRES
   105   54   55 1    
   106   54  110 1    
   107   55   56 1    
   108   55   59 1    
   109   55  111 1    
   110   56   57 am   BACKBONE|DICT|INTERRES
   111   56   58 2    
   112   57  112 1    
   113   57  113 1    
   114   59   60 1    
   115   59  114 1    
   116   59  115 1    
   117   60   61 1    
   118   61  116 1    
   119   61  117 1    
@<TRIPOS>SUBSTRUCTURE
     1 UNK         1 GROUP             0       ****    0 ROOT    
