@<TRIPOS>MOLECULE
3R8
117   119    1
SMALL
USER_CHARGES


@<TRIPOS>ATOM
      1 CA         15.7998  -25.0433  -45.8398 C.3       0 UNK        -0.2013 
      2 C          14.7872  -25.1770  -44.7054 C.2       0 UNK         0.4866 
      3 O          13.7076  -24.5941  -44.7912 O.2       0 UNK        -0.5176 
      4 N          15.0696  -25.9303  -43.6338 N.am      1 UNK        -0.4884 
      5 CA         16.3218  -26.6404  -43.3466 C.3       1 UNK         0.0853 
      6 C6         16.0499  -28.0592  -42.7687 C.3       10 UNK        -0.0849 
      7 S7         15.3337  -29.1710  -44.0291 S.3       10 UNK        -0.2776 
      8 C8         16.3054  -30.7065  -43.7997 C.3       10 UNK         0.0316 
      9 C9         17.6664  -30.7460  -44.5014 C.ar      10 UNK        -0.0863 
     10 C10        18.1865  -31.9840  -44.8952 C.ar      10 UNK        -0.1009 
     11 C11        19.4469  -32.0762  -45.4945 C.ar      10 UNK        -0.0712 
     12 C12        20.1962  -30.9152  -45.7062 C.ar      10 UNK        -0.0894 
     13 C13        19.6943  -29.6722  -45.3154 C.ar      10 UNK        -0.0745 
     14 C14        18.4334  -29.5963  -44.7220 C.ar      10 UNK        -0.0972 
     15 C15        20.5149  -28.4072  -45.5019 C.3       10 UNK         0.0209 
     16 S16        21.6140  -28.1624  -44.0763 S.3       10 UNK        -0.2568 
     17 C17        21.9092  -26.3587  -44.1006 C.3       10 UNK        -0.0983 
     18 CA         21.8072  -25.6825  -42.7064 C.3       3 UNK         0.0876 
     19 N          20.5163  -25.9224  -42.0585 N.am      3 UNK        -0.4424 
     20 C          20.0287  -25.1901  -41.0470 C.2       2 UNK         0.4918 
     21 O          20.5916  -24.1862  -40.6061 O.2       2 UNK        -0.4875 
     22 CA         18.6971  -25.6591  -40.4202 C.3       2 UNK         0.0481 
     23 CB         17.9788  -24.5389  -39.6372 C.3       2 UNK        -0.1831 
     24 N          17.7808  -26.3013  -41.3749 N.am      2 UNK        -0.4498 
     25 C          17.2231  -25.7458  -42.4636 C.2       1 UNK         0.5027 
     26 O          17.4162  -24.5765  -42.8015 O.2       1 UNK        -0.4969 
     27 C          22.9584  -26.1155  -41.7764 C.2       3 UNK         0.5005 
     28 O          22.9247  -27.2271  -41.2427 O.2       3 UNK        -0.5279 
     29 N          23.9718  -25.2539  -41.6229 N.am      4 UNK        -0.4463 
     30 CA         25.1714  -25.5413  -40.8299 C.3       4 UNK         0.0283 
     31 CB         25.8988  -24.2251  -40.5119 C.3       4 UNK        -0.1875 
     32 C          26.1285  -26.5275  -41.5232 C.2       4 UNK         0.4949 
     33 O          26.8851  -27.2131  -40.8367 O.2       4 UNK        -0.5039 
     34 N          26.0837  -26.5769  -42.8629 N.am      5 UNK        -0.4663 
     35 CA         26.9602  -27.3963  -43.7042 C.3       5 UNK         0.0242 
     36 CB         26.7853  -26.9811  -45.1742 C.3       5 UNK        -0.1982 
     37 C          26.7409  -28.9094  -43.5439 C.2       5 UNK         0.5017 
     38 O          27.7200  -29.6597  -43.5631 O.2       5 UNK        -0.5012 
     39 N          25.4734  -29.3225  -43.3942 N.am      6 UNK        -0.4439 
     40 CA         25.0705  -30.7251  -43.2436 C.3       6 UNK         0.0297 
     41 CB         24.1236  -31.1048  -44.3972 C.3       6 UNK        -0.2006 
     42 C          24.4110  -31.0123  -41.8849 C.2       6 UNK         0.4892 
     43 O          23.9930  -32.1495  -41.6682 O.2       6 UNK        -0.5089 
     44 N          24.2899  -29.9980  -41.0114 N.am      7 UNK        -0.4243 
     45 CA         23.6015  -30.0304  -39.7105 C.3       7 UNK         0.0196 
     46 CB         24.3987  -30.8772  -38.6962 C.3       7 UNK        -0.2007 
     47 C          22.1292  -30.4743  -39.8384 C.2       7 UNK         0.5020 
     48 O          21.6540  -31.2888  -39.0441 O.2       7 UNK        -0.5147 
     49 N          21.4607  -29.9818  -40.8939 N.am      8 UNK        -0.4734 
     50 CA         20.1143  -30.3577  -41.3536 C.3       8 UNK         0.0238 
     51 CB         19.0510  -29.8369  -40.3647 C.3       8 UNK        -0.1912 
     52 C          19.9399  -31.8639  -41.6556 C.2       8 UNK         0.5038 
     53 O          18.8119  -32.3583  -41.6142 O.2       8 UNK        -0.5046 
     54 N          21.0504  -32.5694  -41.9192 N.am      9 UNK        -0.4200 
     55 CA         21.1390  -34.0313  -42.0577 C.3       9 UNK         0.0839 
     56 C          20.7337  -34.8174  -40.7716 C.2       9 UNK         0.5513 
     57 N          20.7907  -34.2176  -39.5867 N.am      9 UNK        -0.7519 
     58 O          20.3947  -35.9966  -40.8366 O.2       9 UNK        -0.4960 
     59 C59        20.4711  -34.5621  -43.3591 C.3       10 UNK        -0.0876 
     60 S60        21.3544  -33.9912  -44.8526 S.3       10 UNK        -0.2414 
     61 C61        19.9976  -33.4268  -45.9256 C.3       10 UNK         0.0169 
     62 H62        15.9735  -26.0074  -46.3173 H         1 UNK         0.0903 
     63 H63        15.4307  -24.3579  -46.6026 H         1 UNK         0.0903 
     64 H64        16.7484  -24.6502  -45.4758 H         1 UNK         0.0903 
     65 H65        14.3776  -25.9804  -42.8997 H         1 UNK         0.3096 
     66 H66        16.8861  -26.7719  -44.2691 H         1 UNK         0.1121 
     67 H67        15.3694  -28.0106  -41.9164 H         1 UNK         0.0849 
     68 H68        16.9645  -28.5255  -42.4025 H         1 UNK         0.0849 
     69 H69        16.4493  -30.8955  -42.7349 H         1 UNK         0.0865 
     70 H70        15.6921  -31.5302  -44.1685 H         1 UNK         0.0865 
     71 H71        17.6134  -32.8844  -44.7205 H         1 UNK         0.1346 
     72 H72        21.1756  -30.9829  -46.1598 H         1 UNK         0.1412 
     73 H73        18.0704  -28.6304  -44.4217 H         1 UNK         0.1426 
     74 H74        19.8497  -27.5505  -45.6194 H         1 UNK         0.0716 
     75 H75        21.1102  -28.4668  -46.4142 H         1 UNK         0.0716 
     76 H76        22.8893  -26.1774  -44.5457 H         1 UNK         0.0695 
     77 H77        21.1940  -25.8852  -44.7742 H         1 UNK         0.0695 
     78 H78        21.8930  -24.6052  -42.8667 H         1 UNK         0.0983 
     79 H79        20.0311  -26.7589  -42.3416 H         1 UNK         0.3095 
     80 H80        18.9685  -26.4291  -39.6974 H         1 UNK         0.0454 
     81 H81        18.6045  -24.1642  -38.8262 H         1 UNK         0.0851 
     82 H82        17.0531  -24.8983  -39.1880 H         1 UNK         0.0851 
     83 H83        17.7344  -23.6893  -40.2753 H         1 UNK         0.0851 
     84 H84        17.5460  -27.2598  -41.1626 H         1 UNK         0.2976 
     85 H85        23.9284  -24.3508  -42.0745 H         1 UNK         0.3116 
     86 H86        24.8611  -25.9933  -39.8849 H         1 UNK         0.0646 
     87 H87        26.2319  -23.7157  -41.4171 H         1 UNK         0.0847 
     88 H88        26.7823  -24.4070  -39.8980 H         1 UNK         0.0847 
     89 H89        25.2574  -23.5405  -39.9564 H         1 UNK         0.0847 
     90 H90        25.4373  -25.9652  -43.3389 H         1 UNK         0.3040 
     91 H91        27.9916  -27.1864  -43.4115 H         1 UNK         0.1015 
     92 H92        25.7631  -27.1369  -45.5215 H         1 UNK         0.0786 
     93 H93        27.4419  -27.5619  -45.8240 H         1 UNK         0.0786 
     94 H94        27.0345  -25.9302  -45.3229 H         1 UNK         0.0786 
     95 H95        24.7340  -28.6317  -43.4076 H         1 UNK         0.3172 
     96 H96        25.9414  -31.3807  -43.3029 H         1 UNK         0.0595 
     97 H97        23.1750  -30.5728  -44.3387 H         1 UNK         0.0839 
     98 H98        23.8934  -32.1708  -44.3778 H         1 UNK         0.0839 
     99 H99        24.5709  -30.8910  -45.3679 H         1 UNK         0.0839 
    100 H100       24.6472  -29.0927  -41.2825 H         1 UNK         0.2998 
    101 H101       23.5812  -29.0043  -39.3407 H         1 UNK         0.0822 
    102 H102       23.9552  -30.8154  -37.7017 H         1 UNK         0.0787 
    103 H103       24.4211  -31.9308  -38.9770 H         1 UNK         0.0787 
    104 H104       25.4285  -30.5299  -38.6134 H         1 UNK         0.0787 
    105 H105       21.9429  -29.2895  -41.4574 H         1 UNK         0.3055 
    106 H106       19.9600  -29.8509  -42.3056 H         1 UNK         0.1106 
    107 H107       19.1795  -28.7739  -40.1697 H         1 UNK         0.0828 
    108 H108       18.0434  -29.9815  -40.7550 H         1 UNK         0.0828 
    109 H109       19.1030  -30.3592  -39.4090 H         1 UNK         0.0828 
    110 H110       21.9469  -32.0988  -41.8844 H         1 UNK         0.2931 
    111 H111       22.2060  -34.2367  -42.1491 H         1 UNK         0.0412 
    112 H112       21.0788  -33.2484  -39.5078 H         1 UNK         0.3472 
    113 H113       20.5385  -34.7350  -38.7597 H         1 UNK         0.3472 
    114 H114       19.4204  -34.2732  -43.3991 H         1 UNK         0.0970 
    115 H115       20.4837  -35.6527  -43.3872 H         1 UNK         0.0970 
    116 H116       19.2122  -34.1839  -45.9483 H         1 UNK         0.0612 
    117 H117       20.3726  -33.3467  -46.9468 H         1 UNK         0.0612 
@<TRIPOS>BOND
     1    1    2 1    
     2    1   62 1    
     3    1   63 1    
     4    1   64 1    
     5    2    3 2    
     6    2    4 am   BACKBONE|DICT|INTERRES
     7    4    5 1    
     8    4   65 1    
     9    5    6 1    
    10    5   25 1    
    11    5   66 1    
    12    6    7 1    
    13    6   67 1    
    14    6   68 1    
    15    7    8 1    
    16    8    9 1    
    17    8   69 1    
    18    8   70 1    
    19    9   10 ar   
    20    9   14 ar   
    21   10   11 ar   
    22   10   71 1    
    23   11   12 ar   
    24   11   61 1    
    25   12   13 ar   
    26   12   72 1    
    27   13   14 ar   
    28   13   15 1    
    29   14   73 1    
    30   15   16 1    
    31   15   74 1    
    32   15   75 1    
    33   16   17 1    
    34   17   18 1    
    35   17   76 1    
    36   17   77 1    
    37   18   19 1    
    38   18   27 1    
    39   18   78 1    
    40   19   20 am   BACKBONE|DICT|INTERRES
    41   19   79 1    
    42   20   21 2    
    43   20   22 1    
    44   22   23 1    
    45   22   24 1    
    46   22   80 1    
    47   23   81 1    
    48   23   82 1    
    49   23   83 1    
    50   24   25 am   BACKBONE|DICT|INTERRES
    51   24   84 1    
    52   25   26 2    
    53   27   28 2    
    54   27   29 am   BACKBONE|DICT|INTERRES
    55   29   30 1    
    56   29   85 1    
    57   30   31 1    
    58   30   32 1    
    59   30   86 1    
    60   31   87 1    
    61   31   88 1    
    62   31   89 1    
    63   32   33 2    
    64   32   34 am   BACKBONE|DICT|INTERRES
    65   34   35 1    
    66   34   90 1    
    67   35   36 1    
    68   35   37 1    
    69   35   91 1    
    70   36   92 1    
    71   36   93 1    
    72   36   94 1    
    73   37   38 2    
    74   37   39 am   BACKBONE|DICT|INTERRES
    75   39   40 1    
    76   39   95 1    
    77   40   41 1    
    78   40   42 1    
    79   40   96 1    
    80   41   97 1    
    81   41   98 1    
    82   41   99 1    
    83   42   43 2    
    84   42   44 am   BACKBONE|DICT|INTERRES
    85   44   45 1    
    86   44  100 1    
    87   45   46 1    
    88   45   47 1    
    89   45  101 1    
    90   46  102 1    
    91   46  103 1    
    92   46  104 1    
    93   47   48 2    
    94   47   49 am   BACKBONE|DICT|INTERRES
    95   49   50 1    
    96   49  105 1    
    97   50   51 1    
    98   50   52 1    
    99   50  106 1    
   100   51  107 1    
   101   51  108 1    
   102   51  109 1    
   103   52   53 2    
   104   52   54 am   BACKBONE|DICT|INTERRES
   105   54   55 1    
   106   54  110 1    
   107   55   56 1    
   108   55   59 1    
   109   55  111 1    
   110   56   57 am   BACKBONE|DICT|INTERRES
   111   56   58 2    
   112   57  112 1    
   113   57  113 1    
   114   59   60 1    
   115   59  114 1    
   116   59  115 1    
   117   60   61 1    
   118   61  116 1    
   119   61  117 1    
@<TRIPOS>SUBSTRUCTURE
     1 UNK         1 GROUP             0       ****    0 ROOT    
