@<TRIPOS>MOLECULE
3R8
117   119    1
SMALL
USER_CHARGES


@<TRIPOS>ATOM
      1 CA         19.6096  -24.7001  -40.1651 C.3       0 UNK        -0.2013 
      2 C          18.4488  -24.7186  -41.1471 C.2       0 UNK         0.4866 
      3 O          17.3110  -24.4511  -40.7588 O.2       0 UNK        -0.5176 
      4 N          18.7280  -25.0381  -42.4124 N.am      1 UNK        -0.4884 
      5 CA         17.7441  -25.1785  -43.4870 C.3       1 UNK         0.0853 
      6 C6         16.9792  -26.5371  -43.4294 C.3       10 UNK        -0.0849 
      7 S7         18.0724  -27.9962  -43.2836 S.3       10 UNK        -0.2776 
      8 C8         17.5537  -29.0480  -44.6734 C.3       10 UNK         0.0316 
      9 C9         18.5109  -30.2196  -44.8224 C.ar      10 UNK        -0.0863 
     10 C10        18.1181  -31.5107  -44.4635 C.ar      10 UNK        -0.1009 
     11 C11        19.0122  -32.5786  -44.5786 C.ar      10 UNK        -0.0712 
     12 C12        20.3128  -32.3401  -45.0372 C.ar      10 UNK        -0.0894 
     13 C13        20.7284  -31.0511  -45.3904 C.ar      10 UNK        -0.0745 
     14 C14        19.8055  -30.0024  -45.3011 C.ar      10 UNK        -0.0972 
     15 C15        22.1832  -30.8520  -45.8306 C.3       10 UNK         0.0209 
     16 S16        22.6375  -29.2070  -46.4932 S.3       10 UNK        -0.2568 
     17 C17        22.7252  -28.1765  -44.9859 C.3       10 UNK        -0.0983 
     18 CA         22.3431  -26.7011  -45.2720 C.3       3 UNK         0.0876 
     19 N          20.9797  -26.5657  -45.7725 N.am      3 UNK        -0.4424 
     20 C          20.6087  -25.9185  -46.8828 C.2       2 UNK         0.4918 
     21 O          21.3934  -25.4821  -47.7252 O.2       2 UNK        -0.4875 
     22 CA         19.0943  -25.6978  -47.0745 C.3       2 UNK         0.0481 
     23 CB         18.5245  -26.7414  -48.0486 C.3       2 UNK        -0.1831 
     24 N          18.3405  -25.7444  -45.8147 N.am      2 UNK        -0.4498 
     25 C          18.4578  -24.8590  -44.8141 C.2       1 UNK         0.5027 
     26 O          19.1299  -23.8288  -44.9005 O.2       1 UNK        -0.4969 
     27 C          22.3938  -25.8404  -43.9982 C.2       3 UNK         0.5005 
     28 O          21.4500  -25.8920  -43.2008 O.2       3 UNK        -0.5279 
     29 N          23.4720  -25.0598  -43.8348 N.am      4 UNK        -0.4463 
     30 CA         23.6079  -23.9646  -42.8607 C.3       4 UNK         0.0283 
     31 CB         24.9984  -23.3256  -43.0090 C.3       4 UNK        -0.1875 
     32 C          23.3472  -24.3258  -41.3872 C.2       4 UNK         0.4949 
     33 O          22.8807  -23.4702  -40.6353 O.2       4 UNK        -0.5039 
     34 N          23.6335  -25.5763  -41.0103 N.am      5 UNK        -0.4663 
     35 CA         23.3574  -26.1371  -39.6848 C.3       5 UNK         0.0242 
     36 CB         24.6873  -26.2916  -38.9225 C.3       5 UNK        -0.1982 
     37 C          22.5879  -27.4674  -39.7838 C.2       5 UNK         0.5017 
     38 O          22.6274  -28.2509  -38.8361 O.2       5 UNK        -0.5012 
     39 N          21.9455  -27.7252  -40.9366 N.am      6 UNK        -0.4439 
     40 CA         21.2270  -28.9535  -41.3204 C.3       6 UNK         0.0297 
     41 CB         20.0226  -29.2065  -40.3915 C.3       6 UNK        -0.2006 
     42 C          22.1080  -30.2150  -41.4726 C.2       6 UNK         0.4892 
     43 O          21.5778  -31.2788  -41.7910 O.2       6 UNK        -0.5089 
     44 N          23.4285  -30.0872  -41.2674 N.am      7 UNK        -0.4243 
     45 CA         24.4398  -31.1492  -41.2971 C.3       7 UNK         0.0196 
     46 CB         24.6824  -31.6198  -42.7497 C.3       7 UNK        -0.2007 
     47 C          24.0906  -32.2837  -40.3117 C.2       7 UNK         0.5020 
     48 O          23.8674  -32.0107  -39.1312 O.2       7 UNK        -0.5147 
     49 N          24.0271  -33.5273  -40.8035 N.am      8 UNK        -0.4734 
     50 CA         23.6298  -34.7104  -40.0352 C.3       8 UNK         0.0238 
     51 CB         24.0229  -35.9709  -40.8238 C.3       8 UNK        -0.1912 
     52 C          22.1315  -34.7480  -39.6761 C.2       8 UNK         0.5038 
     53 O          21.7577  -35.5081  -38.7815 O.2       8 UNK        -0.5046 
     54 N          21.3055  -33.9537  -40.3702 N.am      9 UNK        -0.4200 
     55 CA         19.8525  -33.8629  -40.1590 C.3       9 UNK         0.0839 
     56 C          19.4456  -32.8967  -39.0090 C.2       9 UNK         0.5513 
     57 N          20.3702  -32.1938  -38.3640 N.am      9 UNK        -0.7519 
     58 O          18.2658  -32.7969  -38.6823 O.2       9 UNK        -0.4960 
     59 C59        19.0956  -33.5347  -41.4741 C.3       10 UNK        -0.0876 
     60 S60        19.5041  -34.6951  -42.8241 S.3       10 UNK        -0.2414 
     61 C61        18.5653  -33.9893  -44.2150 C.3       10 UNK         0.0169 
     62 H62        19.3875  -25.3324  -39.3060 H         1 UNK         0.0903 
     63 H63        20.5258  -25.0670  -40.6245 H         1 UNK         0.0903 
     64 H64        19.7899  -23.6859  -39.8100 H         1 UNK         0.0903 
     65 H65        19.6890  -25.2320  -42.6881 H         1 UNK         0.3096 
     66 H66        17.0047  -24.3823  -43.3735 H         1 UNK         0.1121 
     67 H67        16.3357  -26.5382  -42.5482 H         1 UNK         0.0849 
     68 H68        16.2950  -26.6463  -44.2725 H         1 UNK         0.0849 
     69 H69        16.5340  -29.3962  -44.5003 H         1 UNK         0.0865 
     70 H70        17.5337  -28.4785  -45.6016 H         1 UNK         0.0865 
     71 H71        17.1169  -31.6843  -44.0936 H         1 UNK         0.1346 
     72 H72        21.0090  -33.1650  -45.1041 H         1 UNK         0.1412 
     73 H73        20.0900  -29.0014  -45.5755 H         1 UNK         0.1426 
     74 H74        22.4142  -31.5900  -46.6000 H         1 UNK         0.0716 
     75 H75        22.8359  -31.0740  -44.9875 H         1 UNK         0.0716 
     76 H76        23.7414  -28.2402  -44.5929 H         1 UNK         0.0695 
     77 H77        22.0762  -28.6050  -44.2229 H         1 UNK         0.0695 
     78 H78        23.0509  -26.2943  -45.9977 H         1 UNK         0.0983 
     79 H79        20.2642  -26.7994  -45.0997 H         1 UNK         0.3095 
     80 H80        18.9558  -24.7075  -47.5131 H         1 UNK         0.0454 
     81 H81        19.0224  -26.6785  -49.0172 H         1 UNK         0.0851 
     82 H82        17.4601  -26.5854  -48.2245 H         1 UNK         0.0851 
     83 H83        18.6625  -27.7592  -47.6821 H         1 UNK         0.0851 
     84 H84        17.7575  -26.5534  -45.6650 H         1 UNK         0.2976 
     85 H85        24.2057  -25.1161  -44.5275 H         1 UNK         0.3116 
     86 H86        22.8632  -23.2136  -43.1325 H         1 UNK         0.0646 
     87 H87        25.1221  -22.4918  -42.3162 H         1 UNK         0.0847 
     88 H88        25.1519  -22.9309  -44.0135 H         1 UNK         0.0847 
     89 H89        25.7955  -24.0407  -42.8016 H         1 UNK         0.0847 
     90 H90        24.0374  -26.1991  -41.6956 H         1 UNK         0.3040 
     91 H91        22.7140  -25.4639  -39.1138 H         1 UNK         0.1015 
     92 H92        24.5214  -26.6496  -37.9055 H         1 UNK         0.0786 
     93 H93        25.2099  -25.3381  -38.8440 H         1 UNK         0.0786 
     94 H94        25.3547  -26.9997  -39.4149 H         1 UNK         0.0786 
     95 H95        21.9244  -26.9907  -41.6394 H         1 UNK         0.3172 
     96 H96        20.8222  -28.7571  -42.3129 H         1 UNK         0.0595 
     97 H97        20.3343  -29.4659  -39.3800 H         1 UNK         0.0839 
     98 H98        19.4120  -30.0303  -40.7633 H         1 UNK         0.0839 
     99 H99        19.3771  -28.3302  -40.3333 H         1 UNK         0.0839 
    100 H100       23.7526  -29.1888  -40.9435 H         1 UNK         0.2998 
    101 H101       25.3665  -30.7038  -40.9322 H         1 UNK         0.0822 
    102 H102       24.9103  -30.7760  -43.4013 H         1 UNK         0.0787 
    103 H103       23.8132  -32.1307  -43.1648 H         1 UNK         0.0787 
    104 H104       25.5311  -32.3026  -42.8078 H         1 UNK         0.0787 
    105 H105       24.2110  -33.6629  -41.7873 H         1 UNK         0.3055 
    106 H106       24.1841  -34.7073  -39.0937 H         1 UNK         0.1106 
    107 H107       23.5010  -36.0280  -41.7800 H         1 UNK         0.0828 
    108 H108       25.0946  -35.9990  -41.0216 H         1 UNK         0.0828 
    109 H109       23.7759  -36.8745  -40.2645 H         1 UNK         0.0828 
    110 H110       21.6853  -33.3086  -41.0531 H         1 UNK         0.2931 
    111 H111       19.5045  -34.8480  -39.8423 H         1 UNK         0.0412 
    112 H112       21.3417  -32.2610  -38.6292 H         1 UNK         0.3472 
    113 H113       20.0917  -31.5816  -37.6140 H         1 UNK         0.3472 
    114 H114       18.0166  -33.5690  -41.3127 H         1 UNK         0.0970 
    115 H115       19.3215  -32.5183  -41.7989 H         1 UNK         0.0970 
    116 H116       18.6916  -34.6347  -45.0852 H         1 UNK         0.0612 
    117 H117       17.5026  -34.0114  -43.9686 H         1 UNK         0.0612 
@<TRIPOS>BOND
     1    1    2 1    
     2    1   62 1    
     3    1   63 1    
     4    1   64 1    
     5    2    3 2    
     6    2    4 am   BACKBONE|DICT|INTERRES
     7    4    5 1    
     8    4   65 1    
     9    5    6 1    
    10    5   25 1    
    11    5   66 1    
    12    6    7 1    
    13    6   67 1    
    14    6   68 1    
    15    7    8 1    
    16    8    9 1    
    17    8   69 1    
    18    8   70 1    
    19    9   10 ar   
    20    9   14 ar   
    21   10   11 ar   
    22   10   71 1    
    23   11   12 ar   
    24   11   61 1    
    25   12   13 ar   
    26   12   72 1    
    27   13   14 ar   
    28   13   15 1    
    29   14   73 1    
    30   15   16 1    
    31   15   74 1    
    32   15   75 1    
    33   16   17 1    
    34   17   18 1    
    35   17   76 1    
    36   17   77 1    
    37   18   19 1    
    38   18   27 1    
    39   18   78 1    
    40   19   20 am   BACKBONE|DICT|INTERRES
    41   19   79 1    
    42   20   21 2    
    43   20   22 1    
    44   22   23 1    
    45   22   24 1    
    46   22   80 1    
    47   23   81 1    
    48   23   82 1    
    49   23   83 1    
    50   24   25 am   BACKBONE|DICT|INTERRES
    51   24   84 1    
    52   25   26 2    
    53   27   28 2    
    54   27   29 am   BACKBONE|DICT|INTERRES
    55   29   30 1    
    56   29   85 1    
    57   30   31 1    
    58   30   32 1    
    59   30   86 1    
    60   31   87 1    
    61   31   88 1    
    62   31   89 1    
    63   32   33 2    
    64   32   34 am   BACKBONE|DICT|INTERRES
    65   34   35 1    
    66   34   90 1    
    67   35   36 1    
    68   35   37 1    
    69   35   91 1    
    70   36   92 1    
    71   36   93 1    
    72   36   94 1    
    73   37   38 2    
    74   37   39 am   BACKBONE|DICT|INTERRES
    75   39   40 1    
    76   39   95 1    
    77   40   41 1    
    78   40   42 1    
    79   40   96 1    
    80   41   97 1    
    81   41   98 1    
    82   41   99 1    
    83   42   43 2    
    84   42   44 am   BACKBONE|DICT|INTERRES
    85   44   45 1    
    86   44  100 1    
    87   45   46 1    
    88   45   47 1    
    89   45  101 1    
    90   46  102 1    
    91   46  103 1    
    92   46  104 1    
    93   47   48 2    
    94   47   49 am   BACKBONE|DICT|INTERRES
    95   49   50 1    
    96   49  105 1    
    97   50   51 1    
    98   50   52 1    
    99   50  106 1    
   100   51  107 1    
   101   51  108 1    
   102   51  109 1    
   103   52   53 2    
   104   52   54 am   BACKBONE|DICT|INTERRES
   105   54   55 1    
   106   54  110 1    
   107   55   56 1    
   108   55   59 1    
   109   55  111 1    
   110   56   57 am   BACKBONE|DICT|INTERRES
   111   56   58 2    
   112   57  112 1    
   113   57  113 1    
   114   59   60 1    
   115   59  114 1    
   116   59  115 1    
   117   60   61 1    
   118   61  116 1    
   119   61  117 1    
@<TRIPOS>SUBSTRUCTURE
     1 UNK         1 GROUP             0       ****    0 ROOT    
