@<TRIPOS>MOLECULE
3R8
117   119    1
SMALL
USER_CHARGES


@<TRIPOS>ATOM
      1 CA         15.9412  -23.1254  -43.6613 C.3       0 UNK        -0.2013 
      2 C          16.6617  -24.4646  -43.6323 C.2       0 UNK         0.4866 
      3 O          17.3013  -24.8381  -44.6164 O.2       0 UNK        -0.5176 
      4 N          16.5681  -25.1915  -42.5113 N.am      1 UNK        -0.4884 
      5 CA         17.2040  -26.4951  -42.2929 C.3       1 UNK         0.0853 
      6 C6         16.5048  -27.2981  -41.1637 C.3       10 UNK        -0.0849 
      7 S7         14.9943  -28.1059  -41.7851 S.3       10 UNK        -0.2776 
      8 C8         15.6064  -29.7979  -42.0999 C.3       10 UNK         0.0316 
      9 C9         16.8002  -29.8197  -43.0490 C.ar      10 UNK        -0.0863 
     10 C10        18.0783  -30.1334  -42.5724 C.ar      10 UNK        -0.1009 
     11 C11        19.1738  -30.1552  -43.4405 C.ar      10 UNK        -0.0712 
     12 C12        18.9837  -29.8667  -44.7932 C.ar      10 UNK        -0.0894 
     13 C13        17.7173  -29.5296  -45.2805 C.ar      10 UNK        -0.0745 
     14 C14        16.6277  -29.5178  -44.4036 C.ar      10 UNK        -0.0972 
     15 C15        17.5151  -29.1999  -46.7537 C.3       10 UNK         0.0209 
     16 S16        18.1908  -27.5641  -47.1965 S.3       10 UNK        -0.2568 
     17 C17        19.9194  -27.9767  -47.6191 C.3       10 UNK        -0.0983 
     18 CA         20.9835  -27.1154  -46.8887 C.3       3 UNK         0.0876 
     19 N          20.7198  -26.9526  -45.4470 N.am      3 UNK        -0.4424 
     20 C          21.4221  -26.1578  -44.6211 C.2       2 UNK         0.4918 
     21 O          22.4413  -25.5593  -44.9673 O.2       2 UNK        -0.4875 
     22 CA         20.9147  -26.0034  -43.1773 C.3       2 UNK         0.0481 
     23 CB         21.4124  -24.7037  -42.5092 C.3       2 UNK        -0.1831 
     24 N          19.4562  -26.0783  -43.1357 N.am      2 UNK        -0.4498 
     25 C          18.7181  -26.3450  -42.0539 C.2       1 UNK         0.5027 
     26 O          19.1792  -26.4607  -40.9182 O.2       1 UNK        -0.4969 
     27 C          22.3937  -27.6656  -47.2002 C.2       3 UNK         0.5005 
     28 O          22.9691  -27.3177  -48.2324 O.2       3 UNK        -0.5279 
     29 N          22.9195  -28.4974  -46.2923 N.am      4 UNK        -0.4463 
     30 CA         24.2777  -29.0416  -46.3073 C.3       4 UNK         0.0283 
     31 CB         24.2042  -30.5617  -46.5478 C.3       4 UNK        -0.1875 
     32 C          24.9999  -28.6906  -44.9929 C.2       4 UNK         0.4949 
     33 O          25.8303  -29.4728  -44.5282 O.2       4 UNK        -0.5039 
     34 N          24.6467  -27.5346  -44.4054 N.am      5 UNK        -0.4663 
     35 CA         25.0240  -27.0636  -43.0668 C.3       5 UNK         0.0242 
     36 CB         26.5405  -26.7721  -42.9933 C.3       5 UNK        -0.1982 
     37 C          24.5165  -28.0156  -41.9622 C.2       5 UNK         0.5017 
     38 O          23.5167  -28.7075  -42.1714 O.2       5 UNK        -0.5012 
     39 N          25.1902  -28.0102  -40.8024 N.am      6 UNK        -0.4439 
     40 CA         25.0458  -28.8878  -39.6279 C.3       6 UNK         0.0297 
     41 CB         25.3895  -30.3445  -39.9962 C.3       6 UNK        -0.2006 
     42 C          23.7035  -28.8408  -38.8713 C.2       6 UNK         0.4892 
     43 O          23.7068  -29.0597  -37.6592 O.2       6 UNK        -0.5089 
     44 N          22.5898  -28.6145  -39.5794 N.am      7 UNK        -0.4243 
     45 CA         21.1827  -28.6783  -39.1553 C.3       7 UNK         0.0196 
     46 CB         20.8668  -27.6927  -38.0145 C.3       7 UNK        -0.2007 
     47 C          20.7171  -30.1068  -38.8282 C.2       7 UNK         0.5020 
     48 O          19.7116  -30.5579  -39.3742 O.2       7 UNK        -0.5147 
     49 N          21.4941  -30.8270  -38.0141 N.am      8 UNK        -0.4734 
     50 CA         21.4037  -32.2725  -37.8150 C.3       8 UNK         0.0238 
     51 CB         21.7855  -32.5990  -36.3592 C.3       8 UNK        -0.1912 
     52 C          22.3074  -32.9796  -38.8431 C.2       8 UNK         0.5038 
     53 O          23.2481  -33.6784  -38.4619 O.2       8 UNK        -0.5046 
     54 N          22.0347  -32.7406  -40.1327 N.am      9 UNK        -0.4200 
     55 CA         22.8061  -33.2618  -41.2721 C.3       9 UNK         0.0839 
     56 C          22.6038  -34.7759  -41.5779 C.2       9 UNK         0.5513 
     57 N          21.6446  -35.4592  -40.9645 N.am      9 UNK        -0.7519 
     58 O          23.3436  -35.3433  -42.3775 O.2       9 UNK        -0.4960 
     59 C59        22.6338  -32.3741  -42.5345 C.3       10 UNK        -0.0876 
     60 S60        20.9120  -32.2668  -43.1362 S.3       10 UNK        -0.2414 
     61 C61        20.5641  -30.4958  -42.9282 C.3       10 UNK         0.0169 
     62 H62        15.2151  -23.1087  -44.4737 H         1 UNK         0.0903 
     63 H63        15.4124  -22.9255  -42.7296 H         1 UNK         0.0903 
     64 H64        16.6556  -22.3192  -43.8262 H         1 UNK         0.0903 
     65 H65        16.0401  -24.8290  -41.7300 H         1 UNK         0.3096 
     66 H66        17.1116  -27.0660  -43.2185 H         1 UNK         0.1121 
     67 H67        17.1551  -28.0717  -40.7502 H         1 UNK         0.0849 
     68 H68        16.2510  -26.6515  -40.3221 H         1 UNK         0.0849 
     69 H69        15.8613  -30.2680  -41.1486 H         1 UNK         0.0865 
     70 H70        14.7977  -30.3942  -42.5247 H         1 UNK         0.0865 
     71 H71        18.2228  -30.3644  -41.5258 H         1 UNK         0.1346 
     72 H72        19.8292  -29.9147  -45.4621 H         1 UNK         0.1412 
     73 H73        15.6419  -29.2649  -44.7704 H         1 UNK         0.1426 
     74 H74        16.4509  -29.2014  -46.9945 H         1 UNK         0.0716 
     75 H75        17.9596  -29.9776  -47.3763 H         1 UNK         0.0716 
     76 H76        20.0248  -27.8449  -48.6977 H         1 UNK         0.0695 
     77 H77        20.0941  -29.0388  -47.4474 H         1 UNK         0.0695 
     78 H78        20.9415  -26.1116  -47.3177 H         1 UNK         0.0983 
     79 H79        19.8920  -27.4150  -45.0994 H         1 UNK         0.3095 
     80 H80        21.3162  -26.8524  -42.6203 H         1 UNK         0.0454 
     81 H81        21.0347  -23.8207  -43.0256 H         1 UNK         0.0851 
     82 H82        22.5010  -24.6451  -42.5147 H         1 UNK         0.0851 
     83 H83        21.1004  -24.6402  -41.4670 H         1 UNK         0.0851 
     84 H84        18.9613  -25.8609  -43.9969 H         1 UNK         0.2976 
     85 H85        22.3756  -28.7026  -45.4661 H         1 UNK         0.3116 
     86 H86        24.8614  -28.5923  -47.1132 H         1 UNK         0.0646 
     87 H87        23.6838  -31.0728  -45.7366 H         1 UNK         0.0847 
     88 H88        23.6834  -30.7908  -47.4774 H         1 UNK         0.0847 
     89 H89        25.2015  -30.9970  -46.6226 H         1 UNK         0.0847 
     90 H90        23.9578  -26.9576  -44.8762 H         1 UNK         0.3040 
     91 H91        24.4961  -26.1204  -42.9203 H         1 UNK         0.1015 
     92 H92        26.7974  -26.2057  -42.0976 H         1 UNK         0.0786 
     93 H93        26.8664  -26.1745  -43.8449 H         1 UNK         0.0786 
     94 H94        27.1328  -27.6881  -42.9876 H         1 UNK         0.0786 
     95 H95        25.9579  -27.3561  -40.7361 H         1 UNK         0.3172 
     96 H96        25.8015  -28.5458  -38.9188 H         1 UNK         0.0595 
     97 H97        24.6902  -30.7533  -40.7246 H         1 UNK         0.0839 
     98 H98        25.3553  -30.9916  -39.1182 H         1 UNK         0.0839 
     99 H99        26.3922  -30.4219  -40.4163 H         1 UNK         0.0839 
    100 H100       22.7321  -28.5332  -40.5851 H         1 UNK         0.2998 
    101 H101       20.6098  -28.3654  -40.0277 H         1 UNK         0.0822 
    102 H102       19.7974  -27.6839  -37.8000 H         1 UNK         0.0787 
    103 H103       21.1492  -26.6754  -38.2855 H         1 UNK         0.0787 
    104 H104       21.3810  -27.9512  -37.0888 H         1 UNK         0.0787 
    105 H105       22.3254  -30.3657  -37.6515 H         1 UNK         0.3055 
    106 H106       20.3794  -32.6142  -37.9817 H         1 UNK         0.1106 
    107 H107       21.1162  -32.1049  -35.6548 H         1 UNK         0.0828 
    108 H108       21.7206  -33.6712  -36.1689 H         1 UNK         0.0828 
    109 H109       22.8046  -32.2862  -36.1276 H         1 UNK         0.0828 
    110 H110       21.2311  -32.1725  -40.3631 H         1 UNK         0.2931 
    111 H111       23.8577  -33.1776  -40.9909 H         1 UNK         0.0412 
    112 H112       21.0296  -35.0026  -40.3109 H         1 UNK         0.3472 
    113 H113       21.5289  -36.4398  -41.1676 H         1 UNK         0.3472 
    114 H114       23.0050  -31.3700  -42.3264 H         1 UNK         0.0970 
    115 H115       23.2593  -32.7436  -43.3493 H         1 UNK         0.0970 
    116 H116       21.3120  -29.9132  -43.4682 H         1 UNK         0.0612 
    117 H117       20.6620  -30.2224  -41.8782 H         1 UNK         0.0612 
@<TRIPOS>BOND
     1    1    2 1    
     2    1   62 1    
     3    1   63 1    
     4    1   64 1    
     5    2    3 2    
     6    2    4 am   BACKBONE|DICT|INTERRES
     7    4    5 1    
     8    4   65 1    
     9    5    6 1    
    10    5   25 1    
    11    5   66 1    
    12    6    7 1    
    13    6   67 1    
    14    6   68 1    
    15    7    8 1    
    16    8    9 1    
    17    8   69 1    
    18    8   70 1    
    19    9   10 ar   
    20    9   14 ar   
    21   10   11 ar   
    22   10   71 1    
    23   11   12 ar   
    24   11   61 1    
    25   12   13 ar   
    26   12   72 1    
    27   13   14 ar   
    28   13   15 1    
    29   14   73 1    
    30   15   16 1    
    31   15   74 1    
    32   15   75 1    
    33   16   17 1    
    34   17   18 1    
    35   17   76 1    
    36   17   77 1    
    37   18   19 1    
    38   18   27 1    
    39   18   78 1    
    40   19   20 am   BACKBONE|DICT|INTERRES
    41   19   79 1    
    42   20   21 2    
    43   20   22 1    
    44   22   23 1    
    45   22   24 1    
    46   22   80 1    
    47   23   81 1    
    48   23   82 1    
    49   23   83 1    
    50   24   25 am   BACKBONE|DICT|INTERRES
    51   24   84 1    
    52   25   26 2    
    53   27   28 2    
    54   27   29 am   BACKBONE|DICT|INTERRES
    55   29   30 1    
    56   29   85 1    
    57   30   31 1    
    58   30   32 1    
    59   30   86 1    
    60   31   87 1    
    61   31   88 1    
    62   31   89 1    
    63   32   33 2    
    64   32   34 am   BACKBONE|DICT|INTERRES
    65   34   35 1    
    66   34   90 1    
    67   35   36 1    
    68   35   37 1    
    69   35   91 1    
    70   36   92 1    
    71   36   93 1    
    72   36   94 1    
    73   37   38 2    
    74   37   39 am   BACKBONE|DICT|INTERRES
    75   39   40 1    
    76   39   95 1    
    77   40   41 1    
    78   40   42 1    
    79   40   96 1    
    80   41   97 1    
    81   41   98 1    
    82   41   99 1    
    83   42   43 2    
    84   42   44 am   BACKBONE|DICT|INTERRES
    85   44   45 1    
    86   44  100 1    
    87   45   46 1    
    88   45   47 1    
    89   45  101 1    
    90   46  102 1    
    91   46  103 1    
    92   46  104 1    
    93   47   48 2    
    94   47   49 am   BACKBONE|DICT|INTERRES
    95   49   50 1    
    96   49  105 1    
    97   50   51 1    
    98   50   52 1    
    99   50  106 1    
   100   51  107 1    
   101   51  108 1    
   102   51  109 1    
   103   52   53 2    
   104   52   54 am   BACKBONE|DICT|INTERRES
   105   54   55 1    
   106   54  110 1    
   107   55   56 1    
   108   55   59 1    
   109   55  111 1    
   110   56   57 am   BACKBONE|DICT|INTERRES
   111   56   58 2    
   112   57  112 1    
   113   57  113 1    
   114   59   60 1    
   115   59  114 1    
   116   59  115 1    
   117   60   61 1    
   118   61  116 1    
   119   61  117 1    
@<TRIPOS>SUBSTRUCTURE
     1 UNK         1 GROUP             0       ****    0 ROOT    
