@<TRIPOS>MOLECULE
3R8
117   119    1
SMALL
USER_CHARGES


@<TRIPOS>ATOM
      1 CA         16.3255  -23.5051  -47.4428 C.3       0 UNK        -0.2013 
      2 C          16.7667  -24.7486  -46.6864 C.2       0 UNK         0.4866 
      3 O          17.8707  -24.7770  -46.1428 O.2       0 UNK        -0.5176 
      4 N          15.9110  -25.7777  -46.6345 N.am      1 UNK        -0.4884 
      5 CA         16.1462  -27.0539  -45.9480 C.3       1 UNK         0.0853 
      6 C6         15.3037  -28.1789  -46.6022 C.3       10 UNK        -0.0849 
      7 S7         15.7828  -29.8695  -46.1097 S.3       10 UNK        -0.2776 
      8 C8         17.3327  -30.1314  -47.0331 C.3       10 UNK         0.0316 
      9 C9         18.5567  -29.9642  -46.1413 C.ar      10 UNK        -0.0863 
     10 C10        18.7726  -30.8571  -45.0874 C.ar      10 UNK        -0.1009 
     11 C11        19.9061  -30.7466  -44.2782 C.ar      10 UNK        -0.0712 
     12 C12        20.8410  -29.7411  -44.5382 C.ar      10 UNK        -0.0894 
     13 C13        20.6290  -28.8291  -45.5773 C.ar      10 UNK        -0.0745 
     14 C14        19.4876  -28.9474  -46.3785 C.ar      10 UNK        -0.0972 
     15 C15        21.6407  -27.7250  -45.8487 C.3       10 UNK         0.0209 
     16 S16        21.1356  -26.1415  -45.1048 S.3       10 UNK        -0.2568 
     17 C17        21.5776  -26.4078  -43.3562 C.3       10 UNK        -0.0983 
     18 CA         20.6845  -25.6134  -42.3745 C.3       3 UNK         0.0876 
     19 N          19.2715  -25.9651  -42.5256 N.am      3 UNK        -0.4424 
     20 C          18.2465  -25.2678  -42.0211 C.2       2 UNK         0.4918 
     21 O          18.3793  -24.2375  -41.3577 O.2       2 UNK        -0.4875 
     22 CA         16.8436  -25.7869  -42.3737 C.3       2 UNK         0.0481 
     23 CB         15.7191  -24.8019  -41.9923 C.3       2 UNK        -0.1831 
     24 N          16.7985  -26.0870  -43.8031 N.am      2 UNK        -0.4498 
     25 C          15.9407  -26.9040  -44.4219 C.2       1 UNK         0.5027 
     26 O          15.0158  -27.4826  -43.8484 O.2       1 UNK        -0.4969 
     27 C          21.1727  -25.8282  -40.9268 C.2       3 UNK         0.5005 
     28 O          20.6501  -26.6893  -40.2147 O.2       3 UNK        -0.5279 
     29 N          22.2031  -25.0671  -40.5364 N.am      4 UNK        -0.4463 
     30 CA         22.8822  -25.1879  -39.2418 C.3       4 UNK         0.0283 
     31 CB         23.4982  -23.8266  -38.8763 C.3       4 UNK        -0.1875 
     32 C          23.9624  -26.2877  -39.2211 C.2       4 UNK         0.4949 
     33 O          24.4799  -26.5957  -38.1469 O.2       4 UNK        -0.5039 
     34 N          24.2979  -26.8495  -40.3878 N.am      5 UNK        -0.4663 
     35 CA         25.3180  -27.8753  -40.5865 C.3       5 UNK         0.0242 
     36 CB         26.6983  -27.1989  -40.7188 C.3       5 UNK        -0.1982 
     37 C          24.9642  -28.7101  -41.8284 C.2       5 UNK         0.5017 
     38 O          23.9553  -28.4294  -42.4796 O.2       5 UNK        -0.5012 
     39 N          25.8311  -29.6856  -42.1365 N.am      6 UNK        -0.4439 
     40 CA         25.7819  -30.6601  -43.2351 C.3       6 UNK         0.0297 
     41 CB         25.5182  -30.0008  -44.6047 C.3       6 UNK        -0.2006 
     42 C          24.7945  -31.8068  -42.9668 C.2       6 UNK         0.4892 
     43 O          23.6785  -31.5763  -42.4999 O.2       6 UNK        -0.5089 
     44 N          25.2332  -33.0322  -43.2915 N.am      7 UNK        -0.4243 
     45 CA         24.5252  -34.3017  -43.0897 C.3       7 UNK         0.0196 
     46 CB         23.3468  -34.4279  -44.0841 C.3       7 UNK        -0.2007 
     47 C          24.1414  -34.5008  -41.6087 C.2       7 UNK         0.5020 
     48 O          25.0202  -34.4279  -40.7483 O.2       7 UNK        -0.5147 
     49 N          22.8542  -34.7393  -41.3328 N.am      8 UNK        -0.4734 
     50 CA         22.3042  -34.8637  -39.9803 C.3       8 UNK         0.0238 
     51 CB         21.0656  -35.7748  -40.0379 C.3       8 UNK        -0.1912 
     52 C          21.9430  -33.5089  -39.3397 C.2       8 UNK         0.5038 
     53 O          21.6296  -33.4853  -38.1481 O.2       8 UNK        -0.5046 
     54 N          21.9495  -32.4246  -40.1253 N.am      9 UNK        -0.4200 
     55 CA         21.5661  -31.0740  -39.6927 C.3       9 UNK         0.0839 
     56 C          22.7285  -30.3249  -38.9866 C.2       9 UNK         0.5513 
     57 N          22.4281  -29.2197  -38.3187 N.am      9 UNK        -0.7519 
     58 O          23.8918  -30.7198  -39.0354 O.2       9 UNK        -0.4960 
     59 C59        20.9689  -30.2510  -40.8651 C.3       10 UNK        -0.0876 
     60 S60        19.4781  -31.0436  -41.5645 S.3       10 UNK        -0.2414 
     61 C61        20.1125  -31.7202  -43.1293 C.3       10 UNK         0.0169 
     62 H62        15.3317  -23.6205  -47.8748 H         1 UNK         0.0903 
     63 H63        16.3070  -22.6460  -46.7726 H         1 UNK         0.0903 
     64 H64        17.0241  -23.2914  -48.2513 H         1 UNK         0.0903 
     65 H65        15.0036  -25.6805  -47.0689 H         1 UNK         0.3096 
     66 H66        17.1966  -27.3135  -46.0904 H         1 UNK         0.1121 
     67 H67        14.2439  -28.0428  -46.3783 H         1 UNK         0.0849 
     68 H68        15.3810  -28.1188  -47.6892 H         1 UNK         0.0849 
     69 H69        17.3306  -31.1456  -47.4354 H         1 UNK         0.0865 
     70 H70        17.3790  -29.4661  -47.8966 H         1 UNK         0.0865 
     71 H71        18.0511  -31.6397  -44.8954 H         1 UNK         0.1346 
     72 H72        21.7301  -29.6643  -43.9263 H         1 UNK         0.1412 
     73 H73        19.3319  -28.2490  -47.1898 H         1 UNK         0.1426 
     74 H74        21.7490  -27.5879  -46.9255 H         1 UNK         0.0716 
     75 H75        22.6282  -28.0040  -45.4768 H         1 UNK         0.0716 
     76 H76        22.6257  -26.1247  -43.2434 H         1 UNK         0.0695 
     77 H77        21.5228  -27.4715  -43.1244 H         1 UNK         0.0695 
     78 H78        20.7811  -24.5501  -42.6061 H         1 UNK         0.0983 
     79 H79        19.0805  -26.8076  -43.0472 H         1 UNK         0.3095 
     80 H80        16.6998  -26.7139  -41.8152 H         1 UNK         0.0454 
     81 H81        15.7422  -24.5751  -40.9257 H         1 UNK         0.0851 
     82 H82        15.8139  -23.8582  -42.5306 H         1 UNK         0.0851 
     83 H83        14.7339  -25.2139  -42.2098 H         1 UNK         0.0851 
     84 H84        17.4818  -25.6042  -44.3832 H         1 UNK         0.2976 
     85 H85        22.5803  -24.3836  -41.1784 H         1 UNK         0.3116 
     86 H86        22.1464  -25.4417  -38.4754 H         1 UNK         0.0646 
     87 H87        23.9764  -23.8644  -37.8965 H         1 UNK         0.0847 
     88 H88        22.7392  -23.0453  -38.8323 H         1 UNK         0.0847 
     89 H89        24.2579  -23.5192  -39.5961 H         1 UNK         0.0847 
     90 H90        23.7660  -26.6284  -41.2188 H         1 UNK         0.3040 
     91 H91        25.3227  -28.5478  -39.7262 H         1 UNK         0.1015 
     92 H92        26.9256  -26.5867  -39.8457 H         1 UNK         0.0786 
     93 H93        26.7455  -26.5548  -41.5979 H         1 UNK         0.0786 
     94 H94        27.5000  -27.9326  -40.8063 H         1 UNK         0.0786 
     95 H95        26.6027  -29.8227  -41.4988 H         1 UNK         0.3172 
     96 H96        26.7852  -31.0878  -43.2723 H         1 UNK         0.0595 
     97 H97        26.1884  -29.1594  -44.7798 H         1 UNK         0.0839 
     98 H98        24.4930  -29.6405  -44.6935 H         1 UNK         0.0839 
     99 H99        25.6739  -30.7152  -45.4138 H         1 UNK         0.0839 
    100 H100       26.1741  -33.1176  -43.6503 H         1 UNK         0.2998 
    101 H101       25.2378  -35.0943  -43.3229 H         1 UNK         0.0822 
    102 H102       23.6954  -34.3258  -45.1119 H         1 UNK         0.0787 
    103 H103       22.8667  -35.4046  -44.0111 H         1 UNK         0.0787 
    104 H104       22.5852  -33.6651  -43.9240 H         1 UNK         0.0787 
    105 H105       22.1974  -34.7823  -42.0988 H         1 UNK         0.3055 
    106 H106       23.0454  -35.3375  -39.3321 H         1 UNK         0.1106 
    107 H107       20.2769  -35.3463  -40.6578 H         1 UNK         0.0828 
    108 H108       21.3133  -36.7578  -40.4391 H         1 UNK         0.0828 
    109 H109       20.6476  -35.9308  -39.0424 H         1 UNK         0.0828 
    110 H110       22.3327  -32.4904  -41.0599 H         1 UNK         0.2931 
    111 H111       20.7774  -31.1805  -38.9448 H         1 UNK         0.0412 
    112 H112       23.1688  -28.7057  -37.8658 H         1 UNK         0.3472 
    113 H113       21.4833  -28.8692  -38.2867 H         1 UNK         0.3472 
    114 H114       21.7160  -30.0797  -41.6405 H         1 UNK         0.0970 
    115 H115       20.6705  -29.2610  -40.5209 H         1 UNK         0.0970 
    116 H116       21.1662  -31.9759  -43.0315 H         1 UNK         0.0612 
    117 H117       19.5940  -32.6574  -43.3370 H         1 UNK         0.0612 
@<TRIPOS>BOND
     1    1    2 1    
     2    1   62 1    
     3    1   63 1    
     4    1   64 1    
     5    2    3 2    
     6    2    4 am   BACKBONE|DICT|INTERRES
     7    4    5 1    
     8    4   65 1    
     9    5    6 1    
    10    5   25 1    
    11    5   66 1    
    12    6    7 1    
    13    6   67 1    
    14    6   68 1    
    15    7    8 1    
    16    8    9 1    
    17    8   69 1    
    18    8   70 1    
    19    9   10 ar   
    20    9   14 ar   
    21   10   11 ar   
    22   10   71 1    
    23   11   12 ar   
    24   11   61 1    
    25   12   13 ar   
    26   12   72 1    
    27   13   14 ar   
    28   13   15 1    
    29   14   73 1    
    30   15   16 1    
    31   15   74 1    
    32   15   75 1    
    33   16   17 1    
    34   17   18 1    
    35   17   76 1    
    36   17   77 1    
    37   18   19 1    
    38   18   27 1    
    39   18   78 1    
    40   19   20 am   BACKBONE|DICT|INTERRES
    41   19   79 1    
    42   20   21 2    
    43   20   22 1    
    44   22   23 1    
    45   22   24 1    
    46   22   80 1    
    47   23   81 1    
    48   23   82 1    
    49   23   83 1    
    50   24   25 am   BACKBONE|DICT|INTERRES
    51   24   84 1    
    52   25   26 2    
    53   27   28 2    
    54   27   29 am   BACKBONE|DICT|INTERRES
    55   29   30 1    
    56   29   85 1    
    57   30   31 1    
    58   30   32 1    
    59   30   86 1    
    60   31   87 1    
    61   31   88 1    
    62   31   89 1    
    63   32   33 2    
    64   32   34 am   BACKBONE|DICT|INTERRES
    65   34   35 1    
    66   34   90 1    
    67   35   36 1    
    68   35   37 1    
    69   35   91 1    
    70   36   92 1    
    71   36   93 1    
    72   36   94 1    
    73   37   38 2    
    74   37   39 am   BACKBONE|DICT|INTERRES
    75   39   40 1    
    76   39   95 1    
    77   40   41 1    
    78   40   42 1    
    79   40   96 1    
    80   41   97 1    
    81   41   98 1    
    82   41   99 1    
    83   42   43 2    
    84   42   44 am   BACKBONE|DICT|INTERRES
    85   44   45 1    
    86   44  100 1    
    87   45   46 1    
    88   45   47 1    
    89   45  101 1    
    90   46  102 1    
    91   46  103 1    
    92   46  104 1    
    93   47   48 2    
    94   47   49 am   BACKBONE|DICT|INTERRES
    95   49   50 1    
    96   49  105 1    
    97   50   51 1    
    98   50   52 1    
    99   50  106 1    
   100   51  107 1    
   101   51  108 1    
   102   51  109 1    
   103   52   53 2    
   104   52   54 am   BACKBONE|DICT|INTERRES
   105   54   55 1    
   106   54  110 1    
   107   55   56 1    
   108   55   59 1    
   109   55  111 1    
   110   56   57 am   BACKBONE|DICT|INTERRES
   111   56   58 2    
   112   57  112 1    
   113   57  113 1    
   114   59   60 1    
   115   59  114 1    
   116   59  115 1    
   117   60   61 1    
   118   61  116 1    
   119   61  117 1    
@<TRIPOS>SUBSTRUCTURE
     1 UNK         1 GROUP             0       ****    0 ROOT    
