@<TRIPOS>MOLECULE
3R8
117   119    1
SMALL
USER_CHARGES


@<TRIPOS>ATOM
      1 CA         16.1135  -23.0969  -47.9869 C.3       0 UNK        -0.2013 
      2 C          16.9801  -24.0497  -47.1780 C.2       0 UNK         0.4866 
      3 O          18.1507  -24.2446  -47.5063 O.2       0 UNK        -0.5176 
      4 N          16.4257  -24.6331  -46.1081 N.am      1 UNK        -0.4884 
      5 CA         17.0677  -25.6187  -45.2243 C.3       1 UNK         0.0853 
      6 C6         16.0126  -26.5011  -44.5054 C.3       10 UNK        -0.0849 
      7 S7         15.1077  -27.5494  -45.6965 S.3       10 UNK        -0.2776 
      8 C8         15.2476  -29.2158  -44.9559 C.3       10 UNK         0.0316 
      9 C9         16.6787  -29.6759  -44.6785 C.ar      10 UNK        -0.0863 
     10 C10        16.9625  -30.3564  -43.4906 C.ar      10 UNK        -0.1009 
     11 C11        18.2561  -30.8015  -43.2000 C.ar      10 UNK        -0.0712 
     12 C12        19.2818  -30.5420  -44.1204 C.ar      10 UNK        -0.0894 
     13 C13        19.0146  -29.8713  -45.3176 C.ar      10 UNK        -0.0745 
     14 C14        17.7098  -29.4539  -45.5964 C.ar      10 UNK        -0.0972 
     15 C15        20.1225  -29.6270  -46.3323 C.3       10 UNK         0.0209 
     16 S16        20.4822  -27.8518  -46.5293 S.3       10 UNK        -0.2568 
     17 C17        22.0927  -27.6411  -45.6823 C.3       10 UNK        -0.0983 
     18 CA         22.0277  -26.8315  -44.3594 C.3       3 UNK         0.0876 
     19 N          21.1934  -25.6404  -44.5065 N.am      3 UNK        -0.4424 
     20 C          21.1802  -24.5544  -43.7250 C.2       2 UNK         0.4918 
     21 O          21.9522  -24.3750  -42.7841 O.2       2 UNK        -0.4875 
     22 CA         20.0887  -23.5111  -44.0366 C.3       2 UNK         0.0481 
     23 CB         20.6706  -22.3511  -44.8587 C.3       2 UNK        -0.1831 
     24 N          18.9461  -24.0889  -44.7568 N.am      2 UNK        -0.4498 
     25 C          18.0796  -24.9750  -44.2456 C.2       1 UNK         0.5027 
     26 O          18.0987  -25.3113  -43.0615 O.2       1 UNK        -0.4969 
     27 C          21.6507  -27.7240  -43.1567 C.2       3 UNK         0.5005 
     28 O          22.4089  -28.6516  -42.8622 O.2       3 UNK        -0.5279 
     29 N          20.5385  -27.4383  -42.4572 N.am      4 UNK        -0.4463 
     30 CA         20.0232  -28.1781  -41.2950 C.3       4 UNK         0.0283 
     31 CB         18.5468  -27.8080  -41.0696 C.3       4 UNK        -0.1875 
     32 C          20.8706  -28.0356  -40.0109 C.2       4 UNK         0.4949 
     33 O          20.3366  -27.7722  -38.9329 O.2       4 UNK        -0.5039 
     34 N          22.1797  -28.2340  -40.1612 N.am      5 UNK        -0.4663 
     35 CA         23.2262  -28.2412  -39.1454 C.3       5 UNK         0.0242 
     36 CB         23.4107  -26.8528  -38.5003 C.3       5 UNK        -0.1982 
     37 C          24.5170  -28.7191  -39.8164 C.2       5 UNK         0.5017 
     38 O          25.1082  -29.7016  -39.3702 O.2       5 UNK        -0.5012 
     39 N          24.8899  -28.0502  -40.9191 N.am      6 UNK        -0.4439 
     40 CA         26.0612  -28.3494  -41.7506 C.3       6 UNK         0.0297 
     41 CB         26.2003  -27.2719  -42.8380 C.3       6 UNK        -0.2006 
     42 C          26.0373  -29.7501  -42.3886 C.2       6 UNK         0.4892 
     43 O          27.0956  -30.3624  -42.5328 O.2       6 UNK        -0.5089 
     44 N          24.8383  -30.2429  -42.7297 N.am      7 UNK        -0.4243 
     45 CA         24.6041  -31.5944  -43.2458 C.3       7 UNK         0.0196 
     46 CB         23.2605  -31.6083  -43.9917 C.3       7 UNK        -0.2007 
     47 C          24.6391  -32.6932  -42.1625 C.2       7 UNK         0.5020 
     48 O          24.4969  -33.8654  -42.5116 O.2       7 UNK        -0.5147 
     49 N          24.8185  -32.3139  -40.8858 N.am      8 UNK        -0.4734 
     50 CA         24.8574  -33.1745  -39.6960 C.3       8 UNK         0.0238 
     51 CB         26.0734  -34.1256  -39.7356 C.3       8 UNK        -0.1912 
     52 C          23.5216  -33.9017  -39.4517 C.2       8 UNK         0.5038 
     53 O          23.5062  -35.1114  -39.2148 O.2       8 UNK        -0.5046 
     54 N          22.4231  -33.1378  -39.5194 N.am      9 UNK        -0.4200 
     55 CA         21.0442  -33.6097  -39.3061 C.3       9 UNK         0.0839 
     56 C          20.7245  -34.0792  -37.8558 C.2       9 UNK         0.5513 
     57 N          21.5246  -33.7401  -36.8518 N.am      9 UNK        -0.7519 
     58 O          19.7281  -34.7643  -37.6407 O.2       9 UNK        -0.4960 
     59 C59        20.0022  -32.5580  -39.7678 C.3       10 UNK        -0.0876 
     60 S60        20.1792  -32.0896  -41.5209 S.3       10 UNK        -0.2414 
     61 C61        18.4726  -31.5442  -41.8777 C.3       10 UNK         0.0169 
     62 H62        16.0285  -23.4498  -49.0144 H         1 UNK         0.0903 
     63 H63        15.1085  -23.0090  -47.5742 H         1 UNK         0.0903 
     64 H64        16.5621  -22.1039  -48.0033 H         1 UNK         0.0903 
     65 H65        15.4648  -24.4192  -45.8800 H         1 UNK         0.3096 
     66 H66        17.6681  -26.2845  -45.8493 H         1 UNK         0.1121 
     67 H67        15.2990  -25.8842  -43.9568 H         1 UNK         0.0849 
     68 H68        16.4829  -27.1456  -43.7617 H         1 UNK         0.0849 
     69 H69        14.6605  -29.2254  -44.0362 H         1 UNK         0.0865 
     70 H70        14.7762  -29.9357  -45.6259 H         1 UNK         0.0865 
     71 H71        16.1676  -30.5457  -42.7816 H         1 UNK         0.1346 
     72 H72        20.2921  -30.8626  -43.9202 H         1 UNK         0.1412 
     73 H73        17.5016  -28.9456  -46.5281 H         1 UNK         0.1426 
     74 H74        19.8044  -30.0230  -47.2977 H         1 UNK         0.0716 
     75 H75        21.0262  -30.1768  -46.0673 H         1 UNK         0.0716 
     76 H76        22.7363  -27.1051  -46.3814 H         1 UNK         0.0695 
     77 H77        22.5831  -28.6052  -45.5396 H         1 UNK         0.0695 
     78 H78        23.0399  -26.4823  -44.1456 H         1 UNK         0.0983 
     79 H79        20.5289  -25.6861  -45.2658 H         1 UNK         0.3095 
     80 H80        19.7280  -23.1131  -43.0861 H         1 UNK         0.0454 
     81 H81        21.0344  -22.6863  -45.8308 H         1 UNK         0.0851 
     82 H82        21.5095  -21.8864  -44.3387 H         1 UNK         0.0851 
     83 H83        19.9262  -21.5732  -45.0290 H         1 UNK         0.0851 
     84 H84        18.8663  -23.8872  -45.7504 H         1 UNK         0.2976 
     85 H85        19.9861  -26.6415  -42.7457 H         1 UNK         0.3116 
     86 H86        20.0573  -29.2335  -41.5558 H         1 UNK         0.0646 
     87 H87        17.9549  -27.9759  -41.9688 H         1 UNK         0.0847 
     88 H88        18.4343  -26.7621  -40.7823 H         1 UNK         0.0847 
     89 H89        18.1056  -28.4138  -40.2774 H         1 UNK         0.0847 
     90 H90        22.4754  -28.4831  -41.1049 H         1 UNK         0.3040 
     91 H91        22.9552  -28.9626  -38.3716 H         1 UNK         0.1015 
     92 H92        24.2609  -26.8505  -37.8168 H         1 UNK         0.0786 
     93 H93        22.5351  -26.5633  -37.9195 H         1 UNK         0.0786 
     94 H94        23.5858  -26.0757  -39.2449 H         1 UNK         0.0786 
     95 H95        24.3345  -27.2547  -41.1983 H         1 UNK         0.3172 
     96 H96        26.9402  -28.2987  -41.1046 H         1 UNK         0.0595 
     97 H97        25.3427  -27.2645  -43.5115 H         1 UNK         0.0839 
     98 H98        27.0889  -27.4459  -43.4466 H         1 UNK         0.0839 
     99 H99        26.2984  -26.2765  -42.4042 H         1 UNK         0.0839 
    100 H100       24.0159  -29.6532  -42.6302 H         1 UNK         0.2998 
    101 H101       25.3916  -31.8310  -43.9645 H         1 UNK         0.0822 
    102 H102       23.2480  -30.8801  -44.8021 H         1 UNK         0.0787 
    103 H103       23.0585  -32.5861  -44.4306 H         1 UNK         0.0787 
    104 H104       22.4376  -31.3755  -43.3177 H         1 UNK         0.0787 
    105 H105       24.9376  -31.3244  -40.6975 H         1 UNK         0.3055 
    106 H106       24.9974  -32.5087  -38.8425 H         1 UNK         0.1106 
    107 H107       25.9876  -34.8659  -40.5314 H         1 UNK         0.0828 
    108 H108       26.1712  -34.6716  -38.7965 H         1 UNK         0.0828 
    109 H109       27.0019  -33.5755  -39.8876 H         1 UNK         0.0828 
    110 H110       22.5262  -32.1613  -39.7485 H         1 UNK         0.2931 
    111 H111       20.9175  -34.4907  -39.9384 H         1 UNK         0.0412 
    112 H112       22.3435  -33.1774  -37.0151 H         1 UNK         0.3472 
    113 H113       21.3058  -34.0537  -35.9190 H         1 UNK         0.3472 
    114 H114       20.0736  -31.6538  -39.1602 H         1 UNK         0.0970 
    115 H115       18.9916  -32.9446  -39.6195 H         1 UNK         0.0970 
    116 H116       17.8242  -32.4213  -41.8589 H         1 UNK         0.0612 
    117 H117       18.1431  -30.8963  -41.0643 H         1 UNK         0.0612 
@<TRIPOS>BOND
     1    1    2 1    
     2    1   62 1    
     3    1   63 1    
     4    1   64 1    
     5    2    3 2    
     6    2    4 am   BACKBONE|DICT|INTERRES
     7    4    5 1    
     8    4   65 1    
     9    5    6 1    
    10    5   25 1    
    11    5   66 1    
    12    6    7 1    
    13    6   67 1    
    14    6   68 1    
    15    7    8 1    
    16    8    9 1    
    17    8   69 1    
    18    8   70 1    
    19    9   10 ar   
    20    9   14 ar   
    21   10   11 ar   
    22   10   71 1    
    23   11   12 ar   
    24   11   61 1    
    25   12   13 ar   
    26   12   72 1    
    27   13   14 ar   
    28   13   15 1    
    29   14   73 1    
    30   15   16 1    
    31   15   74 1    
    32   15   75 1    
    33   16   17 1    
    34   17   18 1    
    35   17   76 1    
    36   17   77 1    
    37   18   19 1    
    38   18   27 1    
    39   18   78 1    
    40   19   20 am   BACKBONE|DICT|INTERRES
    41   19   79 1    
    42   20   21 2    
    43   20   22 1    
    44   22   23 1    
    45   22   24 1    
    46   22   80 1    
    47   23   81 1    
    48   23   82 1    
    49   23   83 1    
    50   24   25 am   BACKBONE|DICT|INTERRES
    51   24   84 1    
    52   25   26 2    
    53   27   28 2    
    54   27   29 am   BACKBONE|DICT|INTERRES
    55   29   30 1    
    56   29   85 1    
    57   30   31 1    
    58   30   32 1    
    59   30   86 1    
    60   31   87 1    
    61   31   88 1    
    62   31   89 1    
    63   32   33 2    
    64   32   34 am   BACKBONE|DICT|INTERRES
    65   34   35 1    
    66   34   90 1    
    67   35   36 1    
    68   35   37 1    
    69   35   91 1    
    70   36   92 1    
    71   36   93 1    
    72   36   94 1    
    73   37   38 2    
    74   37   39 am   BACKBONE|DICT|INTERRES
    75   39   40 1    
    76   39   95 1    
    77   40   41 1    
    78   40   42 1    
    79   40   96 1    
    80   41   97 1    
    81   41   98 1    
    82   41   99 1    
    83   42   43 2    
    84   42   44 am   BACKBONE|DICT|INTERRES
    85   44   45 1    
    86   44  100 1    
    87   45   46 1    
    88   45   47 1    
    89   45  101 1    
    90   46  102 1    
    91   46  103 1    
    92   46  104 1    
    93   47   48 2    
    94   47   49 am   BACKBONE|DICT|INTERRES
    95   49   50 1    
    96   49  105 1    
    97   50   51 1    
    98   50   52 1    
    99   50  106 1    
   100   51  107 1    
   101   51  108 1    
   102   51  109 1    
   103   52   53 2    
   104   52   54 am   BACKBONE|DICT|INTERRES
   105   54   55 1    
   106   54  110 1    
   107   55   56 1    
   108   55   59 1    
   109   55  111 1    
   110   56   57 am   BACKBONE|DICT|INTERRES
   111   56   58 2    
   112   57  112 1    
   113   57  113 1    
   114   59   60 1    
   115   59  114 1    
   116   59  115 1    
   117   60   61 1    
   118   61  116 1    
   119   61  117 1    
@<TRIPOS>SUBSTRUCTURE
     1 UNK         1 GROUP             0       ****    0 ROOT    
