@<TRIPOS>MOLECULE
3R8
117   119    1
SMALL
USER_CHARGES


@<TRIPOS>ATOM
      1 CA         17.6280  -28.5030  -40.2744 C.3       0 UNK        -0.2013 
      2 C          17.6795  -27.1739  -41.0101 C.2       0 UNK         0.4866 
      3 O          18.0296  -26.1538  -40.4178 O.2       0 UNK        -0.5176 
      4 N          17.3400  -27.1732  -42.3036 N.am      1 UNK        -0.4884 
      5 CA         17.1638  -25.9812  -43.1459 C.3       1 UNK         0.0853 
      6 C6         16.1095  -26.2006  -44.2740 C.3       10 UNK        -0.0849 
      7 S7         14.6530  -27.1860  -43.7542 S.3       10 UNK        -0.2776 
      8 C8         14.7916  -28.7070  -44.7629 C.3       10 UNK         0.0316 
      9 C9         16.1881  -29.3206  -44.7415 C.ar      10 UNK        -0.0863 
     10 C10        16.6451  -30.0291  -43.6257 C.ar      10 UNK        -0.1009 
     11 C11        17.9481  -30.5413  -43.5962 C.ar      10 UNK        -0.0712 
     12 C12        18.7880  -30.3556  -44.7004 C.ar      10 UNK        -0.0894 
     13 C13        18.3258  -29.6862  -45.8369 C.ar      10 UNK        -0.0745 
     14 C14        17.0270  -29.1739  -45.8502 C.ar      10 UNK        -0.0972 
     15 C15        19.2064  -29.5294  -47.0673 C.3       10 UNK         0.0209 
     16 S16        20.0063  -27.8963  -47.1216 S.3       10 UNK        -0.2568 
     17 C17        21.6171  -28.2786  -46.3652 C.3       10 UNK        -0.0983 
     18 CA         22.4740  -26.9994  -46.1263 C.3       3 UNK         0.0876 
     19 N          21.8532  -26.0550  -45.1843 N.am      3 UNK        -0.4424 
     20 C          21.5477  -26.2879  -43.8999 C.2       2 UNK         0.4918 
     21 O          21.7358  -27.3643  -43.3293 O.2       2 UNK        -0.4875 
     22 CA         20.9414  -25.1277  -43.0870 C.3       2 UNK         0.0481 
     23 CB         21.1722  -23.7244  -43.6929 C.3       2 UNK        -0.1831 
     24 N          19.5245  -25.3771  -42.8094 N.am      2 UNK        -0.4498 
     25 C          18.5192  -25.4708  -43.6932 C.2       1 UNK         0.5027 
     26 O          18.6369  -25.1957  -44.8885 O.2       1 UNK        -0.4969 
     27 C          23.9350  -27.3346  -45.7387 C.2       3 UNK         0.5005 
     28 O          24.4704  -26.7922  -44.7675 O.2       3 UNK        -0.5279 
     29 N          24.5681  -28.2374  -46.5041 N.am      4 UNK        -0.4463 
     30 CA         25.9352  -28.7309  -46.2819 C.3       4 UNK         0.0283 
     31 CB         26.3440  -29.6352  -47.4560 C.3       4 UNK        -0.1875 
     32 C          26.1300  -29.4695  -44.9425 C.2       4 UNK         0.4949 
     33 O          27.2599  -29.5622  -44.4633 O.2       4 UNK        -0.5039 
     34 N          25.0289  -29.9569  -44.3534 N.am      5 UNK        -0.4663 
     35 CA         24.9758  -30.5325  -43.0086 C.3       5 UNK         0.0242 
     36 CB         23.6197  -31.2369  -42.8246 C.3       5 UNK        -0.1982 
     37 C          25.1906  -29.4972  -41.8866 C.2       5 UNK         0.5017 
     38 O          25.5677  -29.8980  -40.7852 O.2       5 UNK        -0.5012 
     39 N          24.9475  -28.2070  -42.1805 N.am      6 UNK        -0.4439 
     40 CA         24.9297  -27.0714  -41.2507 C.3       6 UNK         0.0297 
     41 CB         26.3342  -26.7955  -40.6726 C.3       6 UNK        -0.2006 
     42 C          23.8436  -27.2493  -40.1724 C.2       6 UNK         0.4892 
     43 O          24.1376  -27.1966  -38.9763 O.2       6 UNK        -0.5089 
     44 N          22.6096  -27.4740  -40.6465 N.am      7 UNK        -0.4243 
     45 CA         21.4036  -27.8408  -39.9011 C.3       7 UNK         0.0196 
     46 CB         21.0347  -26.7695  -38.8505 C.3       7 UNK        -0.2007 
     47 C          21.4922  -29.2692  -39.3292 C.2       7 UNK         0.5020 
     48 O          22.3208  -30.0623  -39.7788 O.2       7 UNK        -0.5147 
     49 N          20.5930  -29.5954  -38.3897 N.am      8 UNK        -0.4734 
     50 CA         20.4502  -30.8543  -37.6353 C.3       8 UNK         0.0238 
     51 CB         21.6919  -31.1094  -36.7582 C.3       8 UNK        -0.1912 
     52 C          20.0997  -32.1163  -38.4518 C.2       8 UNK         0.5038 
     53 O          19.3495  -32.9519  -37.9468 O.2       8 UNK        -0.5046 
     54 N          20.6409  -32.2463  -39.6697 N.am      9 UNK        -0.4200 
     55 CA         20.5333  -33.4105  -40.5686 C.3       9 UNK         0.0839 
     56 C          21.2713  -34.6896  -40.0614 C.2       9 UNK         0.5513 
     57 N          22.1538  -34.5979  -39.0733 N.am      9 UNK        -0.7519 
     58 O          21.0765  -35.7787  -40.5951 O.2       9 UNK        -0.4960 
     59 C59        19.0664  -33.6748  -41.0436 C.3       10 UNK        -0.0876 
     60 S60        18.7474  -33.0426  -42.7225 S.3       10 UNK        -0.2414 
     61 C61        18.4545  -31.2849  -42.3691 C.3       10 UNK         0.0169 
     62 H62        16.7709  -29.0935  -40.5963 H         1 UNK         0.0903 
     63 H63        18.5344  -29.0764  -40.4555 H         1 UNK         0.0903 
     64 H64        17.5333  -28.3410  -39.2009 H         1 UNK         0.0903 
     65 H65        17.1027  -28.0436  -42.7616 H         1 UNK         0.3096 
     66 H66        16.7768  -25.1825  -42.5087 H         1 UNK         0.1121 
     67 H67        16.5588  -26.6636  -45.1512 H         1 UNK         0.0849 
     68 H68        15.7490  -25.2321  -44.6246 H         1 UNK         0.0849 
     69 H69        14.0687  -29.4388  -44.3996 H         1 UNK         0.0865 
     70 H70        14.4935  -28.4753  -45.7867 H         1 UNK         0.0865 
     71 H71        15.9892  -30.1660  -42.7765 H         1 UNK         0.1346 
     72 H72        19.7941  -30.7519  -44.6800 H         1 UNK         0.1412 
     73 H73        16.6759  -28.6434  -46.7251 H         1 UNK         0.1426 
     74 H74        19.9565  -30.3207  -47.1095 H         1 UNK         0.0716 
     75 H75        18.5973  -29.6469  -47.9648 H         1 UNK         0.0716 
     76 H76        22.1146  -28.9722  -47.0443 H         1 UNK         0.0695 
     77 H77        21.4554  -28.8281  -45.4368 H         1 UNK         0.0695 
     78 H78        22.5463  -26.4646  -47.0748 H         1 UNK         0.0983 
     79 H79        21.6547  -25.1386  -45.5568 H         1 UNK         0.3095 
     80 H80        21.4434  -25.1425  -42.1185 H         1 UNK         0.0454 
     81 H81        20.8044  -22.9478  -43.0225 H         1 UNK         0.0851 
     82 H82        20.6740  -23.5882  -44.6526 H         1 UNK         0.0851 
     83 H83        22.2359  -23.5356  -43.8440 H         1 UNK         0.0851 
     84 H84        19.2975  -25.6268  -41.8513 H         1 UNK         0.2976 
     85 H85        24.0793  -28.6253  -47.2987 H         1 UNK         0.3116 
     86 H86        26.5999  -27.8645  -46.2703 H         1 UNK         0.0646 
     87 H87        26.3029  -29.1000  -48.4049 H         1 UNK         0.0847 
     88 H88        27.3674  -29.9934  -47.3346 H         1 UNK         0.0847 
     89 H89        25.7006  -30.5124  -47.5345 H         1 UNK         0.0847 
     90 H90        24.1484  -29.8488  -44.8341 H         1 UNK         0.3040 
     91 H91        25.7700  -31.2777  -42.9237 H         1 UNK         0.1015 
     92 H92        22.7871  -30.5351  -42.8967 H         1 UNK         0.0786 
     93 H93        23.5573  -31.7092  -41.8429 H         1 UNK         0.0786 
     94 H94        23.4698  -32.0189  -43.5691 H         1 UNK         0.0786 
     95 H95        24.6782  -27.9772  -43.1329 H         1 UNK         0.3172 
     96 H96        24.6414  -26.1999  -41.8408 H         1 UNK         0.0595 
     97 H97        26.6791  -27.6059  -40.0300 H         1 UNK         0.0839 
     98 H98        26.3333  -25.8856  -40.0714 H         1 UNK         0.0839 
     99 H99        27.0692  -26.6601  -41.4659 H         1 UNK         0.0839 
    100 H100       22.4971  -27.5252  -41.6569 H         1 UNK         0.2998 
    101 H101       20.6110  -27.8610  -40.6487 H         1 UNK         0.0822 
    102 H102       20.0198  -26.9080  -38.4772 H         1 UNK         0.0787 
    103 H103       21.7059  -26.7920  -37.9913 H         1 UNK         0.0787 
    104 H104       21.0752  -25.7681  -39.2794 H         1 UNK         0.0787 
    105 H105       19.9406  -28.8732  -38.1178 H         1 UNK         0.3055 
    106 H106       19.6068  -30.6946  -36.9610 H         1 UNK         0.1106 
    107 H107       21.5566  -31.9957  -36.1366 H         1 UNK         0.0828 
    108 H108       22.5898  -31.2670  -37.3566 H         1 UNK         0.0828 
    109 H109       21.8813  -30.2713  -36.0875 H         1 UNK         0.0828 
    110 H110       21.2967  -31.5197  -39.9512 H         1 UNK         0.2931 
    111 H111       21.1243  -33.1256  -41.4399 H         1 UNK         0.0412 
    112 H112       22.6357  -35.4274  -38.7634 H         1 UNK         0.3472 
    113 H113       22.3470  -33.7093  -38.6408 H         1 UNK         0.3472 
    114 H114       18.3308  -33.2523  -40.3589 H         1 UNK         0.0970 
    115 H115       18.8297  -34.7394  -41.0697 H         1 UNK         0.0970 
    116 H116       19.3833  -30.8281  -42.0242 H         1 UNK         0.0612 
    117 H117       17.7388  -31.2053  -41.5502 H         1 UNK         0.0612 
@<TRIPOS>BOND
     1    1    2 1    
     2    1   62 1    
     3    1   63 1    
     4    1   64 1    
     5    2    3 2    
     6    2    4 am   BACKBONE|DICT|INTERRES
     7    4    5 1    
     8    4   65 1    
     9    5    6 1    
    10    5   25 1    
    11    5   66 1    
    12    6    7 1    
    13    6   67 1    
    14    6   68 1    
    15    7    8 1    
    16    8    9 1    
    17    8   69 1    
    18    8   70 1    
    19    9   10 ar   
    20    9   14 ar   
    21   10   11 ar   
    22   10   71 1    
    23   11   12 ar   
    24   11   61 1    
    25   12   13 ar   
    26   12   72 1    
    27   13   14 ar   
    28   13   15 1    
    29   14   73 1    
    30   15   16 1    
    31   15   74 1    
    32   15   75 1    
    33   16   17 1    
    34   17   18 1    
    35   17   76 1    
    36   17   77 1    
    37   18   19 1    
    38   18   27 1    
    39   18   78 1    
    40   19   20 am   BACKBONE|DICT|INTERRES
    41   19   79 1    
    42   20   21 2    
    43   20   22 1    
    44   22   23 1    
    45   22   24 1    
    46   22   80 1    
    47   23   81 1    
    48   23   82 1    
    49   23   83 1    
    50   24   25 am   BACKBONE|DICT|INTERRES
    51   24   84 1    
    52   25   26 2    
    53   27   28 2    
    54   27   29 am   BACKBONE|DICT|INTERRES
    55   29   30 1    
    56   29   85 1    
    57   30   31 1    
    58   30   32 1    
    59   30   86 1    
    60   31   87 1    
    61   31   88 1    
    62   31   89 1    
    63   32   33 2    
    64   32   34 am   BACKBONE|DICT|INTERRES
    65   34   35 1    
    66   34   90 1    
    67   35   36 1    
    68   35   37 1    
    69   35   91 1    
    70   36   92 1    
    71   36   93 1    
    72   36   94 1    
    73   37   38 2    
    74   37   39 am   BACKBONE|DICT|INTERRES
    75   39   40 1    
    76   39   95 1    
    77   40   41 1    
    78   40   42 1    
    79   40   96 1    
    80   41   97 1    
    81   41   98 1    
    82   41   99 1    
    83   42   43 2    
    84   42   44 am   BACKBONE|DICT|INTERRES
    85   44   45 1    
    86   44  100 1    
    87   45   46 1    
    88   45   47 1    
    89   45  101 1    
    90   46  102 1    
    91   46  103 1    
    92   46  104 1    
    93   47   48 2    
    94   47   49 am   BACKBONE|DICT|INTERRES
    95   49   50 1    
    96   49  105 1    
    97   50   51 1    
    98   50   52 1    
    99   50  106 1    
   100   51  107 1    
   101   51  108 1    
   102   51  109 1    
   103   52   53 2    
   104   52   54 am   BACKBONE|DICT|INTERRES
   105   54   55 1    
   106   54  110 1    
   107   55   56 1    
   108   55   59 1    
   109   55  111 1    
   110   56   57 am   BACKBONE|DICT|INTERRES
   111   56   58 2    
   112   57  112 1    
   113   57  113 1    
   114   59   60 1    
   115   59  114 1    
   116   59  115 1    
   117   60   61 1    
   118   61  116 1    
   119   61  117 1    
@<TRIPOS>SUBSTRUCTURE
     1 UNK         1 GROUP             0       ****    0 ROOT    
