@<TRIPOS>MOLECULE
3R8
117   119    1
SMALL
USER_CHARGES


@<TRIPOS>ATOM
      1 CA         15.5221  -21.8427  -44.6334 C.3       0 UNK        -0.2013 
      2 C          15.5772  -22.5552  -45.9765 C.2       0 UNK         0.4866 
      3 O          15.9016  -21.9310  -46.9866 O.2       0 UNK        -0.5176 
      4 N          15.2542  -23.8545  -45.9924 N.am      1 UNK        -0.4884 
      5 CA         15.2907  -24.7391  -47.1634 C.3       1 UNK         0.0853 
      6 C6         14.5546  -26.0906  -46.9176 C.3       10 UNK        -0.0849 
      7 S7         14.7663  -26.7796  -45.2339 S.3       10 UNK        -0.2776 
      8 C8         15.8630  -28.2189  -45.4960 C.3       10 UNK         0.0316 
      9 C9         16.5817  -28.7155  -44.2362 C.ar      10 UNK        -0.0863 
     10 C10        17.2089  -29.9659  -44.2731 C.ar      10 UNK        -0.1009 
     11 C11        17.9090  -30.4558  -43.1644 C.ar      10 UNK        -0.0712 
     12 C12        17.9752  -29.6843  -42.0010 C.ar      10 UNK        -0.0894 
     13 C13        17.3856  -28.4197  -41.9561 C.ar      10 UNK        -0.0745 
     14 C14        16.6796  -27.9485  -43.0659 C.ar      10 UNK        -0.0972 
     15 C15        17.5741  -27.5323  -40.7350 C.3       10 UNK         0.0209 
     16 S16        19.2528  -26.8188  -40.6890 S.3       10 UNK        -0.2568 
     17 C17        19.2899  -25.8067  -42.2110 C.3       10 UNK        -0.0983 
     18 CA         19.8678  -26.5769  -43.4268 C.3       3 UNK         0.0876 
     19 N          19.4728  -25.9657  -44.6975 N.am      3 UNK        -0.4424 
     20 C          19.5137  -26.6103  -45.8710 C.2       2 UNK         0.4918 
     21 O          19.8700  -27.7838  -45.9904 O.2       2 UNK        -0.4875 
     22 CA         19.0010  -25.8350  -47.0940 C.3       2 UNK         0.0481 
     23 CB         19.1980  -26.6478  -48.3977 C.3       2 UNK        -0.1831 
     24 N          17.5933  -25.5043  -46.8495 N.am      2 UNK        -0.4498 
     25 C          16.7254  -24.9328  -47.6941 C.2       1 UNK         0.5027 
     26 O          17.0064  -24.5506  -48.8309 O.2       1 UNK        -0.4969 
     27 C          21.3960  -26.7526  -43.3413 C.2       3 UNK         0.5005 
     28 O          22.1426  -25.8424  -43.7109 O.2       3 UNK        -0.5279 
     29 N          21.8180  -27.9155  -42.8358 N.am      4 UNK        -0.4463 
     30 CA         23.2089  -28.2991  -42.6152 C.3       4 UNK         0.0283 
     31 CB         23.7204  -29.1053  -43.8248 C.3       4 UNK        -0.1875 
     32 C          23.2973  -29.0755  -41.2956 C.2       4 UNK         0.4949 
     33 O          23.8462  -30.1782  -41.2658 O.2       4 UNK        -0.5039 
     34 N          22.7024  -28.5115  -40.2343 N.am      5 UNK        -0.4663 
     35 CA         22.6362  -29.0881  -38.8878 C.3       5 UNK         0.0242 
     36 CB         21.8703  -28.1315  -37.9604 C.3       5 UNK        -0.1982 
     37 C          24.0305  -29.3978  -38.3191 C.2       5 UNK         0.5017 
     38 O          24.8866  -28.5116  -38.3053 O.2       5 UNK        -0.5012 
     39 N          24.2381  -30.6572  -37.9135 N.am      6 UNK        -0.4439 
     40 CA         25.4751  -31.2766  -37.4158 C.3       6 UNK         0.0297 
     41 CB         26.0394  -30.5353  -36.1874 C.3       6 UNK        -0.2006 
     42 C          26.5602  -31.4945  -38.4886 C.2       6 UNK         0.4892 
     43 O          27.3534  -32.4255  -38.3442 O.2       6 UNK        -0.5089 
     44 N          26.5766  -30.6694  -39.5439 N.am      7 UNK        -0.4243 
     45 CA         27.4590  -30.8046  -40.7038 C.3       7 UNK         0.0196 
     46 CB         27.4449  -29.4977  -41.5129 C.3       7 UNK        -0.2007 
     47 C          27.0765  -32.0009  -41.5909 C.2       7 UNK         0.5020 
     48 O          27.9663  -32.6934  -42.0861 O.2       7 UNK        -0.5147 
     49 N          25.7690  -32.2298  -41.7618 N.am      8 UNK        -0.4734 
     50 CA         25.2106  -33.3552  -42.5125 C.3       8 UNK         0.0238 
     51 CB         25.0915  -32.9945  -44.0042 C.3       8 UNK        -0.1912 
     52 C          23.8577  -33.8032  -41.9446 C.2       8 UNK         0.5038 
     53 O          23.6279  -35.0075  -41.8272 O.2       8 UNK        -0.5046 
     54 N          22.9892  -32.8420  -41.6091 N.am      9 UNK        -0.4200 
     55 CA         21.6601  -33.0794  -41.0334 C.3       9 UNK         0.0839 
     56 C          21.7592  -33.3617  -39.5129 C.2       9 UNK         0.5513 
     57 N          21.0589  -34.3721  -39.0185 N.am      9 UNK        -0.7519 
     58 O          22.4273  -32.6423  -38.7731 O.2       9 UNK        -0.4960 
     59 C59        20.7006  -31.8944  -41.3133 C.3       10 UNK        -0.0876 
     60 S60        20.4196  -31.6430  -43.1019 S.3       10 UNK        -0.2414 
     61 C61        18.6079  -31.8079  -43.2358 C.3       10 UNK         0.0169 
     62 H62        16.5013  -21.4342  -44.3851 H         1 UNK         0.0903 
     63 H63        14.8098  -21.0192  -44.6746 H         1 UNK         0.0903 
     64 H64        15.2201  -22.5120  -43.8280 H         1 UNK         0.0903 
     65 H65        14.9837  -24.3113  -45.1316 H         1 UNK         0.3096 
     66 H66        14.7490  -24.2248  -47.9612 H         1 UNK         0.1121 
     67 H67        13.4836  -25.9292  -47.0498 H         1 UNK         0.0849 
     68 H68        14.8205  -26.8378  -47.6685 H         1 UNK         0.0849 
     69 H69        15.2625  -29.0292  -45.9125 H         1 UNK         0.0865 
     70 H70        16.6159  -27.9809  -46.2472 H         1 UNK         0.0865 
     71 H71        17.1624  -30.5570  -45.1778 H         1 UNK         0.1346 
     72 H72        18.5248  -30.0437  -41.1431 H         1 UNK         0.1412 
     73 H73        16.2416  -26.9626  -43.0147 H         1 UNK         0.1426 
     74 H74        17.4119  -28.1182  -39.8292 H         1 UNK         0.0716 
     75 H75        16.8363  -26.7285  -40.7172 H         1 UNK         0.0716 
     76 H76        19.8614  -24.8970  -42.0169 H         1 UNK         0.0695 
     77 H77        18.2717  -25.4753  -42.4207 H         1 UNK         0.0695 
     78 H78        19.4346  -27.5777  -43.4320 H         1 UNK         0.0983 
     79 H79        19.2235  -24.9879  -44.6745 H         1 UNK         0.3095 
     80 H80        19.5702  -24.9067  -47.1660 H         1 UNK         0.0454 
     81 H81        18.5528  -27.5265  -48.4260 H         1 UNK         0.0851 
     82 H82        20.2275  -26.9962  -48.4903 H         1 UNK         0.0851 
     83 H83        18.9978  -26.0534  -49.2879 H         1 UNK         0.0851 
     84 H84        17.2456  -25.7631  -45.9356 H         1 UNK         0.2976 
     85 H85        21.1289  -28.5949  -42.5410 H         1 UNK         0.3116 
     86 H86        23.8315  -27.4096  -42.4989 H         1 UNK         0.0646 
     87 H87        23.1276  -30.0069  -43.9836 H         1 UNK         0.0847 
     88 H88        24.7570  -29.4139  -43.6861 H         1 UNK         0.0847 
     89 H89        23.6786  -28.5142  -44.7395 H         1 UNK         0.0847 
     90 H90        22.2785  -27.6024  -40.3532 H         1 UNK         0.3040 
     91 H91        22.0681  -30.0166  -38.9542 H         1 UNK         0.1015 
     92 H92        20.8492  -27.9735  -38.3074 H         1 UNK         0.0786 
     93 H93        22.3579  -27.1581  -37.8931 H         1 UNK         0.0786 
     94 H94        21.8074  -28.5355  -36.9490 H         1 UNK         0.0786 
     95 H95        23.4847  -31.3262  -38.0764 H         1 UNK         0.3172 
     96 H96        25.1760  -32.2720  -37.0834 H         1 UNK         0.0595 
     97 H97        26.4161  -29.5446  -36.4426 H         1 UNK         0.0839 
     98 H98        26.8702  -31.0902  -35.7498 H         1 UNK         0.0839 
     99 H99        25.2833  -30.4189  -35.4111 H         1 UNK         0.0839 
    100 H100       25.9045  -29.9121  -39.5585 H         1 UNK         0.2998 
    101 H101       28.4757  -30.9707  -40.3411 H         1 UNK         0.0822 
    102 H102       27.7921  -28.6567  -40.9123 H         1 UNK         0.0787 
    103 H103       28.1018  -29.5693  -42.3809 H         1 UNK         0.0787 
    104 H104       26.4463  -29.2579  -41.8781 H         1 UNK         0.0787 
    105 H105       25.1080  -31.5801  -41.3431 H         1 UNK         0.3055 
    106 H106       25.8851  -34.2099  -42.4189 H         1 UNK         0.1106 
    107 H107       24.6687  -33.8230  -44.5739 H         1 UNK         0.0828 
    108 H108       24.4474  -32.1288  -44.1591 H         1 UNK         0.0828 
    109 H109       26.0660  -32.7685  -44.4371 H         1 UNK         0.0828 
    110 H110       23.2658  -31.8678  -41.6822 H         1 UNK         0.2931 
    111 H111       21.2357  -33.9624  -41.5167 H         1 UNK         0.0412 
    112 H112       20.5026  -34.9639  -39.6162 H         1 UNK         0.3472 
    113 H113       21.0998  -34.5573  -38.0283 H         1 UNK         0.3472 
    114 H114       19.7458  -32.0662  -40.8143 H         1 UNK         0.0970 
    115 H115       21.0915  -30.9689  -40.8926 H         1 UNK         0.0970 
    116 H116       18.2190  -32.4705  -42.4619 H         1 UNK         0.0612 
    117 H117       18.3865  -32.2965  -44.1858 H         1 UNK         0.0612 
@<TRIPOS>BOND
     1    1    2 1    
     2    1   62 1    
     3    1   63 1    
     4    1   64 1    
     5    2    3 2    
     6    2    4 am   BACKBONE|DICT|INTERRES
     7    4    5 1    
     8    4   65 1    
     9    5    6 1    
    10    5   25 1    
    11    5   66 1    
    12    6    7 1    
    13    6   67 1    
    14    6   68 1    
    15    7    8 1    
    16    8    9 1    
    17    8   69 1    
    18    8   70 1    
    19    9   10 ar   
    20    9   14 ar   
    21   10   11 ar   
    22   10   71 1    
    23   11   12 ar   
    24   11   61 1    
    25   12   13 ar   
    26   12   72 1    
    27   13   14 ar   
    28   13   15 1    
    29   14   73 1    
    30   15   16 1    
    31   15   74 1    
    32   15   75 1    
    33   16   17 1    
    34   17   18 1    
    35   17   76 1    
    36   17   77 1    
    37   18   19 1    
    38   18   27 1    
    39   18   78 1    
    40   19   20 am   BACKBONE|DICT|INTERRES
    41   19   79 1    
    42   20   21 2    
    43   20   22 1    
    44   22   23 1    
    45   22   24 1    
    46   22   80 1    
    47   23   81 1    
    48   23   82 1    
    49   23   83 1    
    50   24   25 am   BACKBONE|DICT|INTERRES
    51   24   84 1    
    52   25   26 2    
    53   27   28 2    
    54   27   29 am   BACKBONE|DICT|INTERRES
    55   29   30 1    
    56   29   85 1    
    57   30   31 1    
    58   30   32 1    
    59   30   86 1    
    60   31   87 1    
    61   31   88 1    
    62   31   89 1    
    63   32   33 2    
    64   32   34 am   BACKBONE|DICT|INTERRES
    65   34   35 1    
    66   34   90 1    
    67   35   36 1    
    68   35   37 1    
    69   35   91 1    
    70   36   92 1    
    71   36   93 1    
    72   36   94 1    
    73   37   38 2    
    74   37   39 am   BACKBONE|DICT|INTERRES
    75   39   40 1    
    76   39   95 1    
    77   40   41 1    
    78   40   42 1    
    79   40   96 1    
    80   41   97 1    
    81   41   98 1    
    82   41   99 1    
    83   42   43 2    
    84   42   44 am   BACKBONE|DICT|INTERRES
    85   44   45 1    
    86   44  100 1    
    87   45   46 1    
    88   45   47 1    
    89   45  101 1    
    90   46  102 1    
    91   46  103 1    
    92   46  104 1    
    93   47   48 2    
    94   47   49 am   BACKBONE|DICT|INTERRES
    95   49   50 1    
    96   49  105 1    
    97   50   51 1    
    98   50   52 1    
    99   50  106 1    
   100   51  107 1    
   101   51  108 1    
   102   51  109 1    
   103   52   53 2    
   104   52   54 am   BACKBONE|DICT|INTERRES
   105   54   55 1    
   106   54  110 1    
   107   55   56 1    
   108   55   59 1    
   109   55  111 1    
   110   56   57 am   BACKBONE|DICT|INTERRES
   111   56   58 2    
   112   57  112 1    
   113   57  113 1    
   114   59   60 1    
   115   59  114 1    
   116   59  115 1    
   117   60   61 1    
   118   61  116 1    
   119   61  117 1    
@<TRIPOS>SUBSTRUCTURE
     1 UNK         1 GROUP             0       ****    0 ROOT    
