@<TRIPOS>MOLECULE
3R8
117   119    1
SMALL
USER_CHARGES


@<TRIPOS>ATOM
      1 CA         15.9451  -22.7266  -45.0687 C.3       0 UNK        -0.2013 
      2 C          16.2550  -24.2134  -45.1640 C.2       0 UNK         0.4866 
      3 O          15.6592  -24.9101  -45.9870 O.2       0 UNK        -0.5176 
      4 N          17.1837  -24.6974  -44.3330 N.am      1 UNK        -0.4884 
      5 CA         17.6535  -26.0823  -44.3007 C.3       1 UNK         0.0853 
      6 C6         17.2029  -26.8196  -43.0151 C.3       10 UNK        -0.0849 
      7 S7         15.4364  -27.2657  -42.9924 S.3       10 UNK        -0.2776 
      8 C8         15.3899  -28.7568  -44.0558 C.3       10 UNK         0.0316 
      9 C9         16.2687  -29.9391  -43.6300 C.ar      10 UNK        -0.0863 
     10 C10        16.5542  -30.9272  -44.5809 C.ar      10 UNK        -0.1009 
     11 C11        17.3367  -32.0419  -44.2609 C.ar      10 UNK        -0.0712 
     12 C12        17.8451  -32.1530  -42.9622 C.ar      10 UNK        -0.0894 
     13 C13        17.5991  -31.1658  -42.0080 C.ar      10 UNK        -0.0745 
     14 C14        16.7837  -30.0799  -42.3333 C.ar      10 UNK        -0.0972 
     15 C15        18.2394  -31.2834  -40.6354 C.3       10 UNK         0.0209 
     16 S16        19.9998  -30.8193  -40.7075 S.3       10 UNK        -0.2568 
     17 C17        19.9258  -29.0371  -40.3352 C.3       10 UNK        -0.0983 
     18 CA         21.0671  -28.2433  -41.0226 C.3       3 UNK         0.0876 
     19 N          20.8541  -28.1308  -42.4729 N.am      3 UNK        -0.4424 
     20 C          21.7259  -27.6386  -43.3669 C.2       2 UNK         0.4918 
     21 O          22.8607  -27.2621  -43.0765 O.2       2 UNK        -0.4875 
     22 CA         21.2131  -27.4347  -44.8061 C.3       2 UNK         0.0481 
     23 CB         21.5367  -28.6512  -45.6814 C.3       2 UNK        -0.1831 
     24 N          19.7741  -27.1560  -44.8707 N.am      2 UNK        -0.4498 
     25 C          19.1872  -26.0744  -44.3385 C.2       1 UNK         0.5027 
     26 O          19.8077  -25.1556  -43.7981 O.2       1 UNK        -0.4969 
     27 C          21.2994  -26.8896  -40.3033 C.2       3 UNK         0.5005 
     28 O          21.6863  -26.9003  -39.1341 O.2       3 UNK        -0.5279 
     29 N          21.0819  -25.7492  -40.9796 N.am      4 UNK        -0.4463 
     30 CA         21.4653  -24.4254  -40.4801 C.3       4 UNK         0.0283 
     31 CB         20.7120  -23.3406  -41.2661 C.3       4 UNK        -0.1875 
     32 C          22.9856  -24.1762  -40.5500 C.2       4 UNK         0.4949 
     33 O          23.4817  -23.3354  -39.7997 O.2       4 UNK        -0.5039 
     34 N          23.6902  -24.8863  -41.4438 N.am      5 UNK        -0.4663 
     35 CA         25.1352  -24.7669  -41.6590 C.3       5 UNK         0.0242 
     36 CB         25.3942  -24.3555  -43.1185 C.3       5 UNK        -0.1982 
     37 C          25.8721  -26.0744  -41.3311 C.2       5 UNK         0.5017 
     38 O          26.9264  -26.0254  -40.6958 O.2       5 UNK        -0.5012 
     39 N          25.3155  -27.2080  -41.7737 N.am      6 UNK        -0.4439 
     40 CA         25.8282  -28.5604  -41.5590 C.3       6 UNK         0.0297 
     41 CB         25.9014  -29.2727  -42.9257 C.3       6 UNK        -0.2006 
     42 C          24.9359  -29.2914  -40.5379 C.2       6 UNK         0.4892 
     43 O          24.3863  -28.6513  -39.6404 O.2       6 UNK        -0.5089 
     44 N          24.8041  -30.6135  -40.6789 N.am      7 UNK        -0.4243 
     45 CA         23.9314  -31.4768  -39.8902 C.3       7 UNK         0.0196 
     46 CB         24.5863  -31.8162  -38.5386 C.3       7 UNK        -0.2007 
     47 C          23.6674  -32.7440  -40.7090 C.2       7 UNK         0.5020 
     48 O          24.5361  -33.1451  -41.4878 O.2       7 UNK        -0.5147 
     49 N          22.4894  -33.3514  -40.5026 N.am      8 UNK        -0.4734 
     50 CA         21.9698  -34.5300  -41.2142 C.3       8 UNK         0.0238 
     51 CB         22.7894  -35.7909  -40.8633 C.3       8 UNK        -0.1912 
     52 C          21.8555  -34.2834  -42.7324 C.2       8 UNK         0.5038 
     53 O          22.3886  -35.0563  -43.5315 O.2       8 UNK        -0.5046 
     54 N          21.1748  -33.1843  -43.0815 N.am      9 UNK        -0.4200 
     55 CA         21.0607  -32.6200  -44.4348 C.3       9 UNK         0.0839 
     56 C          22.4121  -31.9975  -44.9008 C.2       9 UNK         0.5513 
     57 N          22.7299  -32.0086  -46.1896 N.am      9 UNK        -0.7519 
     58 O          23.1529  -31.4309  -44.1011 O.2       9 UNK        -0.4960 
     59 C59        20.3912  -33.5650  -45.4829 C.3       10 UNK        -0.0876 
     60 S60        18.8424  -34.3678  -44.9390 S.3       10 UNK        -0.2414 
     61 C61        17.5757  -33.1075  -45.3354 C.3       10 UNK         0.0169 
     62 H62        14.8891  -22.5782  -44.8431 H         1 UNK         0.0903 
     63 H63        16.5300  -22.2358  -44.2898 H         1 UNK         0.0903 
     64 H64        16.1640  -22.2362  -46.0174 H         1 UNK         0.0903 
     65 H65        17.6989  -24.0698  -43.7285 H         1 UNK         0.3096 
     66 H66        17.3035  -26.6251  -45.1815 H         1 UNK         0.1121 
     67 H67        17.7861  -27.7262  -42.8637 H         1 UNK         0.0849 
     68 H68        17.4017  -26.2027  -42.1361 H         1 UNK         0.0849 
     69 H69        14.3565  -29.1032  -44.1047 H         1 UNK         0.0865 
     70 H70        15.6540  -28.4556  -45.0710 H         1 UNK         0.0865 
     71 H71        16.1511  -30.8354  -45.5809 H         1 UNK         0.1346 
     72 H72        18.4467  -33.0026  -42.6771 H         1 UNK         0.1412 
     73 H73        16.5716  -29.3387  -41.5757 H         1 UNK         0.1426 
     74 H74        18.1604  -32.3140  -40.2858 H         1 UNK         0.0716 
     75 H75        17.7155  -30.6716  -39.8991 H         1 UNK         0.0716 
     76 H76        19.9813  -28.9516  -39.2479 H         1 UNK         0.0695 
     77 H77        18.9534  -28.6320  -40.6206 H         1 UNK         0.0695 
     78 H78        21.9940  -28.8024  -40.8857 H         1 UNK         0.0983 
     79 H79        19.9569  -28.4456  -42.8076 H         1 UNK         0.3095 
     80 H80        21.7408  -26.5720  -45.2183 H         1 UNK         0.0454 
     81 H81        22.5927  -28.9168  -45.6093 H         1 UNK         0.0851 
     82 H82        20.9552  -29.5235  -45.3851 H         1 UNK         0.0851 
     83 H83        21.3266  -28.4510  -46.7321 H         1 UNK         0.0851 
     84 H84        19.1977  -27.8664  -45.2998 H         1 UNK         0.2976 
     85 H85        20.7366  -25.7888  -41.9313 H         1 UNK         0.3116 
     86 H86        21.1640  -24.3498  -39.4329 H         1 UNK         0.0646 
     87 H87        20.9066  -22.3525  -40.8471 H         1 UNK         0.0847 
     88 H88        19.6340  -23.4993  -41.2347 H         1 UNK         0.0847 
     89 H89        21.0187  -23.3130  -42.3124 H         1 UNK         0.0847 
     90 H90        23.2055  -25.5805  -42.0010 H         1 UNK         0.3040 
     91 H91        25.5552  -23.9925  -41.0127 H         1 UNK         0.1015 
     92 H92        24.9436  -23.3881  -43.3411 H         1 UNK         0.0786 
     93 H93        24.9889  -25.0830  -43.8236 H         1 UNK         0.0786 
     94 H94        26.4635  -24.2678  -43.3164 H         1 UNK         0.0786 
     95 H95        24.4230  -27.1601  -42.2618 H         1 UNK         0.3172 
     96 H96        26.8350  -28.5239  -41.1386 H         1 UNK         0.0595 
     97 H97        26.3921  -30.2437  -42.8501 H         1 UNK         0.0839 
     98 H98        26.4763  -28.6868  -43.6431 H         1 UNK         0.0839 
     99 H99        24.9092  -29.4319  -43.3517 H         1 UNK         0.0839 
    100 H100       25.2484  -31.0870  -41.4569 H         1 UNK         0.2998 
    101 H101       22.9829  -30.9624  -39.7203 H         1 UNK         0.0822 
    102 H102       25.5460  -32.3170  -38.6725 H         1 UNK         0.0787 
    103 H103       24.7566  -30.9200  -37.9419 H         1 UNK         0.0787 
    104 H104       23.9499  -32.4791  -37.9511 H         1 UNK         0.0787 
    105 H105       21.8533  -32.9327  -39.8367 H         1 UNK         0.3055 
    106 H106       20.9519  -34.6925  -40.8549 H         1 UNK         0.1106 
    107 H107       23.8156  -35.7249  -41.2261 H         1 UNK         0.0828 
    108 H108       22.8248  -35.9544  -39.7864 H         1 UNK         0.0828 
    109 H109       22.3451  -36.6805  -41.3114 H         1 UNK         0.0828 
    110 H110       20.8345  -32.5860  -42.3419 H         1 UNK         0.2931 
    111 H111       20.3959  -31.7639  -44.3192 H         1 UNK         0.0412 
    112 H112       23.5970  -31.5830  -46.4772 H         1 UNK         0.3472 
    113 H113       22.1388  -32.4474  -46.8768 H         1 UNK         0.3472 
    114 H114       21.0840  -34.3610  -45.7614 H         1 UNK         0.0970 
    115 H115       20.1819  -33.0195  -46.4042 H         1 UNK         0.0970 
    116 H116       17.8296  -32.6274  -46.2820 H         1 UNK         0.0612 
    117 H117       16.6320  -33.6294  -45.5018 H         1 UNK         0.0612 
@<TRIPOS>BOND
     1    1    2 1    
     2    1   62 1    
     3    1   63 1    
     4    1   64 1    
     5    2    3 2    
     6    2    4 am   BACKBONE|DICT|INTERRES
     7    4    5 1    
     8    4   65 1    
     9    5    6 1    
    10    5   25 1    
    11    5   66 1    
    12    6    7 1    
    13    6   67 1    
    14    6   68 1    
    15    7    8 1    
    16    8    9 1    
    17    8   69 1    
    18    8   70 1    
    19    9   10 ar   
    20    9   14 ar   
    21   10   11 ar   
    22   10   71 1    
    23   11   12 ar   
    24   11   61 1    
    25   12   13 ar   
    26   12   72 1    
    27   13   14 ar   
    28   13   15 1    
    29   14   73 1    
    30   15   16 1    
    31   15   74 1    
    32   15   75 1    
    33   16   17 1    
    34   17   18 1    
    35   17   76 1    
    36   17   77 1    
    37   18   19 1    
    38   18   27 1    
    39   18   78 1    
    40   19   20 am   BACKBONE|DICT|INTERRES
    41   19   79 1    
    42   20   21 2    
    43   20   22 1    
    44   22   23 1    
    45   22   24 1    
    46   22   80 1    
    47   23   81 1    
    48   23   82 1    
    49   23   83 1    
    50   24   25 am   BACKBONE|DICT|INTERRES
    51   24   84 1    
    52   25   26 2    
    53   27   28 2    
    54   27   29 am   BACKBONE|DICT|INTERRES
    55   29   30 1    
    56   29   85 1    
    57   30   31 1    
    58   30   32 1    
    59   30   86 1    
    60   31   87 1    
    61   31   88 1    
    62   31   89 1    
    63   32   33 2    
    64   32   34 am   BACKBONE|DICT|INTERRES
    65   34   35 1    
    66   34   90 1    
    67   35   36 1    
    68   35   37 1    
    69   35   91 1    
    70   36   92 1    
    71   36   93 1    
    72   36   94 1    
    73   37   38 2    
    74   37   39 am   BACKBONE|DICT|INTERRES
    75   39   40 1    
    76   39   95 1    
    77   40   41 1    
    78   40   42 1    
    79   40   96 1    
    80   41   97 1    
    81   41   98 1    
    82   41   99 1    
    83   42   43 2    
    84   42   44 am   BACKBONE|DICT|INTERRES
    85   44   45 1    
    86   44  100 1    
    87   45   46 1    
    88   45   47 1    
    89   45  101 1    
    90   46  102 1    
    91   46  103 1    
    92   46  104 1    
    93   47   48 2    
    94   47   49 am   BACKBONE|DICT|INTERRES
    95   49   50 1    
    96   49  105 1    
    97   50   51 1    
    98   50   52 1    
    99   50  106 1    
   100   51  107 1    
   101   51  108 1    
   102   51  109 1    
   103   52   53 2    
   104   52   54 am   BACKBONE|DICT|INTERRES
   105   54   55 1    
   106   54  110 1    
   107   55   56 1    
   108   55   59 1    
   109   55  111 1    
   110   56   57 am   BACKBONE|DICT|INTERRES
   111   56   58 2    
   112   57  112 1    
   113   57  113 1    
   114   59   60 1    
   115   59  114 1    
   116   59  115 1    
   117   60   61 1    
   118   61  116 1    
   119   61  117 1    
@<TRIPOS>SUBSTRUCTURE
     1 UNK         1 GROUP             0       ****    0 ROOT    
