@<TRIPOS>MOLECULE
3R8
117   119    1
SMALL
USER_CHARGES


@<TRIPOS>ATOM
      1 CA         16.3944  -22.3239  -46.2806 C.3       0 UNK        -0.2013 
      2 C          17.1736  -23.6015  -46.0090 C.2       0 UNK         0.4866 
      3 O          18.1620  -23.8754  -46.6912 O.2       0 UNK        -0.5176 
      4 N          16.7489  -24.3843  -45.0090 N.am      1 UNK        -0.4884 
      5 CA         17.3458  -25.6657  -44.6064 C.3       1 UNK         0.0853 
      6 C6         16.3140  -26.5743  -43.8883 C.3       10 UNK        -0.0849 
      7 S7         14.9836  -27.0837  -45.0313 S.3       10 UNK        -0.2776 
      8 C8         14.7631  -28.8531  -44.6288 C.3       10 UNK         0.0316 
      9 C9         16.0132  -29.7181  -44.7951 C.ar      10 UNK        -0.0863 
     10 C10        16.2552  -30.7443  -43.8737 C.ar      10 UNK        -0.1009 
     11 C11        17.3789  -31.5653  -43.9991 C.ar      10 UNK        -0.0712 
     12 C12        18.2610  -31.3637  -45.0607 C.ar      10 UNK        -0.0894 
     13 C13        18.0543  -30.3230  -45.9697 C.ar      10 UNK        -0.0745 
     14 C14        16.9174  -29.5173  -45.8479 C.ar      10 UNK        -0.0972 
     15 C15        19.1012  -30.0456  -47.0408 C.3       10 UNK         0.0209 
     16 S16        20.2905  -28.7527  -46.5318 S.3       10 UNK        -0.2568 
     17 C17        20.7485  -29.2829  -44.8410 C.3       10 UNK        -0.0983 
     18 CA         21.7050  -28.3287  -44.0839 C.3       3 UNK         0.0876 
     19 N          21.3190  -26.9293  -44.2722 N.am      3 UNK        -0.4424 
     20 C          21.7655  -25.8449  -43.6252 C.2       2 UNK         0.4918 
     21 O          22.7038  -25.8563  -42.8278 O.2       2 UNK        -0.4875 
     22 CA         20.9747  -24.5429  -43.8556 C.3       2 UNK         0.0481 
     23 CB         21.7434  -23.6122  -44.8048 C.3       2 UNK        -0.1831 
     24 N          19.6180  -24.7617  -44.3803 N.am      2 UNK        -0.4498 
     25 C          18.6381  -25.4601  -43.7844 C.2       1 UNK         0.5027 
     26 O          18.7521  -25.9614  -42.6637 O.2       1 UNK        -0.4969 
     27 C          21.7285  -28.7441  -42.5970 C.2       3 UNK         0.5005 
     28 O          22.6360  -29.4640  -42.1828 O.2       3 UNK        -0.5279 
     29 N          20.7537  -28.2517  -41.8156 N.am      4 UNK        -0.4463 
     30 CA         20.6119  -28.5050  -40.3803 C.3       4 UNK         0.0283 
     31 CB         19.2420  -27.9896  -39.9134 C.3       4 UNK        -0.1875 
     32 C          21.7399  -27.9037  -39.5195 C.2       4 UNK         0.4949 
     33 O          21.9242  -28.3528  -38.3889 O.2       4 UNK        -0.5039 
     34 N          22.4773  -26.9237  -40.0571 N.am      5 UNK        -0.4663 
     35 CA         23.6894  -26.3738  -39.4511 C.3       5 UNK         0.0242 
     36 CB         23.6675  -24.8401  -39.5658 C.3       5 UNK        -0.1982 
     37 C          24.9453  -26.9496  -40.1228 C.2       5 UNK         0.5017 
     38 O          25.8946  -27.2994  -39.4217 O.2       5 UNK        -0.5012 
     39 N          24.9363  -27.0206  -41.4623 N.am      6 UNK        -0.4439 
     40 CA         26.0776  -27.4270  -42.2855 C.3       6 UNK         0.0297 
     41 CB         25.8113  -27.0407  -43.7497 C.3       6 UNK        -0.2006 
     42 C          26.4373  -28.9191  -42.1781 C.2       6 UNK         0.4892 
     43 O          27.6236  -29.2420  -42.1029 O.2       6 UNK        -0.5089 
     44 N          25.4229  -29.7924  -42.1962 N.am      7 UNK        -0.4243 
     45 CA         25.5680  -31.2516  -42.1707 C.3       7 UNK         0.0196 
     46 CB         24.9457  -31.8346  -43.4514 C.3       7 UNK        -0.2007 
     47 C          24.9138  -31.8828  -40.9321 C.2       7 UNK         0.5020 
     48 O          25.3328  -32.9672  -40.5288 O.2       7 UNK        -0.5147 
     49 N          23.9029  -31.2084  -40.3642 N.am      8 UNK        -0.4734 
     50 CA         23.0750  -31.6216  -39.2224 C.3       8 UNK         0.0238 
     51 CB         23.9229  -31.8744  -37.9568 C.3       8 UNK        -0.1912 
     52 C          22.1021  -32.7724  -39.5446 C.2       8 UNK         0.5038 
     53 O          21.6439  -33.4497  -38.6222 O.2       8 UNK        -0.5046 
     54 N          21.7731  -32.9432  -40.8342 N.am      9 UNK        -0.4200 
     55 CA         20.8423  -33.9510  -41.3733 C.3       9 UNK         0.0839 
     56 C          21.2984  -35.4209  -41.1058 C.2       9 UNK         0.5513 
     57 N          20.4083  -36.4013  -41.1942 N.am      9 UNK        -0.7519 
     58 O          22.4747  -35.6981  -40.8802 O.2       9 UNK        -0.4960 
     59 C59        19.3629  -33.6503  -40.9796 C.3       10 UNK        -0.0876 
     60 S60        18.7842  -32.0646  -41.6775 S.3       10 UNK        -0.2414 
     61 C61        17.6641  -32.6597  -42.9845 C.3       10 UNK         0.0169 
     62 H62        16.0141  -22.3275  -47.3017 H         1 UNK         0.0903 
     63 H63        15.5476  -22.2107  -45.6039 H         1 UNK         0.0903 
     64 H64        17.0430  -21.4565  -46.1613 H         1 UNK         0.0903 
     65 H65        15.9392  -24.1016  -44.4748 H         1 UNK         0.3096 
     66 H66        17.6588  -26.1935  -45.5110 H         1 UNK         0.1121 
     67 H67        15.8741  -26.0641  -43.0295 H         1 UNK         0.0849 
     68 H68        16.7993  -27.4682  -43.4921 H         1 UNK         0.0849 
     69 H69        14.3895  -28.9204  -43.6057 H         1 UNK         0.0865 
     70 H70        13.9774  -29.2585  -45.2673 H         1 UNK         0.0865 
     71 H71        15.5715  -30.9039  -43.0508 H         1 UNK         0.1346 
     72 H72        19.1415  -31.9858  -45.1470 H         1 UNK         0.1412 
     73 H73        16.7535  -28.7188  -46.5583 H         1 UNK         0.1426 
     74 H74        19.6505  -30.9581  -47.2778 H         1 UNK         0.0716 
     75 H75        18.6127  -29.7357  -47.9657 H         1 UNK         0.0716 
     76 H76        19.8199  -29.3653  -44.2744 H         1 UNK         0.0695 
     77 H77        21.1737  -30.2873  -44.8908 H         1 UNK         0.0695 
     78 H78        22.7122  -28.4466  -44.4860 H         1 UNK         0.0983 
     79 H79        20.5751  -26.7921  -44.9402 H         1 UNK         0.3095 
     80 H80        20.8787  -24.0466  -42.8881 H         1 UNK         0.0454 
     81 H81        21.8497  -24.0474  -45.7993 H         1 UNK         0.0851 
     82 H82        21.2410  -22.6506  -44.9111 H         1 UNK         0.0851 
     83 H83        22.7472  -23.4114  -44.4273 H         1 UNK         0.0851 
     84 H84        19.4081  -24.3729  -45.2966 H         1 UNK         0.2976 
     85 H85        20.0665  -27.6303  -42.2287 H         1 UNK         0.3116 
     86 H86        20.6323  -29.5871  -40.2355 H         1 UNK         0.0646 
     87 H87        19.1510  -26.9106  -40.0451 H         1 UNK         0.0847 
     88 H88        18.4304  -28.4649  -40.4650 H         1 UNK         0.0847 
     89 H89        19.0828  -28.2042  -38.8558 H         1 UNK         0.0847 
     90 H90        22.2622  -26.6135  -40.9976 H         1 UNK         0.3040 
     91 H91        23.7356  -26.6294  -38.3899 H         1 UNK         0.1015 
     92 H92        23.6265  -24.5071  -40.6035 H         1 UNK         0.0786 
     93 H93        24.5613  -24.4034  -39.1180 H         1 UNK         0.0786 
     94 H94        22.8067  -24.4189  -39.0464 H         1 UNK         0.0786 
     95 H95        24.1235  -26.6643  -41.9590 H         1 UNK         0.3172 
     96 H96        26.9452  -26.8572  -41.9456 H         1 UNK         0.0595 
     97 H97        26.6620  -27.2980  -44.3823 H         1 UNK         0.0839 
     98 H98        25.6440  -25.9684  -43.8533 H         1 UNK         0.0839 
     99 H99        24.9387  -27.5546  -44.1526 H         1 UNK         0.0839 
    100 H100       24.4698  -29.4411  -42.2448 H         1 UNK         0.2998 
    101 H101       26.6236  -31.5305  -42.1489 H         1 UNK         0.0822 
    102 H102       25.0328  -32.9220  -43.4693 H         1 UNK         0.0787 
    103 H103       23.8862  -31.5894  -43.5357 H         1 UNK         0.0787 
    104 H104       25.4479  -31.4551  -44.3413 H         1 UNK         0.0787 
    105 H105       23.5777  -30.3745  -40.8468 H         1 UNK         0.3055 
    106 H106       22.4311  -30.7732  -39.0019 H         1 UNK         0.1106 
    107 H107       24.5951  -31.0400  -37.7570 H         1 UNK         0.0828 
    108 H108       23.2864  -31.9916  -37.0790 H         1 UNK         0.0828 
    109 H109       24.5230  -32.7804  -38.0412 H         1 UNK         0.0828 
    110 H110       22.2112  -32.3408  -41.5145 H         1 UNK         0.2931 
    111 H111       20.9157  -33.8478  -42.4567 H         1 UNK         0.0412 
    112 H112       20.7154  -37.3500  -41.0438 H         1 UNK         0.3472 
    113 H113       19.4418  -36.2201  -41.4125 H         1 UNK         0.3472 
    114 H114       18.6881  -34.4358  -41.3196 H         1 UNK         0.0970 
    115 H115       19.2515  -33.6185  -39.8948 H         1 UNK         0.0970 
    116 H116       18.1134  -33.5151  -43.4918 H         1 UNK         0.0612 
    117 H117       16.7372  -33.0168  -42.5330 H         1 UNK         0.0612 
@<TRIPOS>BOND
     1    1    2 1    
     2    1   62 1    
     3    1   63 1    
     4    1   64 1    
     5    2    3 2    
     6    2    4 am   BACKBONE|DICT|INTERRES
     7    4    5 1    
     8    4   65 1    
     9    5    6 1    
    10    5   25 1    
    11    5   66 1    
    12    6    7 1    
    13    6   67 1    
    14    6   68 1    
    15    7    8 1    
    16    8    9 1    
    17    8   69 1    
    18    8   70 1    
    19    9   10 ar   
    20    9   14 ar   
    21   10   11 ar   
    22   10   71 1    
    23   11   12 ar   
    24   11   61 1    
    25   12   13 ar   
    26   12   72 1    
    27   13   14 ar   
    28   13   15 1    
    29   14   73 1    
    30   15   16 1    
    31   15   74 1    
    32   15   75 1    
    33   16   17 1    
    34   17   18 1    
    35   17   76 1    
    36   17   77 1    
    37   18   19 1    
    38   18   27 1    
    39   18   78 1    
    40   19   20 am   BACKBONE|DICT|INTERRES
    41   19   79 1    
    42   20   21 2    
    43   20   22 1    
    44   22   23 1    
    45   22   24 1    
    46   22   80 1    
    47   23   81 1    
    48   23   82 1    
    49   23   83 1    
    50   24   25 am   BACKBONE|DICT|INTERRES
    51   24   84 1    
    52   25   26 2    
    53   27   28 2    
    54   27   29 am   BACKBONE|DICT|INTERRES
    55   29   30 1    
    56   29   85 1    
    57   30   31 1    
    58   30   32 1    
    59   30   86 1    
    60   31   87 1    
    61   31   88 1    
    62   31   89 1    
    63   32   33 2    
    64   32   34 am   BACKBONE|DICT|INTERRES
    65   34   35 1    
    66   34   90 1    
    67   35   36 1    
    68   35   37 1    
    69   35   91 1    
    70   36   92 1    
    71   36   93 1    
    72   36   94 1    
    73   37   38 2    
    74   37   39 am   BACKBONE|DICT|INTERRES
    75   39   40 1    
    76   39   95 1    
    77   40   41 1    
    78   40   42 1    
    79   40   96 1    
    80   41   97 1    
    81   41   98 1    
    82   41   99 1    
    83   42   43 2    
    84   42   44 am   BACKBONE|DICT|INTERRES
    85   44   45 1    
    86   44  100 1    
    87   45   46 1    
    88   45   47 1    
    89   45  101 1    
    90   46  102 1    
    91   46  103 1    
    92   46  104 1    
    93   47   48 2    
    94   47   49 am   BACKBONE|DICT|INTERRES
    95   49   50 1    
    96   49  105 1    
    97   50   51 1    
    98   50   52 1    
    99   50  106 1    
   100   51  107 1    
   101   51  108 1    
   102   51  109 1    
   103   52   53 2    
   104   52   54 am   BACKBONE|DICT|INTERRES
   105   54   55 1    
   106   54  110 1    
   107   55   56 1    
   108   55   59 1    
   109   55  111 1    
   110   56   57 am   BACKBONE|DICT|INTERRES
   111   56   58 2    
   112   57  112 1    
   113   57  113 1    
   114   59   60 1    
   115   59  114 1    
   116   59  115 1    
   117   60   61 1    
   118   61  116 1    
   119   61  117 1    
@<TRIPOS>SUBSTRUCTURE
     1 UNK         1 GROUP             0       ****    0 ROOT    
