@<TRIPOS>MOLECULE
3R8
117   119    1
SMALL
USER_CHARGES


@<TRIPOS>ATOM
      1 CA         18.2190  -23.9874  -48.0824 C.3       0 UNK        -0.2013 
      2 C          18.0378  -24.7729  -46.7921 C.2       0 UNK         0.4866 
      3 O          18.8075  -24.5870  -45.8498 O.2       0 UNK        -0.5176 
      4 N          17.0314  -25.6542  -46.7463 N.am      1 UNK        -0.4884 
      5 CA         16.6899  -26.4735  -45.5780 C.3       1 UNK         0.0853 
      6 C6         15.7198  -27.6240  -45.9495 C.3       10 UNK        -0.0849 
      7 S7         16.3794  -28.7165  -47.2541 S.3       10 UNK        -0.2776 
      8 C8         16.6163  -30.2839  -46.3554 C.3       10 UNK         0.0316 
      9 C9         17.6979  -30.1877  -45.2878 C.ar      10 UNK        -0.0863 
     10 C10        17.3915  -30.4283  -43.9454 C.ar      10 UNK        -0.1009 
     11 C11        18.3899  -30.3726  -42.9678 C.ar      10 UNK        -0.0712 
     12 C12        19.7037  -30.0751  -43.3399 C.ar      10 UNK        -0.0894 
     13 C13        20.0194  -29.8263  -44.6793 C.ar      10 UNK        -0.0745 
     14 C14        19.0143  -29.8879  -45.6472 C.ar      10 UNK        -0.0972 
     15 C15        21.4458  -29.5126  -45.0974 C.3       10 UNK         0.0209 
     16 S16        21.7548  -27.7193  -45.1451 S.3       10 UNK        -0.2568 
     17 C17        22.0991  -27.3627  -43.3920 C.3       10 UNK        -0.0983 
     18 CA         21.1066  -26.3615  -42.7519 C.3       3 UNK         0.0876 
     19 N          19.7198  -26.8286  -42.8239 N.am      3 UNK        -0.4424 
     20 C          18.6550  -26.0668  -42.5529 C.2       2 UNK         0.4918 
     21 O          18.7197  -24.8743  -42.2447 O.2       2 UNK        -0.4875 
     22 CA         17.2837  -26.7582  -42.6051 C.3       2 UNK         0.0481 
     23 CB         16.8394  -27.1521  -41.1877 C.3       2 UNK        -0.1831 
     24 N          16.2863  -25.8528  -43.1762 N.am      2 UNK        -0.4498 
     25 C          16.0512  -25.5968  -44.4712 C.2       1 UNK         0.5027 
     26 O          15.2736  -24.7008  -44.8053 O.2       1 UNK        -0.4969 
     27 C          21.5281  -26.1022  -41.2906 C.2       3 UNK         0.5005 
     28 O          21.1434  -26.8634  -40.3997 O.2       3 UNK        -0.5279 
     29 N          22.3693  -25.0796  -41.0852 N.am      4 UNK        -0.4463 
     30 CA         23.0303  -24.7950  -39.8045 C.3       4 UNK         0.0283 
     31 CB         23.3396  -23.2906  -39.7254 C.3       4 UNK        -0.1875 
     32 C          24.3187  -25.6189  -39.6002 C.2       4 UNK         0.4949 
     33 O          24.8351  -25.6582  -38.4838 O.2       4 UNK        -0.5039 
     34 N          24.8185  -26.2350  -40.6815 N.am      5 UNK        -0.4663 
     35 CA         26.0271  -27.0594  -40.7564 C.3       5 UNK         0.0242 
     36 CB         26.2182  -27.5672  -42.1962 C.3       5 UNK        -0.1982 
     37 C          26.1667  -28.2013  -39.7205 C.2       5 UNK         0.5017 
     38 O          27.2297  -28.2822  -39.1082 O.2       5 UNK        -0.5012 
     39 N          25.1824  -29.0854  -39.4807 N.am      6 UNK        -0.4439 
     40 CA         23.8810  -29.2659  -40.1350 C.3       6 UNK         0.0297 
     41 CB         22.8469  -29.6458  -39.0639 C.3       6 UNK        -0.2006 
     42 C          23.9052  -30.2990  -41.2768 C.2       6 UNK         0.4892 
     43 O          22.8433  -30.5900  -41.8279 O.2       6 UNK        -0.5089 
     44 N          25.0965  -30.8104  -41.6292 N.am      7 UNK        -0.4243 
     45 CA         25.3986  -31.6759  -42.7776 C.3       7 UNK         0.0196 
     46 CB         25.3911  -30.8487  -44.0829 C.3       7 UNK        -0.2007 
     47 C          24.5022  -32.9264  -42.8321 C.2       7 UNK         0.5020 
     48 O          24.7395  -33.8650  -42.0720 O.2       7 UNK        -0.5147 
     49 N          23.4726  -32.9048  -43.6906 N.am      8 UNK        -0.4734 
     50 CA         22.4545  -33.9521  -43.8353 C.3       8 UNK         0.0238 
     51 CB         21.4989  -33.5701  -44.9779 C.3       8 UNK        -0.1912 
     52 C          21.6562  -34.2392  -42.5487 C.2       8 UNK         0.5038 
     53 O          21.2168  -35.3747  -42.3619 O.2       8 UNK        -0.5046 
     54 N          21.5077  -33.2239  -41.6896 N.am      9 UNK        -0.4200 
     55 CA         20.9212  -33.3297  -40.3461 C.3       9 UNK         0.0839 
     56 C          21.9916  -33.4546  -39.2213 C.2       9 UNK         0.5513 
     57 N          23.2777  -33.5983  -39.5193 N.am      9 UNK        -0.7519 
     58 O          21.6478  -33.4402  -38.0423 O.2       9 UNK        -0.4960 
     59 C59        19.9268  -32.1705  -40.0774 C.3       10 UNK        -0.0876 
     60 S60        18.3834  -32.3483  -41.0345 S.3       10 UNK        -0.2414 
     61 C61        18.0401  -30.6276  -41.5112 C.3       10 UNK         0.0169 
     62 H62        18.1254  -22.9195  -47.8873 H         1 UNK         0.0903 
     63 H63        19.2091  -24.1728  -48.4980 H         1 UNK         0.0903 
     64 H64        17.4791  -24.2611  -48.8344 H         1 UNK         0.0903 
     65 H65        16.4236  -25.7636  -47.5454 H         1 UNK         0.3096 
     66 H66        17.6262  -26.9088  -45.2277 H         1 UNK         0.1121 
     67 H67        14.7670  -27.2234  -46.3021 H         1 UNK         0.0849 
     68 H68        15.4831  -28.2211  -45.0665 H         1 UNK         0.0849 
     69 H69        15.6642  -30.5985  -45.9249 H         1 UNK         0.0865 
     70 H70        16.8969  -31.0591  -47.0698 H         1 UNK         0.0865 
     71 H71        16.3762  -30.6671  -43.6591 H         1 UNK         0.1346 
     72 H72        20.4776  -30.0434  -42.5862 H         1 UNK         0.1412 
     73 H73        19.2557  -29.7023  -46.6852 H         1 UNK         0.1426 
     74 H74        21.6366  -29.9258  -46.0890 H         1 UNK         0.0716 
     75 H75        22.1534  -30.0008  -44.4281 H         1 UNK         0.0716 
     76 H76        23.1169  -26.9720  -43.3461 H         1 UNK         0.0695 
     77 H77        22.1125  -28.2935  -42.8259 H         1 UNK         0.0695 
     78 H78        21.1626  -25.4198  -43.3032 H         1 UNK         0.0983 
     79 H79        19.5933  -27.8008  -43.0665 H         1 UNK         0.3095 
     80 H80        17.3487  -27.6707  -43.1969 H         1 UNK         0.0454 
     81 H81        15.9081  -27.7183  -41.2066 H         1 UNK         0.0851 
     82 H82        16.6889  -26.2780  -40.5527 H         1 UNK         0.0851 
     83 H83        17.5891  -27.7746  -40.6992 H         1 UNK         0.0851 
     84 H84        15.8401  -25.2450  -42.5051 H         1 UNK         0.2976 
     85 H85        22.6190  -24.4834  -41.8627 H         1 UNK         0.3116 
     86 H86        22.3503  -25.0436  -38.9866 H         1 UNK         0.0646 
     87 H87        24.0291  -22.9758  -40.5097 H         1 UNK         0.0847 
     88 H88        23.7983  -23.0363  -38.7688 H         1 UNK         0.0847 
     89 H89        22.4320  -22.6933  -39.8147 H         1 UNK         0.0847 
     90 H90        24.3199  -26.1084  -41.5477 H         1 UNK         0.3040 
     91 H91        26.8562  -26.3784  -40.5514 H         1 UNK         0.1015 
     92 H92        25.3401  -28.0945  -42.5667 H         1 UNK         0.0786 
     93 H93        27.0665  -28.2497  -42.2665 H         1 UNK         0.0786 
     94 H94        26.4170  -26.7416  -42.8798 H         1 UNK         0.0786 
     95 H95        25.3756  -29.7699  -38.7636 H         1 UNK         0.3172 
     96 H96        23.5386  -28.3404  -40.5854 H         1 UNK         0.0595 
     97 H97        21.8415  -29.6535  -39.4835 H         1 UNK         0.0839 
     98 H98        22.8381  -28.9211  -38.2494 H         1 UNK         0.0839 
     99 H99        23.0403  -30.6308  -38.6382 H         1 UNK         0.0839 
    100 H100       25.8927  -30.5498  -41.0653 H         1 UNK         0.2998 
    101 H101       26.4156  -32.0437  -42.6317 H         1 UNK         0.0822 
    102 H102       25.5656  -31.4807  -44.9549 H         1 UNK         0.0787 
    103 H103       24.4517  -30.3189  -44.2356 H         1 UNK         0.0787 
    104 H104       26.1847  -30.1017  -44.0716 H         1 UNK         0.0787 
    105 H105       23.3454  -32.0718  -44.2453 H         1 UNK         0.3055 
    106 H106       22.9702  -34.8755  -44.1077 H         1 UNK         0.1106 
    107 H107       20.7576  -34.3531  -45.1434 H         1 UNK         0.0828 
    108 H108       20.9538  -32.6514  -44.7579 H         1 UNK         0.0828 
    109 H109       22.0337  -33.4295  -45.9173 H         1 UNK         0.0828 
    110 H110       21.9397  -32.3314  -41.9107 H         1 UNK         0.2931 
    111 H111       20.3525  -34.2588  -40.2784 H         1 UNK         0.0412 
    112 H112       23.5972  -33.6680  -40.4792 H         1 UNK         0.3472 
    113 H113       23.9419  -33.6927  -38.7678 H         1 UNK         0.3472 
    114 H114       20.4020  -31.2168  -40.3044 H         1 UNK         0.0970 
    115 H115       19.6396  -32.1257  -39.0253 H         1 UNK         0.0970 
    116 H116       16.9811  -30.4277  -41.3412 H         1 UNK         0.0612 
    117 H117       18.5820  -29.9354  -40.8659 H         1 UNK         0.0612 
@<TRIPOS>BOND
     1    1    2 1    
     2    1   62 1    
     3    1   63 1    
     4    1   64 1    
     5    2    3 2    
     6    2    4 am   BACKBONE|DICT|INTERRES
     7    4    5 1    
     8    4   65 1    
     9    5    6 1    
    10    5   25 1    
    11    5   66 1    
    12    6    7 1    
    13    6   67 1    
    14    6   68 1    
    15    7    8 1    
    16    8    9 1    
    17    8   69 1    
    18    8   70 1    
    19    9   10 ar   
    20    9   14 ar   
    21   10   11 ar   
    22   10   71 1    
    23   11   12 ar   
    24   11   61 1    
    25   12   13 ar   
    26   12   72 1    
    27   13   14 ar   
    28   13   15 1    
    29   14   73 1    
    30   15   16 1    
    31   15   74 1    
    32   15   75 1    
    33   16   17 1    
    34   17   18 1    
    35   17   76 1    
    36   17   77 1    
    37   18   19 1    
    38   18   27 1    
    39   18   78 1    
    40   19   20 am   BACKBONE|DICT|INTERRES
    41   19   79 1    
    42   20   21 2    
    43   20   22 1    
    44   22   23 1    
    45   22   24 1    
    46   22   80 1    
    47   23   81 1    
    48   23   82 1    
    49   23   83 1    
    50   24   25 am   BACKBONE|DICT|INTERRES
    51   24   84 1    
    52   25   26 2    
    53   27   28 2    
    54   27   29 am   BACKBONE|DICT|INTERRES
    55   29   30 1    
    56   29   85 1    
    57   30   31 1    
    58   30   32 1    
    59   30   86 1    
    60   31   87 1    
    61   31   88 1    
    62   31   89 1    
    63   32   33 2    
    64   32   34 am   BACKBONE|DICT|INTERRES
    65   34   35 1    
    66   34   90 1    
    67   35   36 1    
    68   35   37 1    
    69   35   91 1    
    70   36   92 1    
    71   36   93 1    
    72   36   94 1    
    73   37   38 2    
    74   37   39 am   BACKBONE|DICT|INTERRES
    75   39   40 1    
    76   39   95 1    
    77   40   41 1    
    78   40   42 1    
    79   40   96 1    
    80   41   97 1    
    81   41   98 1    
    82   41   99 1    
    83   42   43 2    
    84   42   44 am   BACKBONE|DICT|INTERRES
    85   44   45 1    
    86   44  100 1    
    87   45   46 1    
    88   45   47 1    
    89   45  101 1    
    90   46  102 1    
    91   46  103 1    
    92   46  104 1    
    93   47   48 2    
    94   47   49 am   BACKBONE|DICT|INTERRES
    95   49   50 1    
    96   49  105 1    
    97   50   51 1    
    98   50   52 1    
    99   50  106 1    
   100   51  107 1    
   101   51  108 1    
   102   51  109 1    
   103   52   53 2    
   104   52   54 am   BACKBONE|DICT|INTERRES
   105   54   55 1    
   106   54  110 1    
   107   55   56 1    
   108   55   59 1    
   109   55  111 1    
   110   56   57 am   BACKBONE|DICT|INTERRES
   111   56   58 2    
   112   57  112 1    
   113   57  113 1    
   114   59   60 1    
   115   59  114 1    
   116   59  115 1    
   117   60   61 1    
   118   61  116 1    
   119   61  117 1    
@<TRIPOS>SUBSTRUCTURE
     1 UNK         1 GROUP             0       ****    0 ROOT    
