@<TRIPOS>MOLECULE
3R8
117   119    1
SMALL
USER_CHARGES


@<TRIPOS>ATOM
      1 CA         13.5402  -28.6593  -42.6189 C.3       0 UNK        -0.2013 
      2 C          14.8224  -28.1074  -43.2225 C.2       0 UNK         0.4866 
      3 O          15.8960  -28.6534  -42.9705 O.2       0 UNK        -0.5176 
      4 N          14.7157  -27.0239  -44.0057 N.am      1 UNK        -0.4884 
      5 CA         15.7759  -26.3155  -44.7476 C.3       1 UNK         0.0853 
      6 C6         16.5628  -27.2049  -45.7396 C.3       10 UNK        -0.0849 
      7 S7         15.5315  -28.1174  -46.9475 S.3       10 UNK        -0.2776 
      8 C8         15.8776  -29.8796  -46.5634 C.3       10 UNK         0.0316 
      9 C9         17.3416  -30.1799  -46.2416 C.ar      10 UNK        -0.0863 
     10 C10        17.6590  -30.9995  -45.1539 C.ar      10 UNK        -0.1009 
     11 C11        18.9881  -31.1742  -44.7531 C.ar      10 UNK        -0.0712 
     12 C12        20.0074  -30.5303  -45.4590 C.ar      10 UNK        -0.0894 
     13 C13        19.7018  -29.7008  -46.5423 C.ar      10 UNK        -0.0745 
     14 C14        18.3761  -29.5694  -46.9580 C.ar      10 UNK        -0.0972 
     15 C15        20.7801  -28.8722  -47.2204 C.3       10 UNK         0.0209 
     16 S16        20.8260  -27.1866  -46.5198 S.3       10 UNK        -0.2568 
     17 C17        21.7806  -27.4870  -45.0002 C.3       10 UNK        -0.0983 
     18 CA         21.5510  -26.4438  -43.8764 C.3       3 UNK         0.0876 
     19 N          20.1839  -26.4610  -43.3414 N.am      3 UNK        -0.4424 
     20 C          19.6813  -25.5173  -42.5296 C.2       2 UNK         0.4918 
     21 O          20.2575  -24.4538  -42.2905 O.2       2 UNK        -0.4875 
     22 CA         18.3225  -25.8217  -41.8667 C.3       2 UNK         0.0481 
     23 CB         17.8029  -24.6648  -40.9869 C.3       2 UNK        -0.1831 
     24 N          17.3027  -26.2522  -42.8251 N.am      2 UNK        -0.4498 
     25 C          16.7781  -25.5610  -43.8462 C.2       1 UNK         0.5027 
     26 O          17.0600  -24.3908  -44.1071 O.2       1 UNK        -0.4969 
     27 C          22.5448  -26.7088  -42.7280 C.2       3 UNK         0.5005 
     28 O          22.7950  -27.8717  -42.4102 O.2       3 UNK        -0.5279 
     29 N          23.1042  -25.6447  -42.1354 N.am      4 UNK        -0.4463 
     30 CA         24.0429  -25.7064  -41.0057 C.3       4 UNK         0.0283 
     31 CB         24.3620  -24.2775  -40.5373 C.3       4 UNK        -0.1875 
     32 C          25.3449  -26.4828  -41.2887 C.2       4 UNK         0.4949 
     33 O          25.9895  -26.9446  -40.3472 O.2       4 UNK        -0.5039 
     34 N          25.7043  -26.6174  -42.5723 N.am      5 UNK        -0.4663 
     35 CA         26.8332  -27.4169  -43.0480 C.3       5 UNK         0.0242 
     36 CB         27.1863  -26.9741  -44.4776 C.3       5 UNK        -0.1982 
     37 C          26.5778  -28.9362  -43.0057 C.2       5 UNK         0.5017 
     38 O          27.5485  -29.6944  -43.0304 O.2       5 UNK        -0.5012 
     39 N          25.3071  -29.3643  -42.9605 N.am      6 UNK        -0.4439 
     40 CA         24.9209  -30.7707  -42.8654 C.3       6 UNK         0.0297 
     41 CB         23.5899  -30.9887  -43.6053 C.3       6 UNK        -0.2006 
     42 C          24.7824  -31.1482  -41.3876 C.2       6 UNK         0.4892 
     43 O          24.0803  -30.4550  -40.6513 O.2       6 UNK        -0.5089 
     44 N          25.4061  -32.2610  -40.9805 N.am      7 UNK        -0.4243 
     45 CA         25.3982  -32.7571  -39.5969 C.3       7 UNK         0.0196 
     46 CB         26.3221  -33.9815  -39.4929 C.3       7 UNK        -0.2007 
     47 C          23.9971  -33.0931  -39.0498 C.2       7 UNK         0.5020 
     48 O          23.7888  -33.0272  -37.8382 O.2       7 UNK        -0.5147 
     49 N          23.0662  -33.4396  -39.9475 N.am      8 UNK        -0.4734 
     50 CA         21.6736  -33.7432  -39.6223 C.3       8 UNK         0.0238 
     51 CB         21.0928  -34.6436  -40.7262 C.3       8 UNK        -0.1912 
     52 C          20.7880  -32.4968  -39.4422 C.2       8 UNK         0.5038 
     53 O          19.7509  -32.6170  -38.7877 O.2       8 UNK        -0.5046 
     54 N          21.1685  -31.3566  -40.0400 N.am      9 UNK        -0.4200 
     55 CA         20.3184  -30.1545  -40.1513 C.3       9 UNK         0.0839 
     56 C          20.9742  -28.8450  -39.6320 C.2       9 UNK         0.5513 
     57 N          22.2542  -28.8150  -39.2909 N.am      9 UNK        -0.7519 
     58 O          20.2880  -27.8359  -39.4935 O.2       9 UNK        -0.4960 
     59 C59        19.7326  -29.9876  -41.5822 C.3       10 UNK        -0.0876 
     60 S60        18.5888  -31.3470  -42.0133 S.3       10 UNK        -0.2414 
     61 C61        19.3139  -32.0316  -43.5376 C.3       10 UNK         0.0169 
     62 H62        12.6646  -28.0857  -42.9221 H         1 UNK         0.0903 
     63 H63        13.5997  -28.6397  -41.5310 H         1 UNK         0.0903 
     64 H64        13.3946  -29.6923  -42.9335 H         1 UNK         0.0903 
     65 H65        13.7952  -26.6258  -44.1339 H         1 UNK         0.3096 
     66 H66        15.2599  -25.5536  -45.3349 H         1 UNK         0.1121 
     67 H67        17.2608  -26.5953  -46.3175 H         1 UNK         0.0849 
     68 H68        17.1864  -27.8941  -45.1723 H         1 UNK         0.0849 
     69 H69        15.2444  -30.1662  -45.7221 H         1 UNK         0.0865 
     70 H70        15.5657  -30.4956  -47.4075 H         1 UNK         0.0865 
     71 H71        16.8684  -31.4666  -44.5822 H         1 UNK         0.1346 
     72 H72        21.0340  -30.6451  -45.1417 H         1 UNK         0.1412 
     73 H73        18.1426  -28.9140  -47.7860 H         1 UNK         0.1426 
     74 H74        21.7580  -29.3464  -47.1216 H         1 UNK         0.0716 
     75 H75        20.5769  -28.8069  -48.2904 H         1 UNK         0.0716 
     76 H76        22.8333  -27.5094  -45.2903 H         1 UNK         0.0695 
     77 H77        21.5539  -28.4839  -44.6257 H         1 UNK         0.0695 
     78 H78        21.7511  -25.4528  -44.2897 H         1 UNK         0.0983 
     79 H79        19.6481  -27.2980  -43.5133 H         1 UNK         0.3095 
     80 H80        18.4903  -26.6745  -41.2086 H         1 UNK         0.0454 
     81 H81        16.8590  -24.9237  -40.5077 H         1 UNK         0.0851 
     82 H82        17.6490  -23.7514  -41.5619 H         1 UNK         0.0851 
     83 H83        18.5144  -24.4317  -40.1938 H         1 UNK         0.0851 
     84 H84        16.9675  -27.2102  -42.7248 H         1 UNK         0.2976 
     85 H85        22.8040  -24.7231  -42.4238 H         1 UNK         0.3116 
     86 H86        23.5333  -26.2254  -40.1916 H         1 UNK         0.0646 
     87 H87        23.4592  -23.7470  -40.2342 H         1 UNK         0.0847 
     88 H88        25.0318  -24.2890  -39.6761 H         1 UNK         0.0847 
     89 H89        24.8493  -23.6953  -41.3204 H         1 UNK         0.0847 
     90 H90        25.1199  -26.1888  -43.2747 H         1 UNK         0.3040 
     91 H91        27.6929  -27.2158  -42.4045 H         1 UNK         0.1015 
     92 H92        26.3610  -27.1464  -45.1697 H         1 UNK         0.0786 
     93 H93        28.0485  -27.5257  -44.8555 H         1 UNK         0.0786 
     94 H94        27.4417  -25.9148  -44.5141 H         1 UNK         0.0786 
     95 H95        24.5572  -28.6922  -42.8195 H         1 UNK         0.3172 
     96 H96        25.6783  -31.4008  -43.3367 H         1 UNK         0.0595 
     97 H97        23.2996  -32.0398  -43.5875 H         1 UNK         0.0839 
     98 H98        23.6652  -30.6899  -44.6509 H         1 UNK         0.0839 
     99 H99        22.7776  -30.4191  -43.1537 H         1 UNK         0.0839 
    100 H100       25.9569  -32.7836  -41.6470 H         1 UNK         0.2998 
    101 H101       25.8064  -31.9657  -38.9646 H         1 UNK         0.0822 
    102 H102       27.3443  -33.7342  -39.7804 H         1 UNK         0.0787 
    103 H103       26.3584  -34.3575  -38.4693 H         1 UNK         0.0787 
    104 H104       25.9813  -34.7998  -40.1285 H         1 UNK         0.0787 
    105 H105       23.3325  -33.4805  -40.9203 H         1 UNK         0.3055 
    106 H106       21.6456  -34.2986  -38.6816 H         1 UNK         0.1106 
    107 H107       21.6574  -35.5712  -40.8215 H         1 UNK         0.0828 
    108 H108       20.0602  -34.9169  -40.5038 H         1 UNK         0.0828 
    109 H109       21.0935  -34.1461  -41.6968 H         1 UNK         0.0828 
    110 H110       22.0791  -31.3012  -40.4774 H         1 UNK         0.2931 
    111 H111       19.4633  -30.2739  -39.4834 H         1 UNK         0.0412 
    112 H112       22.6384  -27.9564  -38.9355 H         1 UNK         0.3472 
    113 H113       22.8822  -29.5659  -39.5628 H         1 UNK         0.3472 
    114 H114       19.1629  -29.0604  -41.6607 H         1 UNK         0.0970 
    115 H115       20.5339  -29.9123  -42.3186 H         1 UNK         0.0970 
    116 H116       20.3908  -32.1497  -43.4077 H         1 UNK         0.0612 
    117 H117       18.9112  -33.0327  -43.6960 H         1 UNK         0.0612 
@<TRIPOS>BOND
     1    1    2 1    
     2    1   62 1    
     3    1   63 1    
     4    1   64 1    
     5    2    3 2    
     6    2    4 am   BACKBONE|DICT|INTERRES
     7    4    5 1    
     8    4   65 1    
     9    5    6 1    
    10    5   25 1    
    11    5   66 1    
    12    6    7 1    
    13    6   67 1    
    14    6   68 1    
    15    7    8 1    
    16    8    9 1    
    17    8   69 1    
    18    8   70 1    
    19    9   10 ar   
    20    9   14 ar   
    21   10   11 ar   
    22   10   71 1    
    23   11   12 ar   
    24   11   61 1    
    25   12   13 ar   
    26   12   72 1    
    27   13   14 ar   
    28   13   15 1    
    29   14   73 1    
    30   15   16 1    
    31   15   74 1    
    32   15   75 1    
    33   16   17 1    
    34   17   18 1    
    35   17   76 1    
    36   17   77 1    
    37   18   19 1    
    38   18   27 1    
    39   18   78 1    
    40   19   20 am   BACKBONE|DICT|INTERRES
    41   19   79 1    
    42   20   21 2    
    43   20   22 1    
    44   22   23 1    
    45   22   24 1    
    46   22   80 1    
    47   23   81 1    
    48   23   82 1    
    49   23   83 1    
    50   24   25 am   BACKBONE|DICT|INTERRES
    51   24   84 1    
    52   25   26 2    
    53   27   28 2    
    54   27   29 am   BACKBONE|DICT|INTERRES
    55   29   30 1    
    56   29   85 1    
    57   30   31 1    
    58   30   32 1    
    59   30   86 1    
    60   31   87 1    
    61   31   88 1    
    62   31   89 1    
    63   32   33 2    
    64   32   34 am   BACKBONE|DICT|INTERRES
    65   34   35 1    
    66   34   90 1    
    67   35   36 1    
    68   35   37 1    
    69   35   91 1    
    70   36   92 1    
    71   36   93 1    
    72   36   94 1    
    73   37   38 2    
    74   37   39 am   BACKBONE|DICT|INTERRES
    75   39   40 1    
    76   39   95 1    
    77   40   41 1    
    78   40   42 1    
    79   40   96 1    
    80   41   97 1    
    81   41   98 1    
    82   41   99 1    
    83   42   43 2    
    84   42   44 am   BACKBONE|DICT|INTERRES
    85   44   45 1    
    86   44  100 1    
    87   45   46 1    
    88   45   47 1    
    89   45  101 1    
    90   46  102 1    
    91   46  103 1    
    92   46  104 1    
    93   47   48 2    
    94   47   49 am   BACKBONE|DICT|INTERRES
    95   49   50 1    
    96   49  105 1    
    97   50   51 1    
    98   50   52 1    
    99   50  106 1    
   100   51  107 1    
   101   51  108 1    
   102   51  109 1    
   103   52   53 2    
   104   52   54 am   BACKBONE|DICT|INTERRES
   105   54   55 1    
   106   54  110 1    
   107   55   56 1    
   108   55   59 1    
   109   55  111 1    
   110   56   57 am   BACKBONE|DICT|INTERRES
   111   56   58 2    
   112   57  112 1    
   113   57  113 1    
   114   59   60 1    
   115   59  114 1    
   116   59  115 1    
   117   60   61 1    
   118   61  116 1    
   119   61  117 1    
@<TRIPOS>SUBSTRUCTURE
     1 UNK         1 GROUP             0       ****    0 ROOT    
