@<TRIPOS>MOLECULE
3R8
117   119    1
SMALL
USER_CHARGES


@<TRIPOS>ATOM
      1 CA         13.2284  -25.4081  -47.0483 C.3       0 UNK        -0.2013 
      2 C          14.3616  -25.7381  -46.0885 C.2       0 UNK         0.4866 
      3 O          15.3644  -25.0246  -46.0573 O.2       0 UNK        -0.5176 
      4 N          14.2158  -26.8215  -45.3158 N.am      1 UNK        -0.4884 
      5 CA         15.1796  -27.2556  -44.2970 C.3       1 UNK         0.0853 
      6 C6         14.9842  -28.7533  -43.9398 C.3       10 UNK        -0.0849 
      7 S7         15.1380  -29.9792  -45.2934 S.3       10 UNK        -0.2776 
      8 C8         16.1597  -29.2066  -46.6002 C.3       10 UNK         0.0316 
      9 C9         17.5793  -28.8491  -46.1673 C.ar      10 UNK        -0.0863 
     10 C10        18.3494  -29.7343  -45.4049 C.ar      10 UNK        -0.1009 
     11 C11        19.6567  -29.4036  -45.0397 C.ar      10 UNK        -0.0712 
     12 C12        20.2063  -28.1924  -45.4659 C.ar      10 UNK        -0.0894 
     13 C13        19.4487  -27.2933  -46.2222 C.ar      10 UNK        -0.0745 
     14 C14        18.1360  -27.6287  -46.5675 C.ar      10 UNK        -0.0972 
     15 C15        20.0531  -25.9776  -46.6994 C.3       10 UNK         0.0209 
     16 S16        19.9281  -24.6491  -45.4546 S.3       10 UNK        -0.2568 
     17 C17        21.2891  -25.0813  -44.3145 C.3       10 UNK        -0.0983 
     18 CA         20.8538  -25.3840  -42.8519 C.3       3 UNK         0.0876 
     19 N          19.6686  -26.2381  -42.7571 N.am      3 UNK        -0.4424 
     20 C          18.4754  -25.8433  -42.3055 C.2       2 UNK         0.4918 
     21 O          18.2183  -24.6915  -41.9446 O.2       2 UNK        -0.4875 
     22 CA         17.3967  -26.9305  -42.2044 C.3       2 UNK         0.0481 
     23 CB         17.5887  -27.7405  -40.9105 C.3       2 UNK        -0.1831 
     24 N          16.0725  -26.3048  -42.1536 N.am      2 UNK        -0.4498 
     25 C          15.0603  -26.3753  -43.0283 C.2       1 UNK         0.5027 
     26 O          14.0087  -25.7673  -42.8165 O.2       1 UNK        -0.4969 
     27 C          21.9941  -26.1044  -42.1162 C.2       3 UNK         0.5005 
     28 O          22.0017  -27.3374  -42.0681 O.2       3 UNK        -0.5279 
     29 N          22.9896  -25.3515  -41.6307 N.am      4 UNK        -0.4463 
     30 CA         24.2109  -25.8768  -41.0030 C.3       4 UNK         0.0283 
     31 CB         24.8266  -24.7819  -40.1115 C.3       4 UNK        -0.1875 
     32 C          25.2158  -26.4350  -42.0371 C.2       4 UNK         0.4949 
     33 O          26.3971  -26.0875  -42.0049 O.2       4 UNK        -0.5039 
     34 N          24.7203  -27.2718  -42.9564 N.am      5 UNK        -0.4663 
     35 CA         25.4809  -27.8802  -44.0492 C.3       5 UNK         0.0242 
     36 CB         24.5043  -28.3152  -45.1546 C.3       5 UNK        -0.1982 
     37 C          26.3366  -29.0698  -43.5864 C.2       5 UNK         0.5017 
     38 O          27.4078  -29.2984  -44.1494 O.2       5 UNK        -0.5012 
     39 N          25.8520  -29.7991  -42.5757 N.am      6 UNK        -0.4439 
     40 CA         26.4850  -30.9603  -41.9610 C.3       6 UNK         0.0297 
     41 CB         26.3911  -32.1832  -42.8952 C.3       6 UNK        -0.2006 
     42 C          25.7647  -31.2434  -40.6408 C.2       6 UNK         0.4892 
     43 O          24.5939  -30.8796  -40.4992 O.2       6 UNK        -0.5089 
     44 N          26.4514  -31.9347  -39.7209 N.am      7 UNK        -0.4243 
     45 CA         25.9158  -32.3579  -38.4196 C.3       7 UNK         0.0196 
     46 CB         27.0385  -32.9998  -37.5891 C.3       7 UNK        -0.2007 
     47 C          24.7125  -33.3128  -38.5272 C.2       7 UNK         0.5020 
     48 O          23.8455  -33.2978  -37.6535 O.2       7 UNK        -0.5147 
     49 N          24.6520  -34.0859  -39.6214 N.am      8 UNK        -0.4734 
     50 CA         23.5346  -34.9655  -39.9812 C.3       8 UNK         0.0238 
     51 CB         23.9357  -35.8085  -41.2029 C.3       8 UNK        -0.1912 
     52 C          22.2110  -34.2227  -40.2520 C.2       8 UNK         0.5038 
     53 O          21.1523  -34.8467  -40.1697 O.2       8 UNK        -0.5046 
     54 N          22.2868  -32.9188  -40.5545 N.am      9 UNK        -0.4200 
     55 CA         21.1320  -32.0185  -40.6728 C.3       9 UNK         0.0839 
     56 C          20.5157  -31.6049  -39.2998 C.2       9 UNK         0.5513 
     57 N          21.1581  -31.8716  -38.1668 N.am      9 UNK        -0.7519 
     58 O          19.4217  -31.0496  -39.2544 O.2       9 UNK        -0.4960 
     59 C59        21.4870  -30.7907  -41.5543 C.3       10 UNK        -0.0876 
     60 S60        20.0430  -30.0886  -42.4203 S.3       10 UNK        -0.2414 
     61 C61        20.4724  -30.3415  -44.1666 C.3       10 UNK         0.0169 
     62 H62        13.5965  -25.3969  -48.0739 H         1 UNK         0.0903 
     63 H63        12.4174  -26.1337  -46.9873 H         1 UNK         0.0903 
     64 H64        12.8203  -24.4235  -46.8216 H         1 UNK         0.0903 
     65 H65        13.3615  -27.3581  -45.3635 H         1 UNK         0.3096 
     66 H66        16.1764  -27.0972  -44.7036 H         1 UNK         0.1121 
     67 H67        15.6997  -29.0559  -43.1740 H         1 UNK         0.0849 
     68 H68        14.0018  -28.8997  -43.4864 H         1 UNK         0.0849 
     69 H69        16.2331  -29.9122  -47.4287 H         1 UNK         0.0865 
     70 H70        15.6411  -28.3376  -47.0040 H         1 UNK         0.0865 
     71 H71        17.9299  -30.6781  -45.0844 H         1 UNK         0.1346 
     72 H72        21.2247  -27.9535  -45.1981 H         1 UNK         0.1412 
     73 H73        17.5492  -26.9377  -47.1584 H         1 UNK         0.1426 
     74 H74        21.0960  -26.1224  -46.9851 H         1 UNK         0.0716 
     75 H75        19.5422  -25.6460  -47.6047 H         1 UNK         0.0716 
     76 H76        21.8547  -25.9096  -44.7406 H         1 UNK         0.0695 
     77 H77        21.9861  -24.2416  -44.3148 H         1 UNK         0.0695 
     78 H78        20.6714  -24.4374  -42.3385 H         1 UNK         0.0983 
     79 H79        19.8384  -27.2175  -42.9482 H         1 UNK         0.3095 
     80 H80        17.5121  -27.6015  -43.0551 H         1 UNK         0.0454 
     81 H81        16.8948  -28.5796  -40.8615 H         1 UNK         0.0851 
     82 H82        18.5954  -28.1522  -40.8399 H         1 UNK         0.0851 
     83 H83        17.4344  -27.1270  -40.0221 H         1 UNK         0.0851 
     84 H84        15.9628  -25.6586  -41.3847 H         1 UNK         0.2976 
     85 H85        22.9461  -24.3491  -41.7510 H         1 UNK         0.3116 
     86 H86        23.9348  -26.7102  -40.3530 H         1 UNK         0.0646 
     87 H87        25.7016  -25.1567  -39.5787 H         1 UNK         0.0847 
     88 H88        24.1179  -24.4366  -39.3586 H         1 UNK         0.0847 
     89 H89        25.1461  -23.9176  -40.6950 H         1 UNK         0.0847 
     90 H90        23.7346  -27.5090  -42.8774 H         1 UNK         0.3040 
     91 H91        26.1571  -27.1289  -44.4637 H         1 UNK         0.1015 
     92 H92        23.9409  -27.4664  -45.5428 H         1 UNK         0.0786 
     93 H93        23.7900  -29.0567  -44.7946 H         1 UNK         0.0786 
     94 H94        25.0395  -28.7591  -45.9953 H         1 UNK         0.0786 
     95 H95        24.9784  -29.5289  -42.1393 H         1 UNK         0.3172 
     96 H96        27.5311  -30.7269  -41.7521 H         1 UNK         0.0595 
     97 H97        25.3549  -32.4316  -43.1292 H         1 UNK         0.0839 
     98 H98        26.8442  -33.0643  -42.4396 H         1 UNK         0.0839 
     99 H99        26.9120  -32.0099  -43.8369 H         1 UNK         0.0839 
    100 H100       27.4057  -32.1979  -39.9237 H         1 UNK         0.2998 
    101 H101       25.5714  -31.4623  -37.8977 H         1 UNK         0.0822 
    102 H102       27.8603  -32.3024  -37.4253 H         1 UNK         0.0787 
    103 H103       26.6727  -33.3022  -36.6067 H         1 UNK         0.0787 
    104 H104       27.4426  -33.8894  -38.0741 H         1 UNK         0.0787 
    105 H105       25.4162  -34.0325  -40.2788 H         1 UNK         0.3055 
    106 H106       23.3561  -35.6383  -39.1393 H         1 UNK         0.1106 
    107 H107       23.1367  -36.4973  -41.4815 H         1 UNK         0.0828 
    108 H108       24.1456  -35.1851  -42.0731 H         1 UNK         0.0828 
    109 H109       24.8209  -36.4108  -40.9978 H         1 UNK         0.0828 
    110 H110       23.1942  -32.4685  -40.5601 H         1 UNK         0.2931 
    111 H111       20.3554  -32.5814  -41.1947 H         1 UNK         0.0412 
    112 H112       20.7361  -31.6030  -37.2921 H         1 UNK         0.3472 
    113 H113       22.0532  -32.3455  -38.1661 H         1 UNK         0.3472 
    114 H114       22.2315  -31.0697  -42.3011 H         1 UNK         0.0970 
    115 H115       21.9589  -30.0039  -40.9619 H         1 UNK         0.0970 
    116 H116       21.5370  -30.1586  -44.3187 H         1 UNK         0.0612 
    117 H117       20.2878  -31.3808  -44.4423 H         1 UNK         0.0612 
@<TRIPOS>BOND
     1    1    2 1    
     2    1   62 1    
     3    1   63 1    
     4    1   64 1    
     5    2    3 2    
     6    2    4 am   BACKBONE|DICT|INTERRES
     7    4    5 1    
     8    4   65 1    
     9    5    6 1    
    10    5   25 1    
    11    5   66 1    
    12    6    7 1    
    13    6   67 1    
    14    6   68 1    
    15    7    8 1    
    16    8    9 1    
    17    8   69 1    
    18    8   70 1    
    19    9   10 ar   
    20    9   14 ar   
    21   10   11 ar   
    22   10   71 1    
    23   11   12 ar   
    24   11   61 1    
    25   12   13 ar   
    26   12   72 1    
    27   13   14 ar   
    28   13   15 1    
    29   14   73 1    
    30   15   16 1    
    31   15   74 1    
    32   15   75 1    
    33   16   17 1    
    34   17   18 1    
    35   17   76 1    
    36   17   77 1    
    37   18   19 1    
    38   18   27 1    
    39   18   78 1    
    40   19   20 am   BACKBONE|DICT|INTERRES
    41   19   79 1    
    42   20   21 2    
    43   20   22 1    
    44   22   23 1    
    45   22   24 1    
    46   22   80 1    
    47   23   81 1    
    48   23   82 1    
    49   23   83 1    
    50   24   25 am   BACKBONE|DICT|INTERRES
    51   24   84 1    
    52   25   26 2    
    53   27   28 2    
    54   27   29 am   BACKBONE|DICT|INTERRES
    55   29   30 1    
    56   29   85 1    
    57   30   31 1    
    58   30   32 1    
    59   30   86 1    
    60   31   87 1    
    61   31   88 1    
    62   31   89 1    
    63   32   33 2    
    64   32   34 am   BACKBONE|DICT|INTERRES
    65   34   35 1    
    66   34   90 1    
    67   35   36 1    
    68   35   37 1    
    69   35   91 1    
    70   36   92 1    
    71   36   93 1    
    72   36   94 1    
    73   37   38 2    
    74   37   39 am   BACKBONE|DICT|INTERRES
    75   39   40 1    
    76   39   95 1    
    77   40   41 1    
    78   40   42 1    
    79   40   96 1    
    80   41   97 1    
    81   41   98 1    
    82   41   99 1    
    83   42   43 2    
    84   42   44 am   BACKBONE|DICT|INTERRES
    85   44   45 1    
    86   44  100 1    
    87   45   46 1    
    88   45   47 1    
    89   45  101 1    
    90   46  102 1    
    91   46  103 1    
    92   46  104 1    
    93   47   48 2    
    94   47   49 am   BACKBONE|DICT|INTERRES
    95   49   50 1    
    96   49  105 1    
    97   50   51 1    
    98   50   52 1    
    99   50  106 1    
   100   51  107 1    
   101   51  108 1    
   102   51  109 1    
   103   52   53 2    
   104   52   54 am   BACKBONE|DICT|INTERRES
   105   54   55 1    
   106   54  110 1    
   107   55   56 1    
   108   55   59 1    
   109   55  111 1    
   110   56   57 am   BACKBONE|DICT|INTERRES
   111   56   58 2    
   112   57  112 1    
   113   57  113 1    
   114   59   60 1    
   115   59  114 1    
   116   59  115 1    
   117   60   61 1    
   118   61  116 1    
   119   61  117 1    
@<TRIPOS>SUBSTRUCTURE
     1 UNK         1 GROUP             0       ****    0 ROOT    
