@<TRIPOS>MOLECULE
3R8
117   119    1
SMALL
USER_CHARGES


@<TRIPOS>ATOM
      1 CA         14.5767  -22.7795  -42.9270 C.3       0 UNK        -0.2013 
      2 C          15.3176  -23.6255  -43.9517 C.2       0 UNK         0.4866 
      3 O          15.3314  -23.2805  -45.1334 O.2       0 UNK        -0.5176 
      4 N          15.9280  -24.7329  -43.5082 N.am      1 UNK        -0.4884 
      5 CA         16.6956  -25.6641  -44.3452 C.3       1 UNK         0.0853 
      6 C6         17.0341  -26.9719  -43.5790 C.3       10 UNK        -0.0849 
      7 S7         15.7255  -28.2287  -43.7627 S.3       10 UNK        -0.2776 
      8 C8         16.5243  -29.7368  -43.0911 C.3       10 UNK         0.0316 
      9 C9         17.8564  -30.1256  -43.7394 C.ar      10 UNK        -0.0863 
     10 C10        18.8229  -30.7852  -42.9705 C.ar      10 UNK        -0.1009 
     11 C11        20.0695  -31.1099  -43.5156 C.ar      10 UNK        -0.0712 
     12 C12        20.3531  -30.7701  -44.8391 C.ar      10 UNK        -0.0894 
     13 C13        19.3962  -30.1244  -45.6220 C.ar      10 UNK        -0.0745 
     14 C14        18.1427  -29.8311  -45.0786 C.ar      10 UNK        -0.0972 
     15 C15        19.7205  -29.7165  -47.0474 C.3       10 UNK         0.0209 
     16 S16        20.0318  -27.9279  -47.1603 S.3       10 UNK        -0.2568 
     17 C17        21.7432  -27.7558  -46.5395 C.3       10 UNK        -0.0983 
     18 CA         21.9232  -26.8907  -45.2576 C.3       3 UNK         0.0876 
     19 N          21.0135  -25.7357  -45.1897 N.am      3 UNK        -0.4424 
     20 C          21.1651  -24.6706  -44.3895 C.2       2 UNK         0.4918 
     21 O          22.1375  -24.5205  -43.6502 O.2       2 UNK        -0.4875 
     22 CA         20.0174  -23.6429  -44.3353 C.3       2 UNK         0.0481 
     23 CB         20.0275  -22.7168  -45.5669 C.3       2 UNK        -0.1831 
     24 N          18.6949  -24.2466  -44.0964 N.am      2 UNK        -0.4498 
     25 C          17.9798  -25.0308  -44.9183 C.2       1 UNK         0.5027 
     26 O          18.3162  -25.2972  -46.0711 O.2       1 UNK        -0.4969 
     27 C          21.9692  -27.7207  -43.9523 C.2       3 UNK         0.5005 
     28 O          22.9308  -28.4618  -43.7462 O.2       3 UNK        -0.5279 
     29 N          21.0092  -27.5023  -43.0399 N.am      4 UNK        -0.4463 
     30 CA         21.0165  -27.9902  -41.6547 C.3       4 UNK         0.0283 
     31 CB         19.6511  -27.7029  -41.0105 C.3       4 UNK        -0.1875 
     32 C          22.1592  -27.4258  -40.7821 C.2       4 UNK         0.4949 
     33 O          22.3616  -27.9124  -39.6707 O.2       4 UNK        -0.5039 
     34 N          22.8938  -26.4196  -41.2773 N.am      5 UNK        -0.4663 
     35 CA         24.1381  -25.9444  -40.6717 C.3       5 UNK         0.0242 
     36 CB         24.4253  -24.5195  -41.1717 C.3       5 UNK        -0.1982 
     37 C          25.3391  -26.8655  -40.9657 C.2       5 UNK         0.5017 
     38 O          26.3190  -26.8099  -40.2217 O.2       5 UNK        -0.5012 
     39 N          25.2719  -27.6668  -42.0417 N.am      6 UNK        -0.4439 
     40 CA         26.3787  -28.5109  -42.5038 C.3       6 UNK         0.0297 
     41 CB         26.2796  -28.6945  -44.0273 C.3       6 UNK        -0.2006 
     42 C          26.4337  -29.8803  -41.8069 C.2       6 UNK         0.4892 
     43 O          27.5216  -30.4462  -41.6904 O.2       6 UNK        -0.5089 
     44 N          25.2801  -30.3953  -41.3686 N.am      7 UNK        -0.4243 
     45 CA         25.1160  -31.6917  -40.7141 C.3       7 UNK         0.0196 
     46 CB         25.1588  -32.8215  -41.7621 C.3       7 UNK        -0.2007 
     47 C          23.7786  -31.6935  -39.9681 C.2       7 UNK         0.5020 
     48 O          22.9329  -30.8431  -40.2427 O.2       7 UNK        -0.5147 
     49 N          23.5965  -32.6513  -39.0509 N.am      8 UNK        -0.4734 
     50 CA         22.3470  -32.8222  -38.3001 C.3       8 UNK         0.0238 
     51 CB         22.6143  -33.6605  -37.0390 C.3       8 UNK        -0.1912 
     52 C          21.2236  -33.4539  -39.1415 C.2       8 UNK         0.5038 
     53 O          20.0645  -33.0709  -38.9807 O.2       8 UNK        -0.5046 
     54 N          21.5913  -34.4073  -40.0105 N.am      9 UNK        -0.4200 
     55 CA         20.6980  -35.1743  -40.9016 C.3       9 UNK         0.0839 
     56 C          19.6504  -36.0686  -40.1679 C.2       9 UNK         0.5513 
     57 N          19.8625  -36.4310  -38.9082 N.am      9 UNK        -0.7519 
     58 O          18.6471  -36.4702  -40.7524 O.2       9 UNK        -0.4960 
     59 C59        20.0703  -34.3069  -42.0316 C.3       10 UNK        -0.0876 
     60 S60        21.3438  -33.5334  -43.0852 S.3       10 UNK        -0.2414 
     61 C61        21.1405  -31.7762  -42.6697 C.3       10 UNK         0.0169 
     62 H62        14.9950  -21.7737  -42.8983 H         1 UNK         0.0903 
     63 H63        13.5234  -22.7028  -43.1954 H         1 UNK         0.0903 
     64 H64        14.6408  -23.2020  -41.9245 H         1 UNK         0.0903 
     65 H65        15.8529  -24.9774  -42.5307 H         1 UNK         0.3096 
     66 H66        16.0787  -25.9116  -45.2128 H         1 UNK         0.1121 
     67 H67        17.1932  -26.7761  -42.5178 H         1 UNK         0.0849 
     68 H68        17.9657  -27.4099  -43.9392 H         1 UNK         0.0849 
     69 H69        16.6625  -29.5928  -42.0184 H         1 UNK         0.0865 
     70 H70        15.8322  -30.5726  -43.2000 H         1 UNK         0.0865 
     71 H71        18.6152  -31.0273  -41.9370 H         1 UNK         0.1346 
     72 H72        21.3273  -30.9960  -45.2510 H         1 UNK         0.1412 
     73 H73        17.4086  -29.3300  -45.6941 H         1 UNK         0.1426 
     74 H74        20.5777  -30.2697  -47.4344 H         1 UNK         0.0716 
     75 H75        18.8781  -29.9679  -47.6933 H         1 UNK         0.0716 
     76 H76        22.1978  -28.7413  -46.4211 H         1 UNK         0.0695 
     77 H77        22.3053  -27.2877  -47.3489 H         1 UNK         0.0695 
     78 H78        22.9283  -26.4676  -45.3269 H         1 UNK         0.0983 
     79 H79        20.1737  -25.7918  -45.7610 H         1 UNK         0.3095 
     80 H80        20.2054  -23.0138  -43.4637 H         1 UNK         0.0454 
     81 H81        19.8967  -23.2648  -46.5001 H         1 UNK         0.0851 
     82 H82        19.2380  -21.9680  -45.5054 H         1 UNK         0.0851 
     83 H83        20.9755  -22.1825  -45.6401 H         1 UNK         0.0851 
     84 H84        18.3147  -24.0879  -43.1733 H         1 UNK         0.2976 
     85 H85        20.2686  -26.8668  -43.2907 H         1 UNK         0.3116 
     86 H86        21.1568  -29.0714  -41.6849 H         1 UNK         0.0646 
     87 H87        19.4251  -26.6362  -40.9959 H         1 UNK         0.0847 
     88 H88        19.6238  -28.0558  -39.9786 H         1 UNK         0.0847 
     89 H89        18.8504  -28.2166  -41.5396 H         1 UNK         0.0847 
     90 H90        22.6337  -26.0058  -42.1650 H         1 UNK         0.3040 
     91 H91        24.0121  -25.9051  -39.5872 H         1 UNK         0.1015 
     92 H92        23.6030  -23.8431  -40.9373 H         1 UNK         0.0786 
     93 H93        24.5816  -24.4942  -42.2510 H         1 UNK         0.0786 
     94 H94        25.3226  -24.1138  -40.7024 H         1 UNK         0.0786 
     95 H95        24.4127  -27.7104  -42.5813 H         1 UNK         0.3172 
     96 H96        27.3212  -27.9990  -42.2968 H         1 UNK         0.0595 
     97 H97        26.2567  -27.7353  -44.5446 H         1 UNK         0.0839 
     98 H98        25.3870  -29.2524  -44.3121 H         1 UNK         0.0839 
     99 H99        27.1397  -29.2472  -44.4079 H         1 UNK         0.0839 
    100 H100       24.4229  -29.8608  -41.4491 H         1 UNK         0.2998 
    101 H101       25.9177  -31.8284  -39.9852 H         1 UNK         0.0822 
    102 H102       26.1159  -32.8475  -42.2832 H         1 UNK         0.0787 
    103 H103       25.0206  -33.7987  -41.2985 H         1 UNK         0.0787 
    104 H104       24.3750  -32.7016  -42.5111 H         1 UNK         0.0787 
    105 H105       24.3411  -33.3093  -38.8677 H         1 UNK         0.3055 
    106 H106       21.9976  -31.8365  -37.9820 H         1 UNK         0.1106 
    107 H107       21.7010  -33.7900  -36.4564 H         1 UNK         0.0828 
    108 H108       22.9899  -34.6552  -37.2819 H         1 UNK         0.0828 
    109 H109       23.3433  -33.1762  -36.3890 H         1 UNK         0.0828 
    110 H110       22.5693  -34.6478  -40.0651 H         1 UNK         0.2931 
    111 H111       21.3518  -35.8962  -41.3925 H         1 UNK         0.0412 
    112 H112       19.1873  -37.0179  -38.4433 H         1 UNK         0.3472 
    113 H113       20.6873  -36.1242  -38.4186 H         1 UNK         0.3472 
    114 H114       19.4044  -33.5500  -41.6148 H         1 UNK         0.0970 
    115 H115       19.4498  -34.9200  -42.6873 H         1 UNK         0.0970 
    116 H116       22.0911  -31.2650  -42.8307 H         1 UNK         0.0612 
    117 H117       20.9104  -31.6719  -41.6094 H         1 UNK         0.0612 
@<TRIPOS>BOND
     1    1    2 1    
     2    1   62 1    
     3    1   63 1    
     4    1   64 1    
     5    2    3 2    
     6    2    4 am   BACKBONE|DICT|INTERRES
     7    4    5 1    
     8    4   65 1    
     9    5    6 1    
    10    5   25 1    
    11    5   66 1    
    12    6    7 1    
    13    6   67 1    
    14    6   68 1    
    15    7    8 1    
    16    8    9 1    
    17    8   69 1    
    18    8   70 1    
    19    9   10 ar   
    20    9   14 ar   
    21   10   11 ar   
    22   10   71 1    
    23   11   12 ar   
    24   11   61 1    
    25   12   13 ar   
    26   12   72 1    
    27   13   14 ar   
    28   13   15 1    
    29   14   73 1    
    30   15   16 1    
    31   15   74 1    
    32   15   75 1    
    33   16   17 1    
    34   17   18 1    
    35   17   76 1    
    36   17   77 1    
    37   18   19 1    
    38   18   27 1    
    39   18   78 1    
    40   19   20 am   BACKBONE|DICT|INTERRES
    41   19   79 1    
    42   20   21 2    
    43   20   22 1    
    44   22   23 1    
    45   22   24 1    
    46   22   80 1    
    47   23   81 1    
    48   23   82 1    
    49   23   83 1    
    50   24   25 am   BACKBONE|DICT|INTERRES
    51   24   84 1    
    52   25   26 2    
    53   27   28 2    
    54   27   29 am   BACKBONE|DICT|INTERRES
    55   29   30 1    
    56   29   85 1    
    57   30   31 1    
    58   30   32 1    
    59   30   86 1    
    60   31   87 1    
    61   31   88 1    
    62   31   89 1    
    63   32   33 2    
    64   32   34 am   BACKBONE|DICT|INTERRES
    65   34   35 1    
    66   34   90 1    
    67   35   36 1    
    68   35   37 1    
    69   35   91 1    
    70   36   92 1    
    71   36   93 1    
    72   36   94 1    
    73   37   38 2    
    74   37   39 am   BACKBONE|DICT|INTERRES
    75   39   40 1    
    76   39   95 1    
    77   40   41 1    
    78   40   42 1    
    79   40   96 1    
    80   41   97 1    
    81   41   98 1    
    82   41   99 1    
    83   42   43 2    
    84   42   44 am   BACKBONE|DICT|INTERRES
    85   44   45 1    
    86   44  100 1    
    87   45   46 1    
    88   45   47 1    
    89   45  101 1    
    90   46  102 1    
    91   46  103 1    
    92   46  104 1    
    93   47   48 2    
    94   47   49 am   BACKBONE|DICT|INTERRES
    95   49   50 1    
    96   49  105 1    
    97   50   51 1    
    98   50   52 1    
    99   50  106 1    
   100   51  107 1    
   101   51  108 1    
   102   51  109 1    
   103   52   53 2    
   104   52   54 am   BACKBONE|DICT|INTERRES
   105   54   55 1    
   106   54  110 1    
   107   55   56 1    
   108   55   59 1    
   109   55  111 1    
   110   56   57 am   BACKBONE|DICT|INTERRES
   111   56   58 2    
   112   57  112 1    
   113   57  113 1    
   114   59   60 1    
   115   59  114 1    
   116   59  115 1    
   117   60   61 1    
   118   61  116 1    
   119   61  117 1    
@<TRIPOS>SUBSTRUCTURE
     1 UNK         1 GROUP             0       ****    0 ROOT    
