@<TRIPOS>MOLECULE
3R8
117   119    1
SMALL
USER_CHARGES


@<TRIPOS>ATOM
      1 CA         17.5912  -23.4518  -49.9456 C.3       0 UNK        -0.2013 
      2 C          17.4895  -23.8297  -48.4748 C.2       0 UNK         0.4866 
      3 O          17.3015  -22.9465  -47.6384 O.2       0 UNK        -0.5176 
      4 N          17.6021  -25.1325  -48.1754 N.am      1 UNK        -0.4884 
      5 CA         17.6026  -25.7686  -46.8499 C.3       1 UNK         0.0853 
      6 C6         16.3557  -25.4149  -45.9833 C.3       10 UNK        -0.0849 
      7 S7         16.2710  -26.2868  -44.3789 S.3       10 UNK        -0.2776 
      8 C8         15.4247  -27.8462  -44.8058 C.3       10 UNK         0.0316 
      9 C9         15.8845  -29.0152  -43.9355 C.ar      10 UNK        -0.0863 
     10 C10        16.1593  -30.2560  -44.5219 C.ar      10 UNK        -0.1009 
     11 C11        16.5941  -31.3343  -43.7434 C.ar      10 UNK        -0.0712 
     12 C12        16.7466  -31.1685  -42.3639 C.ar      10 UNK        -0.0894 
     13 C13        16.4737  -29.9374  -41.7621 C.ar      10 UNK        -0.0745 
     14 C14        16.0310  -28.8711  -42.5501 C.ar      10 UNK        -0.0972 
     15 C15        16.6387  -29.7635  -40.2583 C.3       10 UNK         0.0209 
     16 S16        18.3676  -29.9547  -39.7128 S.3       10 UNK        -0.2568 
     17 C17        19.1938  -28.5081  -40.4660 C.3       10 UNK        -0.0983 
     18 CA         20.4296  -28.8999  -41.3273 C.3       3 UNK         0.0876 
     19 N          20.7079  -27.9002  -42.3595 N.am      3 UNK        -0.4424 
     20 C          20.1678  -27.9138  -43.5797 C.2       2 UNK         0.4918 
     21 O          19.4304  -28.8113  -43.9920 O.2       2 UNK        -0.4875 
     22 CA         20.4883  -26.7295  -44.5026 C.3       2 UNK         0.0481 
     23 CB         21.8199  -26.9211  -45.2482 C.3       2 UNK        -0.1831 
     24 N          19.3850  -26.6510  -45.4496 N.am      2 UNK        -0.4498 
     25 C          18.9491  -25.5756  -46.1107 C.2       1 UNK         0.5027 
     26 O          19.5424  -24.4948  -46.1269 O.2       1 UNK        -0.4969 
     27 C          21.7073  -29.1533  -40.5030 C.2       3 UNK         0.5005 
     28 O          22.7979  -28.7297  -40.9015 O.2       3 UNK        -0.5279 
     29 N          21.5529  -29.8376  -39.3612 N.am      4 UNK        -0.4463 
     30 CA         22.6128  -30.2813  -38.4488 C.3       4 UNK         0.0283 
     31 CB         21.9824  -31.0519  -37.2787 C.3       4 UNK        -0.1875 
     32 C          23.5277  -29.1628  -37.9210 C.2       4 UNK         0.4949 
     33 O          24.6911  -29.4344  -37.6286 O.2       4 UNK        -0.5039 
     34 N          23.0231  -27.9217  -37.8714 N.am      5 UNK        -0.4663 
     35 CA         23.7959  -26.7115  -37.5668 C.3       5 UNK         0.0242 
     36 CB         22.8343  -25.5181  -37.4494 C.3       5 UNK        -0.1982 
     37 C          24.9064  -26.4084  -38.5941 C.2       5 UNK         0.5017 
     38 O          25.9002  -25.7778  -38.2329 O.2       5 UNK        -0.5012 
     39 N          24.7290  -26.8789  -39.8363 N.am      6 UNK        -0.4439 
     40 CA         25.7130  -26.8307  -40.9197 C.3       6 UNK         0.0297 
     41 CB         25.0203  -26.2767  -42.1784 C.3       6 UNK        -0.2006 
     42 C          26.3186  -28.2213  -41.2008 C.2       6 UNK         0.4892 
     43 O          27.0552  -28.3605  -42.1779 O.2       6 UNK        -0.5089 
     44 N          25.9830  -29.2228  -40.3688 N.am      7 UNK        -0.4243 
     45 CA         26.2975  -30.6515  -40.5039 C.3       7 UNK         0.0196 
     46 CB         27.8092  -30.8989  -40.3139 C.3       7 UNK        -0.2007 
     47 C          25.7427  -31.2745  -41.8028 C.2       7 UNK         0.5020 
     48 O          26.3708  -32.1711  -42.3691 O.2       7 UNK        -0.5147 
     49 N          24.5853  -30.7819  -42.2606 N.am      8 UNK        -0.4734 
     50 CA         23.9493  -31.1644  -43.5201 C.3       8 UNK         0.0238 
     51 CB         23.6609  -29.8764  -44.3080 C.3       8 UNK        -0.1912 
     52 C          22.6413  -31.9271  -43.2708 C.2       8 UNK         0.5038 
     53 O          22.0712  -31.8405  -42.1819 O.2       8 UNK        -0.5046 
     54 N          22.1654  -32.6178  -44.3151 N.am      9 UNK        -0.4200 
     55 CA         20.8490  -33.2763  -44.3832 C.3       9 UNK         0.0839 
     56 C          20.6537  -34.4860  -43.4170 C.2       9 UNK         0.5513 
     57 N          21.7177  -35.0876  -42.8986 N.am      9 UNK        -0.7519 
     58 O          19.5309  -34.9082  -43.1534 O.2       9 UNK        -0.4960 
     59 C59        19.6891  -32.2377  -44.3316 C.3       10 UNK        -0.0876 
     60 S60        18.3355  -32.6190  -45.4949 S.3       10 UNK        -0.2414 
     61 C61        16.8907  -32.6824  -44.3886 C.3       10 UNK         0.0169 
     62 H62        17.7530  -24.3210  -50.5829 H         1 UNK         0.0903 
     63 H63        16.6747  -22.9599  -50.2707 H         1 UNK         0.0903 
     64 H64        18.4205  -22.7615  -50.0983 H         1 UNK         0.0903 
     65 H65        17.7705  -25.7749  -48.9382 H         1 UNK         0.3096 
     66 H66        17.5282  -26.8343  -47.0744 H         1 UNK         0.1121 
     67 H67        16.3403  -24.3484  -45.7572 H         1 UNK         0.0849 
     68 H68        15.4407  -25.6130  -46.5435 H         1 UNK         0.0849 
     69 H69        14.3481  -27.7137  -44.6924 H         1 UNK         0.0865 
     70 H70        15.6006  -28.0731  -45.8583 H         1 UNK         0.0865 
     71 H71        16.0467  -30.3867  -45.5895 H         1 UNK         0.1346 
     72 H72        17.0851  -31.9955  -41.7546 H         1 UNK         0.1412 
     73 H73        15.8124  -27.9197  -42.0851 H         1 UNK         0.1426 
     74 H74        16.0266  -30.5086  -39.7483 H         1 UNK         0.0716 
     75 H75        16.2689  -28.7900  -39.9323 H         1 UNK         0.0716 
     76 H76        18.4619  -27.9901  -41.0874 H         1 UNK         0.0695 
     77 H77        19.4619  -27.7959  -39.6834 H         1 UNK         0.0695 
     78 H78        20.2186  -29.8491  -41.8262 H         1 UNK         0.0983 
     79 H79        21.3763  -27.1871  -42.1036 H         1 UNK         0.3095 
     80 H80        20.5205  -25.8142  -43.9081 H         1 UNK         0.0454 
     81 H81        22.6582  -26.9452  -44.5522 H         1 UNK         0.0851 
     82 H82        22.0062  -26.1033  -45.9443 H         1 UNK         0.0851 
     83 H83        21.8324  -27.8519  -45.8164 H         1 UNK         0.0851 
     84 H84        18.8161  -27.4912  -45.4363 H         1 UNK         0.2976 
     85 H85        20.6109  -30.1298  -39.1304 H         1 UNK         0.3116 
     86 H86        23.2435  -30.9728  -39.0111 H         1 UNK         0.0646 
     87 H87        22.7485  -31.4200  -36.5944 H         1 UNK         0.0847 
     88 H88        21.3036  -30.4238  -36.7004 H         1 UNK         0.0847 
     89 H89        21.4223  -31.9191  -37.6291 H         1 UNK         0.0847 
     90 H90        22.0541  -27.7932  -38.1242 H         1 UNK         0.3040 
     91 H91        24.2822  -26.8605  -36.6000 H         1 UNK         0.1015 
     92 H92        23.3749  -24.6049  -37.1962 H         1 UNK         0.0786 
     93 H93        22.0932  -25.6802  -36.6664 H         1 UNK         0.0786 
     94 H94        22.3030  -25.3335  -38.3840 H         1 UNK         0.0786 
     95 H95        23.8887  -27.4148  -40.0422 H         1 UNK         0.3172 
     96 H96        26.5374  -26.1644  -40.6587 H         1 UNK         0.0595 
     97 H97        24.2266  -26.9401  -42.5240 H         1 UNK         0.0839 
     98 H98        25.7290  -26.1621  -42.9996 H         1 UNK         0.0839 
     99 H99        24.5823  -25.2961  -41.9920 H         1 UNK         0.0839 
    100 H100       25.4129  -28.9904  -39.5647 H         1 UNK         0.2998 
    101 H101       25.7788  -31.1544  -39.6866 H         1 UNK         0.0822 
    102 H102       28.0295  -31.9663  -40.2739 H         1 UNK         0.0787 
    103 H103       28.1680  -30.4608  -39.3826 H         1 UNK         0.0787 
    104 H104       28.3945  -30.4769  -41.1314 H         1 UNK         0.0787 
    105 H105       24.0868  -30.0896  -41.7094 H         1 UNK         0.3055 
    106 H106       24.6134  -31.7994  -44.1108 H         1 UNK         0.1106 
    107 H107       22.9833  -29.2235  -43.7582 H         1 UNK         0.0828 
    108 H108       24.5767  -29.3175  -44.5027 H         1 UNK         0.0828 
    109 H109       23.2005  -30.0914  -45.2731 H         1 UNK         0.0828 
    110 H110       22.7104  -32.6555  -45.1645 H         1 UNK         0.2931 
    111 H111       20.8450  -33.7264  -45.3765 H         1 UNK         0.0412 
    112 H112       21.5884  -35.8744  -42.2819 H         1 UNK         0.3472 
    113 H113       22.6455  -34.7549  -43.1065 H         1 UNK         0.3472 
    114 H114       19.3155  -32.1143  -43.3138 H         1 UNK         0.0970 
    115 H115       20.0531  -31.2517  -44.6212 H         1 UNK         0.0970 
    116 H116       16.0209  -33.0004  -44.9647 H         1 UNK         0.0612 
    117 H117       17.0562  -33.4515  -43.6323 H         1 UNK         0.0612 
@<TRIPOS>BOND
     1    1    2 1    
     2    1   62 1    
     3    1   63 1    
     4    1   64 1    
     5    2    3 2    
     6    2    4 am   BACKBONE|DICT|INTERRES
     7    4    5 1    
     8    4   65 1    
     9    5    6 1    
    10    5   25 1    
    11    5   66 1    
    12    6    7 1    
    13    6   67 1    
    14    6   68 1    
    15    7    8 1    
    16    8    9 1    
    17    8   69 1    
    18    8   70 1    
    19    9   10 ar   
    20    9   14 ar   
    21   10   11 ar   
    22   10   71 1    
    23   11   12 ar   
    24   11   61 1    
    25   12   13 ar   
    26   12   72 1    
    27   13   14 ar   
    28   13   15 1    
    29   14   73 1    
    30   15   16 1    
    31   15   74 1    
    32   15   75 1    
    33   16   17 1    
    34   17   18 1    
    35   17   76 1    
    36   17   77 1    
    37   18   19 1    
    38   18   27 1    
    39   18   78 1    
    40   19   20 am   BACKBONE|DICT|INTERRES
    41   19   79 1    
    42   20   21 2    
    43   20   22 1    
    44   22   23 1    
    45   22   24 1    
    46   22   80 1    
    47   23   81 1    
    48   23   82 1    
    49   23   83 1    
    50   24   25 am   BACKBONE|DICT|INTERRES
    51   24   84 1    
    52   25   26 2    
    53   27   28 2    
    54   27   29 am   BACKBONE|DICT|INTERRES
    55   29   30 1    
    56   29   85 1    
    57   30   31 1    
    58   30   32 1    
    59   30   86 1    
    60   31   87 1    
    61   31   88 1    
    62   31   89 1    
    63   32   33 2    
    64   32   34 am   BACKBONE|DICT|INTERRES
    65   34   35 1    
    66   34   90 1    
    67   35   36 1    
    68   35   37 1    
    69   35   91 1    
    70   36   92 1    
    71   36   93 1    
    72   36   94 1    
    73   37   38 2    
    74   37   39 am   BACKBONE|DICT|INTERRES
    75   39   40 1    
    76   39   95 1    
    77   40   41 1    
    78   40   42 1    
    79   40   96 1    
    80   41   97 1    
    81   41   98 1    
    82   41   99 1    
    83   42   43 2    
    84   42   44 am   BACKBONE|DICT|INTERRES
    85   44   45 1    
    86   44  100 1    
    87   45   46 1    
    88   45   47 1    
    89   45  101 1    
    90   46  102 1    
    91   46  103 1    
    92   46  104 1    
    93   47   48 2    
    94   47   49 am   BACKBONE|DICT|INTERRES
    95   49   50 1    
    96   49  105 1    
    97   50   51 1    
    98   50   52 1    
    99   50  106 1    
   100   51  107 1    
   101   51  108 1    
   102   51  109 1    
   103   52   53 2    
   104   52   54 am   BACKBONE|DICT|INTERRES
   105   54   55 1    
   106   54  110 1    
   107   55   56 1    
   108   55   59 1    
   109   55  111 1    
   110   56   57 am   BACKBONE|DICT|INTERRES
   111   56   58 2    
   112   57  112 1    
   113   57  113 1    
   114   59   60 1    
   115   59  114 1    
   116   59  115 1    
   117   60   61 1    
   118   61  116 1    
   119   61  117 1    
@<TRIPOS>SUBSTRUCTURE
     1 UNK         1 GROUP             0       ****    0 ROOT    
