@<TRIPOS>MOLECULE
3R8
117   119    1
SMALL
USER_CHARGES


@<TRIPOS>ATOM
      1 CA         16.3059  -23.8602  -42.0625 C.3       0 UNK        -0.2013 
      2 C          16.1347  -24.0414  -43.5629 C.2       0 UNK         0.4866 
      3 O          16.1439  -23.0583  -44.3028 O.2       0 UNK        -0.5176 
      4 N          15.9953  -25.2888  -44.0308 N.am      1 UNK        -0.4884 
      5 CA         15.7477  -25.6596  -45.4322 C.3       1 UNK         0.0853 
      6 C6         14.8964  -26.9602  -45.5206 C.3       10 UNK        -0.0849 
      7 S7         15.7615  -28.5209  -45.1082 S.3       10 UNK        -0.2776 
      8 C8         15.4678  -28.7411  -43.3252 C.3       10 UNK         0.0316 
      9 C9         16.7940  -28.9010  -42.5958 C.ar      10 UNK        -0.0863 
     10 C10        17.5237  -30.0890  -42.7212 C.ar      10 UNK        -0.1009 
     11 C11        18.7658  -30.2271  -42.0949 C.ar      10 UNK        -0.0712 
     12 C12        19.2715  -29.1726  -41.3342 C.ar      10 UNK        -0.0894 
     13 C13        18.5585  -27.9805  -41.2058 C.ar      10 UNK        -0.0745 
     14 C14        17.3117  -27.8562  -41.8241 C.ar      10 UNK        -0.0972 
     15 C15        19.1452  -26.8190  -40.4209 C.3       10 UNK         0.0209 
     16 S16        19.7534  -25.5117  -41.5315 S.3       10 UNK        -0.2568 
     17 C17        21.2698  -26.2537  -42.2367 C.3       10 UNK        -0.0983 
     18 CA         21.1068  -26.7910  -43.6853 C.3       3 UNK         0.0876 
     19 N          20.4318  -25.8085  -44.5415 N.am      3 UNK        -0.4424 
     20 C          20.1609  -25.9055  -45.8503 C.2       2 UNK         0.4918 
     21 O          20.4509  -26.8715  -46.5577 O.2       2 UNK        -0.4875 
     22 CA         19.3765  -24.7174  -46.4348 C.3       2 UNK         0.0481 
     23 CB         19.4936  -24.5983  -47.9697 C.3       2 UNK        -0.1831 
     24 N          17.9815  -24.7686  -45.9820 N.am      2 UNK        -0.4498 
     25 C          17.0389  -25.6729  -46.2940 C.2       1 UNK         0.5027 
     26 O          17.1564  -26.4908  -47.2075 O.2       1 UNK        -0.4969 
     27 C          22.4776  -27.1960  -44.2761 C.2       3 UNK         0.5005 
     28 O          23.3482  -26.3326  -44.4156 O.2       3 UNK        -0.5279 
     29 N          22.6305  -28.4699  -44.6652 N.am      4 UNK        -0.4463 
     30 CA         23.7684  -28.9475  -45.4597 C.3       4 UNK         0.0283 
     31 CB         23.3943  -30.2671  -46.1537 C.3       4 UNK        -0.1875 
     32 C          25.0696  -29.1194  -44.6603 C.2       4 UNK         0.4949 
     33 O          26.1464  -28.8924  -45.2126 O.2       4 UNK        -0.5039 
     34 N          24.9567  -29.5284  -43.3925 N.am      5 UNK        -0.4663 
     35 CA         26.0774  -29.7968  -42.4929 C.3       5 UNK         0.0242 
     36 CB         26.7739  -31.1260  -42.8553 C.3       5 UNK        -0.1982 
     37 C          25.5256  -29.7886  -41.0672 C.2       5 UNK         0.5017 
     38 O          25.2409  -30.8525  -40.5102 O.2       5 UNK        -0.5012 
     39 N          25.3019  -28.5738  -40.5450 N.am      6 UNK        -0.4439 
     40 CA         24.6138  -28.2787  -39.2818 C.3       6 UNK         0.0297 
     41 CB         25.4673  -28.7404  -38.0778 C.3       6 UNK        -0.2006 
     42 C          23.1792  -28.8466  -39.2786 C.2       6 UNK         0.4892 
     43 O          22.5913  -29.0062  -40.3483 O.2       6 UNK        -0.5089 
     44 N          22.6423  -29.1599  -38.0931 N.am      7 UNK        -0.4243 
     45 CA         21.3377  -29.8080  -37.9238 C.3       7 UNK         0.0196 
     46 CB         20.9091  -29.6856  -36.4523 C.3       7 UNK        -0.2007 
     47 C          21.3159  -31.2844  -38.3705 C.2       7 UNK         0.5020 
     48 O          20.2311  -31.8395  -38.5426 O.2       7 UNK        -0.5147 
     49 N          22.4954  -31.9042  -38.5158 N.am      8 UNK        -0.4734 
     50 CA         22.6534  -33.3105  -38.8852 C.3       8 UNK         0.0238 
     51 CB         24.0447  -33.7988  -38.4480 C.3       8 UNK        -0.1912 
     52 C          22.4387  -33.5671  -40.3845 C.2       8 UNK         0.5038 
     53 O          21.7618  -34.5369  -40.7294 O.2       8 UNK        -0.5046 
     54 N          23.0321  -32.7159  -41.2346 N.am      9 UNK        -0.4200 
     55 CA         23.1421  -32.8908  -42.6949 C.3       9 UNK         0.0839 
     56 C          24.0157  -34.1189  -43.1037 C.2       9 UNK         0.5513 
     57 N          24.1299  -34.4113  -44.3929 N.am      9 UNK        -0.7519 
     58 O          24.6376  -34.7858  -42.2789 O.2       9 UNK        -0.4960 
     59 C59        21.7687  -32.8381  -43.4301 C.3       10 UNK        -0.0876 
     60 S60        21.0087  -31.1853  -43.3487 S.3       10 UNK        -0.2414 
     61 C61        19.5877  -31.4939  -42.2604 C.3       10 UNK         0.0169 
     62 H62        16.0289  -24.7543  -41.5065 H         1 UNK         0.0903 
     63 H63        17.3411  -23.6143  -41.8285 H         1 UNK         0.0903 
     64 H64        15.6764  -23.0432  -41.7106 H         1 UNK         0.0903 
     65 H65        16.0630  -26.0687  -43.3957 H         1 UNK         0.3096 
     66 H66        15.1332  -24.8696  -45.8710 H         1 UNK         0.1121 
     67 H67        14.0034  -26.8678  -44.9005 H         1 UNK         0.0849 
     68 H68        14.5191  -27.0682  -46.5392 H         1 UNK         0.0849 
     69 H69        14.8558  -29.6312  -43.1716 H         1 UNK         0.0865 
     70 H70        14.8961  -27.9060  -42.9186 H         1 UNK         0.0865 
     71 H71        17.1341  -30.8948  -43.3284 H         1 UNK         0.1346 
     72 H72        20.2378  -29.2781  -40.8679 H         1 UNK         0.1412 
     73 H73        16.7602  -26.9355  -41.7151 H         1 UNK         0.1426 
     74 H74        19.9543  -27.1514  -39.7684 H         1 UNK         0.0716 
     75 H75        18.3777  -26.3998  -39.7688 H         1 UNK         0.0716 
     76 H76        21.6176  -27.0480  -41.5792 H         1 UNK         0.0695 
     77 H77        22.0398  -25.4805  -42.2005 H         1 UNK         0.0695 
     78 H78        20.4642  -27.6735  -43.6510 H         1 UNK         0.0983 
     79 H79        20.1315  -24.9768  -44.0553 H         1 UNK         0.3095 
     80 H80        19.8029  -23.8069  -46.0106 H         1 UNK         0.0454 
     81 H81        18.9172  -23.7541  -48.3473 H         1 UNK         0.0851 
     82 H82        19.1515  -25.4954  -48.4857 H         1 UNK         0.0851 
     83 H83        20.5319  -24.4403  -48.2632 H         1 UNK         0.0851 
     84 H84        17.7309  -24.1062  -45.2569 H         1 UNK         0.2976 
     85 H85        21.8792  -29.1289  -44.5061 H         1 UNK         0.3116 
     86 H86        23.9621  -28.2096  -46.2416 H         1 UNK         0.0646 
     87 H87        24.1969  -30.5994  -46.8136 H         1 UNK         0.0847 
     88 H88        22.4989  -30.1562  -46.7657 H         1 UNK         0.0847 
     89 H89        23.2159  -31.0667  -45.4358 H         1 UNK         0.0847 
     90 H90        24.0325  -29.6438  -42.9961 H         1 UNK         0.3040 
     91 H91        26.8102  -28.9910  -42.5780 H         1 UNK         0.1015 
     92 H92        27.2077  -31.0925  -43.8546 H         1 UNK         0.0786 
     93 H93        26.0892  -31.9719  -42.8182 H         1 UNK         0.0786 
     94 H94        27.5866  -31.3380  -42.1595 H         1 UNK         0.0786 
     95 H95        25.5143  -27.7695  -41.1190 H         1 UNK         0.3172 
     96 H96        24.5158  -27.1935  -39.2303 H         1 UNK         0.0595 
     97 H97        25.5100  -29.8275  -37.9985 H         1 UNK         0.0839 
     98 H98        25.0765  -28.3530  -37.1365 H         1 UNK         0.0839 
     99 H99        26.4918  -28.3778  -38.1626 H         1 UNK         0.0839 
    100 H100       23.1820  -28.9961  -37.2555 H         1 UNK         0.2998 
    101 H101       20.6068  -29.2736  -38.5330 H         1 UNK         0.0822 
    102 H102       21.6041  -30.1969  -35.7850 H         1 UNK         0.0787 
    103 H103       20.8480  -28.6424  -36.1414 H         1 UNK         0.0787 
    104 H104       19.9233  -30.1260  -36.2949 H         1 UNK         0.0787 
    105 H105       23.3402  -31.3671  -38.3849 H         1 UNK         0.3055 
    106 H106       21.9063  -33.8952  -38.3429 H         1 UNK         0.1106 
    107 H107       24.1874  -34.8490  -38.7068 H         1 UNK         0.0828 
    108 H108       24.8436  -33.2346  -38.9316 H         1 UNK         0.0828 
    109 H109       24.1761  -33.7110  -37.3695 H         1 UNK         0.0828 
    110 H110       23.6115  -31.9797  -40.8450 H         1 UNK         0.2931 
    111 H111       23.7204  -32.0304  -43.0283 H         1 UNK         0.0412 
    112 H112       23.6648  -33.8695  -45.1031 H         1 UNK         0.3472 
    113 H113       24.7083  -35.1921  -44.6623 H         1 UNK         0.3472 
    114 H114       21.8769  -33.0631  -44.4912 H         1 UNK         0.0970 
    115 H115       21.0834  -33.5938  -43.0448 H         1 UNK         0.0970 
    116 H116       18.9782  -32.2982  -42.6750 H         1 UNK         0.0612 
    117 H117       19.9426  -31.8348  -41.2872 H         1 UNK         0.0612 
@<TRIPOS>BOND
     1    1    2 1    
     2    1   62 1    
     3    1   63 1    
     4    1   64 1    
     5    2    3 2    
     6    2    4 am   BACKBONE|DICT|INTERRES
     7    4    5 1    
     8    4   65 1    
     9    5    6 1    
    10    5   25 1    
    11    5   66 1    
    12    6    7 1    
    13    6   67 1    
    14    6   68 1    
    15    7    8 1    
    16    8    9 1    
    17    8   69 1    
    18    8   70 1    
    19    9   10 ar   
    20    9   14 ar   
    21   10   11 ar   
    22   10   71 1    
    23   11   12 ar   
    24   11   61 1    
    25   12   13 ar   
    26   12   72 1    
    27   13   14 ar   
    28   13   15 1    
    29   14   73 1    
    30   15   16 1    
    31   15   74 1    
    32   15   75 1    
    33   16   17 1    
    34   17   18 1    
    35   17   76 1    
    36   17   77 1    
    37   18   19 1    
    38   18   27 1    
    39   18   78 1    
    40   19   20 am   BACKBONE|DICT|INTERRES
    41   19   79 1    
    42   20   21 2    
    43   20   22 1    
    44   22   23 1    
    45   22   24 1    
    46   22   80 1    
    47   23   81 1    
    48   23   82 1    
    49   23   83 1    
    50   24   25 am   BACKBONE|DICT|INTERRES
    51   24   84 1    
    52   25   26 2    
    53   27   28 2    
    54   27   29 am   BACKBONE|DICT|INTERRES
    55   29   30 1    
    56   29   85 1    
    57   30   31 1    
    58   30   32 1    
    59   30   86 1    
    60   31   87 1    
    61   31   88 1    
    62   31   89 1    
    63   32   33 2    
    64   32   34 am   BACKBONE|DICT|INTERRES
    65   34   35 1    
    66   34   90 1    
    67   35   36 1    
    68   35   37 1    
    69   35   91 1    
    70   36   92 1    
    71   36   93 1    
    72   36   94 1    
    73   37   38 2    
    74   37   39 am   BACKBONE|DICT|INTERRES
    75   39   40 1    
    76   39   95 1    
    77   40   41 1    
    78   40   42 1    
    79   40   96 1    
    80   41   97 1    
    81   41   98 1    
    82   41   99 1    
    83   42   43 2    
    84   42   44 am   BACKBONE|DICT|INTERRES
    85   44   45 1    
    86   44  100 1    
    87   45   46 1    
    88   45   47 1    
    89   45  101 1    
    90   46  102 1    
    91   46  103 1    
    92   46  104 1    
    93   47   48 2    
    94   47   49 am   BACKBONE|DICT|INTERRES
    95   49   50 1    
    96   49  105 1    
    97   50   51 1    
    98   50   52 1    
    99   50  106 1    
   100   51  107 1    
   101   51  108 1    
   102   51  109 1    
   103   52   53 2    
   104   52   54 am   BACKBONE|DICT|INTERRES
   105   54   55 1    
   106   54  110 1    
   107   55   56 1    
   108   55   59 1    
   109   55  111 1    
   110   56   57 am   BACKBONE|DICT|INTERRES
   111   56   58 2    
   112   57  112 1    
   113   57  113 1    
   114   59   60 1    
   115   59  114 1    
   116   59  115 1    
   117   60   61 1    
   118   61  116 1    
   119   61  117 1    
@<TRIPOS>SUBSTRUCTURE
     1 UNK         1 GROUP             0       ****    0 ROOT    
