@<TRIPOS>MOLECULE
3R8
117   119    1
SMALL
USER_CHARGES


@<TRIPOS>ATOM
      1 CA         14.0224  -30.0075  -41.0364 C.3       0 UNK        -0.2013 
      2 C          14.5593  -29.5383  -42.3804 C.2       0 UNK         0.4866 
      3 O          13.8976  -29.7276  -43.4017 O.2       0 UNK        -0.5176 
      4 N          15.7526  -28.9330  -42.3780 N.am      1 UNK        -0.4884 
      5 CA         16.5055  -28.4677  -43.5490 C.3       1 UNK         0.0853 
      6 C6         15.8087  -27.3426  -44.3652 C.3       10 UNK        -0.0849 
      7 S7         15.5352  -25.8701  -43.3204 S.3       10 UNK        -0.2776 
      8 C8         16.7232  -24.6651  -44.0079 C.3       10 UNK         0.0316 
      9 C9         18.1795  -25.1302  -44.0021 C.ar      10 UNK        -0.0863 
     10 C10        18.7720  -25.6655  -42.8512 C.ar      10 UNK        -0.1009 
     11 C11        20.1194  -26.0454  -42.8539 C.ar      10 UNK        -0.0712 
     12 C12        20.8855  -25.8485  -44.0063 C.ar      10 UNK        -0.0894 
     13 C13        20.3064  -25.3270  -45.1633 C.ar      10 UNK        -0.0745 
     14 C14        18.9543  -24.9730  -45.1562 C.ar      10 UNK        -0.0972 
     15 C15        21.1413  -25.1319  -46.4184 C.3       10 UNK         0.0209 
     16 S16        20.9318  -26.5207  -47.5731 S.3       10 UNK        -0.2568 
     17 C17        22.1220  -27.7614  -46.9455 C.3       10 UNK        -0.0983 
     18 CA         21.5088  -28.8424  -46.0120 C.3       3 UNK         0.0876 
     19 N          20.1996  -29.3039  -46.4943 N.am      3 UNK        -0.4424 
     20 C          19.4923  -30.3875  -46.1427 C.2       2 UNK         0.4918 
     21 O          19.9036  -31.3117  -45.4408 O.2       2 UNK        -0.4875 
     22 CA         18.0176  -30.3556  -46.5863 C.3       2 UNK         0.0481 
     23 CB         17.3889  -31.7602  -46.7095 C.3       2 UNK        -0.1831 
     24 N          17.2490  -29.4842  -45.6833 N.am      2 UNK        -0.4498 
     25 C          17.0519  -29.6610  -44.3648 C.2       1 UNK         0.5027 
     26 O          17.3481  -30.6957  -43.7626 O.2       1 UNK        -0.4969 
     27 C          22.5294  -29.9744  -45.7578 C.2       3 UNK         0.5005 
     28 O          22.8982  -30.6793  -46.7011 O.2       3 UNK        -0.5279 
     29 N          22.9579  -30.1291  -44.4981 N.am      4 UNK        -0.4463 
     30 CA         23.8338  -31.2029  -44.0421 C.3       4 UNK         0.0283 
     31 CB         22.9928  -32.4306  -43.6488 C.3       4 UNK        -0.1875 
     32 C          24.6691  -30.6835  -42.8700 C.2       4 UNK         0.4949 
     33 O          24.1421  -30.5175  -41.7666 O.2       4 UNK        -0.5039 
     34 N          25.9453  -30.3820  -43.1488 N.am      5 UNK        -0.4663 
     35 CA         26.9990  -29.9404  -42.2171 C.3       5 UNK         0.0242 
     36 CB         27.3152  -31.0682  -41.2109 C.3       5 UNK        -0.1982 
     37 C          26.7343  -28.6058  -41.4871 C.2       5 UNK         0.5017 
     38 O          27.5198  -28.2403  -40.6117 O.2       5 UNK        -0.5012 
     39 N          25.6317  -27.9230  -41.8327 N.am      6 UNK        -0.4439 
     40 CA         25.0333  -26.7791  -41.1335 C.3       6 UNK         0.0297 
     41 CB         25.9284  -25.5274  -41.2528 C.3       6 UNK        -0.2006 
     42 C          24.6503  -27.1108  -39.6733 C.2       6 UNK         0.4892 
     43 O          24.7012  -26.2266  -38.8159 O.2       6 UNK        -0.5089 
     44 N          24.2935  -28.3777  -39.4114 N.am      7 UNK        -0.4243 
     45 CA         24.0172  -28.8950  -38.0713 C.3       7 UNK         0.0196 
     46 CB         25.3292  -29.2969  -37.3717 C.3       7 UNK        -0.2007 
     47 C          23.0296  -30.0634  -38.1115 C.2       7 UNK         0.5020 
     48 O          22.0122  -30.0144  -37.4204 O.2       7 UNK        -0.5147 
     49 N          23.3188  -31.0871  -38.9290 N.am      8 UNK        -0.4734 
     50 CA         22.4749  -32.2816  -39.0827 C.3       8 UNK         0.0238 
     51 CB         23.2518  -33.3618  -39.8517 C.3       8 UNK        -0.1912 
     52 C          21.1219  -31.9851  -39.7551 C.2       8 UNK         0.5038 
     53 O          20.1489  -32.6988  -39.5104 O.2       8 UNK        -0.5046 
     54 N          21.0888  -30.9139  -40.5530 N.am      9 UNK        -0.4200 
     55 CA         19.8894  -30.2758  -41.1074 C.3       9 UNK         0.0839 
     56 C          18.9875  -29.5389  -40.0715 C.2       9 UNK         0.5513 
     57 N          19.3949  -29.3684  -38.8190 N.am      9 UNK        -0.7519 
     58 O          17.8874  -29.1123  -40.4140 O.2       9 UNK        -0.4960 
     59 C59        20.2622  -29.3611  -42.3015 C.3       10 UNK        -0.0876 
     60 S60        21.6362  -28.2065  -41.9526 S.3       10 UNK        -0.2414 
     61 C61        20.7568  -26.6461  -41.6076 C.3       10 UNK         0.0169 
     62 H62        14.7179  -29.7946  -40.2243 H         1 UNK         0.0903 
     63 H63        13.0787  -29.5100  -40.8146 H         1 UNK         0.0903 
     64 H64        13.8456  -31.0826  -41.0575 H         1 UNK         0.0903 
     65 H65        16.2816  -28.8893  -41.5106 H         1 UNK         0.3096 
     66 H66        17.3998  -28.0166  -43.1258 H         1 UNK         0.1121 
     67 H67        14.8511  -27.6794  -44.7646 H         1 UNK         0.0849 
     68 H68        16.4079  -27.0385  -45.2242 H         1 UNK         0.0849 
     69 H69        16.4037  -24.4113  -45.0199 H         1 UNK         0.0865 
     70 H70        16.6544  -23.7427  -43.4299 H         1 UNK         0.0865 
     71 H71        18.1809  -25.7869  -41.9534 H         1 UNK         0.1346 
     72 H72        21.9333  -26.1155  -44.0056 H         1 UNK         0.1412 
     73 H73        18.5116  -24.5582  -46.0519 H         1 UNK         0.1426 
     74 H74        22.1960  -25.0000  -46.1724 H         1 UNK         0.0716 
     75 H75        20.8322  -24.2131  -46.9191 H         1 UNK         0.0716 
     76 H76        22.9468  -27.2520  -46.4441 H         1 UNK         0.0695 
     77 H77        22.5589  -28.2313  -47.8291 H         1 UNK         0.0695 
     78 H78        21.2991  -28.3652  -45.0553 H         1 UNK         0.0983 
     79 H79        19.7423  -28.6287  -47.0904 H         1 UNK         0.3095 
     80 H80        17.9777  -29.8961  -47.5754 H         1 UNK         0.0454 
     81 H81        17.4246  -32.3174  -45.7732 H         1 UNK         0.0851 
     82 H82        17.9199  -32.3543  -47.4538 H         1 UNK         0.0851 
     83 H83        16.3470  -31.7013  -47.0232 H         1 UNK         0.0851 
     84 H84        16.9629  -28.6028  -46.0850 H         1 UNK         0.2976 
     85 H85        22.6368  -29.5005  -43.7720 H         1 UNK         0.3116 
     86 H86        24.5115  -31.4961  -44.8470 H         1 UNK         0.0646 
     87 H87        22.4349  -32.8160  -44.5025 H         1 UNK         0.0847 
     88 H88        23.6272  -33.2392  -43.2846 H         1 UNK         0.0847 
     89 H89        22.2722  -32.1948  -42.8655 H         1 UNK         0.0847 
     90 H90        26.2527  -30.5058  -44.1047 H         1 UNK         0.3040 
     91 H91        27.8922  -29.7742  -42.8217 H         1 UNK         0.1015 
     92 H92        26.4827  -31.2509  -40.5308 H         1 UNK         0.0786 
     93 H93        28.1835  -30.8198  -40.5991 H         1 UNK         0.0786 
     94 H94        27.5415  -32.0040  -41.7219 H         1 UNK         0.0786 
     95 H95        25.0619  -28.3382  -42.5555 H         1 UNK         0.3172 
     96 H96        24.0990  -26.5589  -41.6504 H         1 UNK         0.0595 
     97 H97        26.8582  -25.6386  -40.6944 H         1 UNK         0.0839 
     98 H98        25.4200  -24.6451  -40.8621 H         1 UNK         0.0839 
     99 H99        26.1832  -25.3187  -42.2917 H         1 UNK         0.0839 
    100 H100       24.2299  -29.0326  -40.1830 H         1 UNK         0.2998 
    101 H101       23.5430  -28.1077  -37.4805 H         1 UNK         0.0822 
    102 H102       25.1342  -29.7234  -36.3868 H         1 UNK         0.0787 
    103 H103       25.8851  -30.0378  -37.9476 H         1 UNK         0.0787 
    104 H104       25.9798  -28.4342  -37.2271 H         1 UNK         0.0787 
    105 H105       24.1429  -31.0432  -39.5134 H         1 UNK         0.3055 
    106 H106       22.2541  -32.6680  -38.0850 H         1 UNK         0.1106 
    107 H107       24.1458  -33.6677  -39.3083 H         1 UNK         0.0828 
    108 H108       22.6418  -34.2542  -39.9985 H         1 UNK         0.0828 
    109 H109       23.5632  -33.0130  -40.8352 H         1 UNK         0.0828 
    110 H110       21.9547  -30.4149  -40.7052 H         1 UNK         0.2931 
    111 H111       19.2651  -31.0775  -41.5067 H         1 UNK         0.0412 
    112 H112       18.7884  -28.8911  -38.1718 H         1 UNK         0.3472 
    113 H113       20.2968  -29.7046  -38.5036 H         1 UNK         0.3472 
    114 H114       20.5577  -29.9957  -43.1360 H         1 UNK         0.0970 
    115 H115       19.4012  -28.8060  -42.6645 H         1 UNK         0.0970 
    116 H116       20.0123  -26.8187  -40.8294 H         1 UNK         0.0612 
    117 H117       21.4693  -25.9283  -41.1995 H         1 UNK         0.0612 
@<TRIPOS>BOND
     1    1    2 1    
     2    1   62 1    
     3    1   63 1    
     4    1   64 1    
     5    2    3 2    
     6    2    4 am   BACKBONE|DICT|INTERRES
     7    4    5 1    
     8    4   65 1    
     9    5    6 1    
    10    5   25 1    
    11    5   66 1    
    12    6    7 1    
    13    6   67 1    
    14    6   68 1    
    15    7    8 1    
    16    8    9 1    
    17    8   69 1    
    18    8   70 1    
    19    9   10 ar   
    20    9   14 ar   
    21   10   11 ar   
    22   10   71 1    
    23   11   12 ar   
    24   11   61 1    
    25   12   13 ar   
    26   12   72 1    
    27   13   14 ar   
    28   13   15 1    
    29   14   73 1    
    30   15   16 1    
    31   15   74 1    
    32   15   75 1    
    33   16   17 1    
    34   17   18 1    
    35   17   76 1    
    36   17   77 1    
    37   18   19 1    
    38   18   27 1    
    39   18   78 1    
    40   19   20 am   BACKBONE|DICT|INTERRES
    41   19   79 1    
    42   20   21 2    
    43   20   22 1    
    44   22   23 1    
    45   22   24 1    
    46   22   80 1    
    47   23   81 1    
    48   23   82 1    
    49   23   83 1    
    50   24   25 am   BACKBONE|DICT|INTERRES
    51   24   84 1    
    52   25   26 2    
    53   27   28 2    
    54   27   29 am   BACKBONE|DICT|INTERRES
    55   29   30 1    
    56   29   85 1    
    57   30   31 1    
    58   30   32 1    
    59   30   86 1    
    60   31   87 1    
    61   31   88 1    
    62   31   89 1    
    63   32   33 2    
    64   32   34 am   BACKBONE|DICT|INTERRES
    65   34   35 1    
    66   34   90 1    
    67   35   36 1    
    68   35   37 1    
    69   35   91 1    
    70   36   92 1    
    71   36   93 1    
    72   36   94 1    
    73   37   38 2    
    74   37   39 am   BACKBONE|DICT|INTERRES
    75   39   40 1    
    76   39   95 1    
    77   40   41 1    
    78   40   42 1    
    79   40   96 1    
    80   41   97 1    
    81   41   98 1    
    82   41   99 1    
    83   42   43 2    
    84   42   44 am   BACKBONE|DICT|INTERRES
    85   44   45 1    
    86   44  100 1    
    87   45   46 1    
    88   45   47 1    
    89   45  101 1    
    90   46  102 1    
    91   46  103 1    
    92   46  104 1    
    93   47   48 2    
    94   47   49 am   BACKBONE|DICT|INTERRES
    95   49   50 1    
    96   49  105 1    
    97   50   51 1    
    98   50   52 1    
    99   50  106 1    
   100   51  107 1    
   101   51  108 1    
   102   51  109 1    
   103   52   53 2    
   104   52   54 am   BACKBONE|DICT|INTERRES
   105   54   55 1    
   106   54  110 1    
   107   55   56 1    
   108   55   59 1    
   109   55  111 1    
   110   56   57 am   BACKBONE|DICT|INTERRES
   111   56   58 2    
   112   57  112 1    
   113   57  113 1    
   114   59   60 1    
   115   59  114 1    
   116   59  115 1    
   117   60   61 1    
   118   61  116 1    
   119   61  117 1    
@<TRIPOS>SUBSTRUCTURE
     1 UNK         1 GROUP             0       ****    0 ROOT    
