@<TRIPOS>MOLECULE
3R8
117   119    1
SMALL
USER_CHARGES


@<TRIPOS>ATOM
      1 CA         20.5463  -30.2188  -49.0665 C.3       0 UNK        -0.2013 
      2 C          20.2615  -29.7042  -47.6643 C.2       0 UNK         0.4866 
      3 O          21.1504  -29.7330  -46.8133 O.2       0 UNK        -0.5176 
      4 N          19.0324  -29.2282  -47.4212 N.am      1 UNK        -0.4884 
      5 CA         18.5137  -28.7234  -46.1399 C.3       1 UNK         0.0853 
      6 C6         16.9617  -28.7067  -46.1343 C.3       10 UNK        -0.0849 
      7 S7         16.2837  -30.4021  -46.1221 S.3       10 UNK        -0.2776 
      8 C8         15.3768  -30.4548  -44.5357 C.3       10 UNK         0.0316 
      9 C9         16.2231  -30.0354  -43.3370 C.ar      10 UNK        -0.0863 
     10 C10        17.4186  -30.6971  -43.0442 C.ar      10 UNK        -0.1009 
     11 C11        18.2082  -30.2919  -41.9642 C.ar      10 UNK        -0.0712 
     12 C12        17.7686  -29.2502  -41.1435 C.ar      10 UNK        -0.0894 
     13 C13        16.5708  -28.5808  -41.4172 C.ar      10 UNK        -0.0745 
     14 C14        15.8062  -28.9799  -42.5186 C.ar      10 UNK        -0.0972 
     15 C15        16.0657  -27.4477  -40.5240 C.3       10 UNK         0.0209 
     16 S16        17.3705  -26.3453  -39.8744 S.3       10 UNK        -0.2568 
     17 C17        18.0651  -25.6270  -41.4007 C.3       10 UNK        -0.0983 
     18 CA         19.5538  -26.0081  -41.5996 C.3       3 UNK         0.0876 
     19 N          19.9309  -25.9366  -43.0127 N.am      3 UNK        -0.4424 
     20 C          21.1332  -26.2288  -43.5244 C.2       2 UNK         0.4918 
     21 O          22.1098  -26.5510  -42.8481 O.2       2 UNK        -0.4875 
     22 CA         21.2316  -26.2092  -45.0601 C.3       2 UNK         0.0481 
     23 CB         22.6831  -26.3236  -45.5609 C.3       2 UNK        -0.1831 
     24 N          20.4532  -27.3135  -45.6171 N.am      2 UNK        -0.4498 
     25 C          19.1222  -27.3591  -45.7420 C.2       1 UNK         0.5027 
     26 O          18.3952  -26.3860  -45.5273 O.2       1 UNK        -0.4969 
     27 C          20.4852  -25.1620  -40.7052 C.2       3 UNK         0.5005 
     28 O          20.8220  -24.0329  -41.0716 O.2       3 UNK        -0.5279 
     29 N          20.9062  -25.7405  -39.5717 N.am      4 UNK        -0.4463 
     30 CA         21.8473  -25.2243  -38.5662 C.3       4 UNK         0.0283 
     31 CB         21.3823  -23.8784  -37.9758 C.3       4 UNK        -0.1875 
     32 C          23.3131  -25.1537  -39.0360 C.2       4 UNK         0.4949 
     33 O          24.2056  -25.3895  -38.2212 O.2       4 UNK        -0.5039 
     34 N          23.5500  -24.8566  -40.3207 N.am      5 UNK        -0.4663 
     35 CA         24.8691  -24.8959  -40.9579 C.3       5 UNK         0.0242 
     36 CB         24.8061  -24.1862  -42.3199 C.3       5 UNK        -0.1982 
     37 C          25.3923  -26.3349  -41.1073 C.2       5 UNK         0.5017 
     38 O          26.5698  -26.5819  -40.8437 O.2       5 UNK        -0.5012 
     39 N          24.4988  -27.2520  -41.4931 N.am      6 UNK        -0.4439 
     40 CA         24.7016  -28.6957  -41.5134 C.3       6 UNK         0.0297 
     41 CB         24.4599  -29.2128  -42.9415 C.3       6 UNK        -0.2006 
     42 C          23.7141  -29.3443  -40.5333 C.2       6 UNK         0.4892 
     43 O          22.6267  -28.8062  -40.3058 O.2       6 UNK        -0.5089 
     44 N          24.1151  -30.4952  -39.9807 N.am      7 UNK        -0.4243 
     45 CA         23.2964  -31.3070  -39.0770 C.3       7 UNK         0.0196 
     46 CB         24.1495  -31.7638  -37.8814 C.3       7 UNK        -0.2007 
     47 C          22.6910  -32.5187  -39.8003 C.2       7 UNK         0.5020 
     48 O          21.5193  -32.8249  -39.5818 O.2       7 UNK        -0.5147 
     49 N          23.4955  -33.1983  -40.6320 N.am      8 UNK        -0.4734 
     50 CA         23.0788  -34.3887  -41.3808 C.3       8 UNK         0.0238 
     51 CB         24.3175  -35.2048  -41.7870 C.3       8 UNK        -0.1912 
     52 C          22.2288  -34.0414  -42.6122 C.2       8 UNK         0.5038 
     53 O          21.2338  -34.7204  -42.8677 O.2       8 UNK        -0.5046 
     54 N          22.6393  -32.9910  -43.3377 N.am      9 UNK        -0.4200 
     55 CA         21.9650  -32.4396  -44.5283 C.3       9 UNK         0.0839 
     56 C          21.8955  -33.4113  -45.7471 C.2       9 UNK         0.5513 
     57 N          22.7983  -34.3786  -45.8601 N.am      9 UNK        -0.7519 
     58 O          21.0336  -33.2827  -46.6129 O.2       9 UNK        -0.4960 
     59 C59        20.5946  -31.7930  -44.1854 C.3       10 UNK        -0.0876 
     60 S60        20.7708  -30.4594  -42.9493 S.3       10 UNK        -0.2414 
     61 C61        19.5501  -30.9544  -41.6958 C.3       10 UNK         0.0169 
     62 H62        20.8370  -31.2684  -49.0241 H         1 UNK         0.0903 
     63 H63        19.6774  -30.1331  -49.7187 H         1 UNK         0.0903 
     64 H64        21.3651  -29.6557  -49.5137 H         1 UNK         0.0903 
     65 H65        18.3596  -29.2278  -48.1747 H         1 UNK         0.3096 
     66 H66        18.8329  -29.4120  -45.3551 H         1 UNK         0.1121 
     67 H67        16.5739  -28.1683  -45.2681 H         1 UNK         0.0849 
     68 H68        16.5774  -28.1751  -47.0065 H         1 UNK         0.0849 
     69 H69        14.4911  -29.8236  -44.6232 H         1 UNK         0.0865 
     70 H70        15.0116  -31.4695  -44.3722 H         1 UNK         0.0865 
     71 H71        17.7475  -31.5078  -43.6787 H         1 UNK         0.1346 
     72 H72        18.3689  -28.9536  -40.2949 H         1 UNK         0.1412 
     73 H73        14.8777  -28.4692  -42.7359 H         1 UNK         0.1426 
     74 H74        15.5337  -27.8878  -39.6797 H         1 UNK         0.0716 
     75 H75        15.3385  -26.8355  -41.0598 H         1 UNK         0.0716 
     76 H76        17.9297  -24.5437  -41.3820 H         1 UNK         0.0695 
     77 H77        17.4711  -25.9813  -42.2450 H         1 UNK         0.0695 
     78 H78        19.6861  -27.0578  -41.3284 H         1 UNK         0.0983 
     79 H79        19.1901  -25.7159  -43.6669 H         1 UNK         0.3095 
     80 H80        20.8229  -25.2614  -45.4163 H         1 UNK         0.0454 
     81 H81        23.1488  -27.2577  -45.2438 H         1 UNK         0.0851 
     82 H82        23.2943  -25.5066  -45.1767 H         1 UNK         0.0851 
     83 H83        22.7311  -26.2796  -46.6488 H         1 UNK         0.0851 
     84 H84        20.9615  -28.1665  -45.8435 H         1 UNK         0.2976 
     85 H85        20.6020  -26.6899  -39.4008 H         1 UNK         0.3116 
     86 H86        21.8235  -25.9553  -37.7563 H         1 UNK         0.0646 
     87 H87        21.4253  -23.0717  -38.7079 H         1 UNK         0.0847 
     88 H88        22.0165  -23.5845  -37.1385 H         1 UNK         0.0847 
     89 H89        20.3602  -23.9399  -37.6024 H         1 UNK         0.0847 
     90 H90        22.7505  -24.6447  -40.9089 H         1 UNK         0.3040 
     91 H91        25.5715  -24.3527  -40.3216 H         1 UNK         0.1015 
     92 H92        24.0967  -24.6663  -42.9937 H         1 UNK         0.0786 
     93 H93        25.7806  -24.1961  -42.8101 H         1 UNK         0.0786 
     94 H94        24.5091  -23.1432  -42.2093 H         1 UNK         0.0786 
     95 H95        23.5470  -26.9537  -41.7013 H         1 UNK         0.3172 
     96 H96        25.7200  -28.9460  -41.2095 H         1 UNK         0.0595 
     97 H97        24.6082  -30.2911  -43.0015 H         1 UNK         0.0839 
     98 H98        25.1458  -28.7498  -43.6509 H         1 UNK         0.0839 
     99 H99        23.4433  -29.0035  -43.2777 H         1 UNK         0.0839 
    100 H100       25.0345  -30.8452  -40.2073 H         1 UNK         0.2998 
    101 H101       22.4678  -30.7130  -38.6843 H         1 UNK         0.0822 
    102 H102       23.5596  -32.3678  -37.1903 H         1 UNK         0.0787 
    103 H103       25.0035  -32.3662  -38.1936 H         1 UNK         0.0787 
    104 H104       24.5297  -30.9102  -37.3198 H         1 UNK         0.0787 
    105 H105       24.4547  -32.9050  -40.7372 H         1 UNK         0.3055 
    106 H106       22.4652  -35.0134  -40.7267 H         1 UNK         0.1106 
    107 H107       24.0292  -36.1021  -42.3366 H         1 UNK         0.0828 
    108 H108       24.9926  -34.6344  -42.4259 H         1 UNK         0.0828 
    109 H109       24.8800  -35.5317  -40.9122 H         1 UNK         0.0828 
    110 H110       23.4698  -32.5032  -43.0412 H         1 UNK         0.2931 
    111 H111       22.6122  -31.6322  -44.8736 H         1 UNK         0.0412 
    112 H112       23.5168  -34.4933  -45.1637 H         1 UNK         0.3472 
    113 H113       22.7561  -35.0024  -46.6509 H         1 UNK         0.3472 
    114 H114       20.1354  -31.3632  -45.0744 H         1 UNK         0.0970 
    115 H115       19.8985  -32.5557  -43.8358 H         1 UNK         0.0970 
    116 H116       19.9327  -30.6577  -40.7179 H         1 UNK         0.0612 
    117 H117       19.4430  -32.0393  -41.6600 H         1 UNK         0.0612 
@<TRIPOS>BOND
     1    1    2 1    
     2    1   62 1    
     3    1   63 1    
     4    1   64 1    
     5    2    3 2    
     6    2    4 am   BACKBONE|DICT|INTERRES
     7    4    5 1    
     8    4   65 1    
     9    5    6 1    
    10    5   25 1    
    11    5   66 1    
    12    6    7 1    
    13    6   67 1    
    14    6   68 1    
    15    7    8 1    
    16    8    9 1    
    17    8   69 1    
    18    8   70 1    
    19    9   10 ar   
    20    9   14 ar   
    21   10   11 ar   
    22   10   71 1    
    23   11   12 ar   
    24   11   61 1    
    25   12   13 ar   
    26   12   72 1    
    27   13   14 ar   
    28   13   15 1    
    29   14   73 1    
    30   15   16 1    
    31   15   74 1    
    32   15   75 1    
    33   16   17 1    
    34   17   18 1    
    35   17   76 1    
    36   17   77 1    
    37   18   19 1    
    38   18   27 1    
    39   18   78 1    
    40   19   20 am   BACKBONE|DICT|INTERRES
    41   19   79 1    
    42   20   21 2    
    43   20   22 1    
    44   22   23 1    
    45   22   24 1    
    46   22   80 1    
    47   23   81 1    
    48   23   82 1    
    49   23   83 1    
    50   24   25 am   BACKBONE|DICT|INTERRES
    51   24   84 1    
    52   25   26 2    
    53   27   28 2    
    54   27   29 am   BACKBONE|DICT|INTERRES
    55   29   30 1    
    56   29   85 1    
    57   30   31 1    
    58   30   32 1    
    59   30   86 1    
    60   31   87 1    
    61   31   88 1    
    62   31   89 1    
    63   32   33 2    
    64   32   34 am   BACKBONE|DICT|INTERRES
    65   34   35 1    
    66   34   90 1    
    67   35   36 1    
    68   35   37 1    
    69   35   91 1    
    70   36   92 1    
    71   36   93 1    
    72   36   94 1    
    73   37   38 2    
    74   37   39 am   BACKBONE|DICT|INTERRES
    75   39   40 1    
    76   39   95 1    
    77   40   41 1    
    78   40   42 1    
    79   40   96 1    
    80   41   97 1    
    81   41   98 1    
    82   41   99 1    
    83   42   43 2    
    84   42   44 am   BACKBONE|DICT|INTERRES
    85   44   45 1    
    86   44  100 1    
    87   45   46 1    
    88   45   47 1    
    89   45  101 1    
    90   46  102 1    
    91   46  103 1    
    92   46  104 1    
    93   47   48 2    
    94   47   49 am   BACKBONE|DICT|INTERRES
    95   49   50 1    
    96   49  105 1    
    97   50   51 1    
    98   50   52 1    
    99   50  106 1    
   100   51  107 1    
   101   51  108 1    
   102   51  109 1    
   103   52   53 2    
   104   52   54 am   BACKBONE|DICT|INTERRES
   105   54   55 1    
   106   54  110 1    
   107   55   56 1    
   108   55   59 1    
   109   55  111 1    
   110   56   57 am   BACKBONE|DICT|INTERRES
   111   56   58 2    
   112   57  112 1    
   113   57  113 1    
   114   59   60 1    
   115   59  114 1    
   116   59  115 1    
   117   60   61 1    
   118   61  116 1    
   119   61  117 1    
@<TRIPOS>SUBSTRUCTURE
     1 UNK         1 GROUP             0       ****    0 ROOT    
