@<TRIPOS>MOLECULE
3R8
117   119    1
SMALL
USER_CHARGES


@<TRIPOS>ATOM
      1 CA         20.8055  -22.4134  -44.4282 C.3       0 UNK        -0.2013 
      2 C          21.1315  -23.8445  -44.8281 C.2       0 UNK         0.4866 
      3 O          22.2876  -24.1502  -45.1207 O.2       0 UNK        -0.5176 
      4 N          20.1193  -24.7209  -44.8448 N.am      1 UNK        -0.4884 
      5 CA         20.2533  -26.1607  -45.0871 C.3       1 UNK         0.0853 
      6 C6         18.9353  -26.7630  -45.6407 C.3       10 UNK        -0.0849 
      7 S7         17.5382  -26.7177  -44.4650 S.3       10 UNK        -0.2776 
      8 C8         16.4575  -27.9979  -45.1765 C.3       10 UNK         0.0316 
      9 C9         16.8590  -29.4017  -44.7422 C.ar      10 UNK        -0.0863 
     10 C10        17.5315  -30.2619  -45.6172 C.ar      10 UNK        -0.1009 
     11 C11        17.8181  -31.5796  -45.2405 C.ar      10 UNK        -0.0712 
     12 C12        17.4499  -32.0241  -43.9657 C.ar      10 UNK        -0.0894 
     13 C13        16.7845  -31.1697  -43.0791 C.ar      10 UNK        -0.0745 
     14 C14        16.4897  -29.8628  -43.4766 C.ar      10 UNK        -0.0972 
     15 C15        16.3204  -31.6795  -41.7211 C.3       10 UNK         0.0209 
     16 S16        17.5746  -31.4570  -40.4209 S.3       10 UNK        -0.2568 
     17 C17        17.4155  -29.6822  -40.0131 C.3       10 UNK        -0.0983 
     18 CA         18.7825  -28.9584  -40.0353 C.3       3 UNK         0.0876 
     19 N          19.4566  -29.0874  -41.3295 N.am      3 UNK        -0.4424 
     20 C          20.7733  -28.9281  -41.4946 C.2       2 UNK         0.4918 
     21 O          21.5496  -28.5884  -40.6022 O.2       2 UNK        -0.4875 
     22 CA         21.3153  -29.1731  -42.9068 C.3       2 UNK         0.0481 
     23 CB         21.0115  -30.6058  -43.3456 C.3       2 UNK        -0.1831 
     24 N          20.8210  -28.2445  -43.9244 N.am      2 UNK        -0.4498 
     25 C          20.7872  -26.9070  -43.8415 C.2       1 UNK         0.5027 
     26 O          21.1517  -26.2795  -42.8422 O.2       1 UNK        -0.4969 
     27 C          18.6559  -27.4889  -39.5805 C.2       3 UNK         0.5005 
     28 O          18.4423  -27.2484  -38.3910 O.2       3 UNK        -0.5279 
     29 N          18.7983  -26.5362  -40.5149 N.am      4 UNK        -0.4463 
     30 CA         18.8266  -25.1036  -40.2300 C.3       4 UNK         0.0283 
     31 CB         18.5027  -24.3063  -41.5026 C.3       4 UNK        -0.1875 
     32 C          20.1732  -24.6622  -39.6346 C.2       4 UNK         0.4949 
     33 O          20.1691  -23.9348  -38.6407 O.2       4 UNK        -0.5039 
     34 N          21.2921  -25.0938  -40.2385 N.am      5 UNK        -0.4663 
     35 CA         22.6383  -24.6873  -39.8205 C.3       5 UNK         0.0242 
     36 CB         22.9183  -23.2389  -40.2733 C.3       5 UNK        -0.1982 
     37 C          23.7733  -25.6029  -40.3059 C.2       5 UNK         0.5017 
     38 O          24.7634  -25.7325  -39.5848 O.2       5 UNK        -0.5012 
     39 N          23.6706  -26.1643  -41.5205 N.am      6 UNK        -0.4439 
     40 CA         24.8061  -26.7901  -42.2155 C.3       6 UNK         0.0297 
     41 CB         24.5113  -26.8839  -43.7219 C.3       6 UNK        -0.2006 
     42 C          25.2603  -28.1528  -41.6576 C.2       6 UNK         0.4892 
     43 O          26.4022  -28.5377  -41.9115 O.2       6 UNK        -0.5089 
     44 N          24.3798  -28.8559  -40.9285 N.am      7 UNK        -0.4243 
     45 CA         24.5953  -30.1645  -40.2905 C.3       7 UNK         0.0196 
     46 CB         25.6194  -30.0449  -39.1415 C.3       7 UNK        -0.2007 
     47 C          24.9294  -31.3109  -41.2723 C.2       7 UNK         0.5020 
     48 O          25.6212  -32.2587  -40.8954 O.2       7 UNK        -0.5147 
     49 N          24.4261  -31.2110  -42.5093 N.am      8 UNK        -0.4734 
     50 CA         24.5414  -32.2255  -43.5617 C.3       8 UNK         0.0238 
     51 CB         24.7009  -31.5033  -44.9164 C.3       8 UNK        -0.1912 
     52 C          23.3414  -33.1982  -43.5215 C.2       8 UNK         0.5038 
     53 O          22.7614  -33.4046  -42.4527 O.2       8 UNK        -0.5046 
     54 N          22.9744  -33.7600  -44.6830 N.am      9 UNK        -0.4200 
     55 CA         21.8336  -34.6731  -44.8894 C.3       9 UNK         0.0839 
     56 C          21.9432  -35.9907  -44.0572 C.2       9 UNK         0.5513 
     57 N          20.8432  -36.6763  -43.7724 N.am      9 UNK        -0.7519 
     58 O          23.0366  -36.4400  -43.7180 O.2       9 UNK        -0.4960 
     59 C59        20.4586  -33.9407  -44.7791 C.3       10 UNK        -0.0876 
     60 S60        20.2692  -32.6440  -46.0543 S.3       10 UNK        -0.2414 
     61 C61        18.4603  -32.5375  -46.2381 C.3       10 UNK         0.0169 
     62 H62        21.3551  -22.1439  -43.5267 H         1 UNK         0.0903 
     63 H63        21.0941  -21.7260  -45.2227 H         1 UNK         0.0903 
     64 H64        19.7426  -22.2767  -44.2303 H         1 UNK         0.0903 
     65 H65        19.1902  -24.4172  -44.5904 H         1 UNK         0.3096 
     66 H66        21.0156  -26.2932  -45.8585 H         1 UNK         0.1121 
     67 H67        18.6362  -26.2181  -46.5377 H         1 UNK         0.0849 
     68 H68        19.0946  -27.7892  -45.9741 H         1 UNK         0.0849 
     69 H69        15.4325  -27.8042  -44.8563 H         1 UNK         0.0865 
     70 H70        16.4496  -27.9135  -46.2644 H         1 UNK         0.0865 
     71 H71        17.7987  -29.9191  -46.6076 H         1 UNK         0.1346 
     72 H72        17.6580  -33.0440  -43.6728 H         1 UNK         0.1412 
     73 H73        15.9434  -29.2059  -42.8142 H         1 UNK         0.1426 
     74 H74        16.0841  -32.7422  -41.7934 H         1 UNK         0.0716 
     75 H75        15.3926  -31.1882  -41.4236 H         1 UNK         0.0716 
     76 H76        16.7125  -29.1968  -40.6892 H         1 UNK         0.0695 
     77 H77        16.9685  -29.6157  -39.0193 H         1 UNK         0.0695 
     78 H78        19.4147  -29.4460  -39.2890 H         1 UNK         0.0983 
     79 H79        18.8865  -29.3804  -42.1102 H         1 UNK         0.3095 
     80 H80        22.3971  -29.0637  -42.8615 H         1 UNK         0.0454 
     81 H81        21.2413  -31.3179  -42.5532 H         1 UNK         0.0851 
     82 H82        21.6011  -30.8775  -44.2185 H         1 UNK         0.0851 
     83 H83        19.9606  -30.7396  -43.5971 H         1 UNK         0.0851 
     84 H84        20.4833  -28.6724  -44.7740 H         1 UNK         0.2976 
     85 H85        18.9939  -26.8196  -41.4642 H         1 UNK         0.3116 
     86 H86        18.0469  -24.8841  -39.4971 H         1 UNK         0.0646 
     87 H87        19.2627  -24.4468  -42.2684 H         1 UNK         0.0847 
     88 H88        17.5405  -24.5986  -41.9234 H         1 UNK         0.0847 
     89 H89        18.4533  -23.2379  -41.2887 H         1 UNK         0.0847 
     90 H90        21.2139  -25.6896  -41.0586 H         1 UNK         0.3040 
     91 H91        22.6748  -24.7176  -38.7288 H         1 UNK         0.1015 
     92 H92        23.9285  -22.9294  -40.0008 H         1 UNK         0.0786 
     93 H93        22.2334  -22.5301  -39.8082 H         1 UNK         0.0786 
     94 H94        22.8249  -23.1339  -41.3550 H         1 UNK         0.0786 
     95 H95        22.8137  -26.0493  -42.0557 H         1 UNK         0.3172 
     96 H96        25.6584  -26.1160  -42.1037 H         1 UNK         0.0595 
     97 H97        23.6899  -27.5614  -43.9425 H         1 UNK         0.0839 
     98 H98        25.3832  -27.2508  -44.2654 H         1 UNK         0.0839 
     99 H99        24.2612  -25.9081  -44.1389 H         1 UNK         0.0839 
    100 H100       23.4554  -28.4579  -40.7816 H         1 UNK         0.2998 
    101 H101       23.6375  -30.4348  -39.8430 H         1 UNK         0.0822 
    102 H102       25.6702  -30.9677  -38.5623 H         1 UNK         0.0787 
    103 H103       25.3485  -29.2458  -38.4514 H         1 UNK         0.0787 
    104 H104       26.6232  -29.8397  -39.5150 H         1 UNK         0.0787 
    105 H105       23.8599  -30.4052  -42.7209 H         1 UNK         0.3055 
    106 H106       25.4391  -32.8239  -43.3906 H         1 UNK         0.1106 
    107 H107       23.7924  -30.9773  -45.2117 H         1 UNK         0.0828 
    108 H108       25.5073  -30.7703  -44.8765 H         1 UNK         0.0828 
    109 H109       24.9556  -32.2005  -45.7152 H         1 UNK         0.0828 
    110 H110       23.5149  -33.5533  -45.5094 H         1 UNK         0.2931 
    111 H111       21.9311  -35.0114  -45.9217 H         1 UNK         0.0412 
    112 H112       20.9288  -37.5380  -43.2556 H         1 UNK         0.3472 
    113 H113       19.9325  -36.3584  -44.0621 H         1 UNK         0.3472 
    114 H114       19.6372  -34.6448  -44.9098 H         1 UNK         0.0970 
    115 H115       20.3291  -33.4993  -43.7900 H         1 UNK         0.0970 
    116 H116       18.0124  -33.5283  -46.1522 H         1 UNK         0.0612 
    117 H117       18.2434  -32.2046  -47.2542 H         1 UNK         0.0612 
@<TRIPOS>BOND
     1    1    2 1    
     2    1   62 1    
     3    1   63 1    
     4    1   64 1    
     5    2    3 2    
     6    2    4 am   BACKBONE|DICT|INTERRES
     7    4    5 1    
     8    4   65 1    
     9    5    6 1    
    10    5   25 1    
    11    5   66 1    
    12    6    7 1    
    13    6   67 1    
    14    6   68 1    
    15    7    8 1    
    16    8    9 1    
    17    8   69 1    
    18    8   70 1    
    19    9   10 ar   
    20    9   14 ar   
    21   10   11 ar   
    22   10   71 1    
    23   11   12 ar   
    24   11   61 1    
    25   12   13 ar   
    26   12   72 1    
    27   13   14 ar   
    28   13   15 1    
    29   14   73 1    
    30   15   16 1    
    31   15   74 1    
    32   15   75 1    
    33   16   17 1    
    34   17   18 1    
    35   17   76 1    
    36   17   77 1    
    37   18   19 1    
    38   18   27 1    
    39   18   78 1    
    40   19   20 am   BACKBONE|DICT|INTERRES
    41   19   79 1    
    42   20   21 2    
    43   20   22 1    
    44   22   23 1    
    45   22   24 1    
    46   22   80 1    
    47   23   81 1    
    48   23   82 1    
    49   23   83 1    
    50   24   25 am   BACKBONE|DICT|INTERRES
    51   24   84 1    
    52   25   26 2    
    53   27   28 2    
    54   27   29 am   BACKBONE|DICT|INTERRES
    55   29   30 1    
    56   29   85 1    
    57   30   31 1    
    58   30   32 1    
    59   30   86 1    
    60   31   87 1    
    61   31   88 1    
    62   31   89 1    
    63   32   33 2    
    64   32   34 am   BACKBONE|DICT|INTERRES
    65   34   35 1    
    66   34   90 1    
    67   35   36 1    
    68   35   37 1    
    69   35   91 1    
    70   36   92 1    
    71   36   93 1    
    72   36   94 1    
    73   37   38 2    
    74   37   39 am   BACKBONE|DICT|INTERRES
    75   39   40 1    
    76   39   95 1    
    77   40   41 1    
    78   40   42 1    
    79   40   96 1    
    80   41   97 1    
    81   41   98 1    
    82   41   99 1    
    83   42   43 2    
    84   42   44 am   BACKBONE|DICT|INTERRES
    85   44   45 1    
    86   44  100 1    
    87   45   46 1    
    88   45   47 1    
    89   45  101 1    
    90   46  102 1    
    91   46  103 1    
    92   46  104 1    
    93   47   48 2    
    94   47   49 am   BACKBONE|DICT|INTERRES
    95   49   50 1    
    96   49  105 1    
    97   50   51 1    
    98   50   52 1    
    99   50  106 1    
   100   51  107 1    
   101   51  108 1    
   102   51  109 1    
   103   52   53 2    
   104   52   54 am   BACKBONE|DICT|INTERRES
   105   54   55 1    
   106   54  110 1    
   107   55   56 1    
   108   55   59 1    
   109   55  111 1    
   110   56   57 am   BACKBONE|DICT|INTERRES
   111   56   58 2    
   112   57  112 1    
   113   57  113 1    
   114   59   60 1    
   115   59  114 1    
   116   59  115 1    
   117   60   61 1    
   118   61  116 1    
   119   61  117 1    
@<TRIPOS>SUBSTRUCTURE
     1 UNK         1 GROUP             0       ****    0 ROOT    
