@<TRIPOS>MOLECULE
3R8
117   119    1
SMALL
USER_CHARGES


@<TRIPOS>ATOM
      1 CA         19.5337  -24.3667  -48.9168 C.3       0 UNK        -0.2013 
      2 C          18.2846  -23.8896  -48.1819 C.2       0 UNK         0.4866 
      3 O          17.5744  -23.0285  -48.6981 O.2       0 UNK        -0.5176 
      4 N          17.9717  -24.4004  -46.9855 N.am      1 UNK        -0.4884 
      5 CA         18.7304  -25.3730  -46.1950 C.3       1 UNK         0.0853 
      6 C6         18.0291  -26.7511  -46.1458 C.3       10 UNK        -0.0849 
      7 S7         18.0926  -27.6740  -47.7160 S.3       10 UNK        -0.2776 
      8 C8         16.8284  -28.9579  -47.4224 C.3       10 UNK         0.0316 
      9 C9         17.0540  -29.6861  -46.1036 C.ar      10 UNK        -0.0863 
     10 C10        18.0312  -30.6797  -46.0001 C.ar      10 UNK        -0.1009 
     11 C11        18.2751  -31.3060  -44.7739 C.ar      10 UNK        -0.0712 
     12 C12        17.5324  -30.9376  -43.6476 C.ar      10 UNK        -0.0894 
     13 C13        16.5659  -29.9323  -43.7373 C.ar      10 UNK        -0.0745 
     14 C14        16.3147  -29.3288  -44.9721 C.ar      10 UNK        -0.0972 
     15 C15        15.8093  -29.4647  -42.5040 C.3       10 UNK         0.0209 
     16 S16        16.4438  -27.8585  -41.9182 S.3       10 UNK        -0.2568 
     17 C17        17.8246  -28.3471  -40.8293 C.3       10 UNK        -0.0983 
     18 CA         19.1979  -28.4339  -41.5549 C.3       3 UNK         0.0876 
     19 N          19.5679  -27.1924  -42.2489 N.am      3 UNK        -0.4424 
     20 C          20.0065  -26.0412  -41.7158 C.2       2 UNK         0.4918 
     21 O          20.2501  -25.8898  -40.5176 O.2       2 UNK        -0.4875 
     22 CA         20.2148  -24.8504  -42.6770 C.3       2 UNK         0.0481 
     23 CB         21.6420  -24.2860  -42.5741 C.3       2 UNK        -0.1831 
     24 N          19.9437  -25.1962  -44.0785 N.am      2 UNK        -0.4498 
     25 C          18.8532  -24.8239  -44.7629 C.2       1 UNK         0.5027 
     26 O          17.9501  -24.1211  -44.3001 O.2       1 UNK        -0.4969 
     27 C          20.3344  -28.9489  -40.6447 C.2       3 UNK         0.5005 
     28 O          21.3337  -29.4563  -41.1542 O.2       3 UNK        -0.5279 
     29 N          20.1933  -28.7839  -39.3209 N.am      4 UNK        -0.4463 
     30 CA         21.1846  -29.1656  -38.3100 C.3       4 UNK         0.0283 
     31 CB         20.6227  -28.8781  -36.9092 C.3       4 UNK        -0.1875 
     32 C          22.5531  -28.4823  -38.4880 C.2       4 UNK         0.4949 
     33 O          23.5727  -29.0859  -38.1573 O.2       4 UNK        -0.5039 
     34 N          22.5590  -27.2586  -39.0332 N.am      5 UNK        -0.4663 
     35 CA         23.7772  -26.5131  -39.3521 C.3       5 UNK         0.0242 
     36 CB         23.5039  -25.0103  -39.1865 C.3       5 UNK        -0.1982 
     37 C          24.3368  -26.8353  -40.7504 C.2       5 UNK         0.5017 
     38 O          25.4739  -26.4550  -41.0306 O.2       5 UNK        -0.5012 
     39 N          23.5787  -27.5492  -41.5984 N.am      6 UNK        -0.4439 
     40 CA         24.0058  -27.9916  -42.9307 C.3       6 UNK         0.0297 
     41 CB         22.7916  -28.0396  -43.8781 C.3       6 UNK        -0.2006 
     42 C          24.7352  -29.3430  -42.8322 C.2       6 UNK         0.4892 
     43 O          24.2906  -30.3338  -43.4126 O.2       6 UNK        -0.5089 
     44 N          25.8274  -29.3576  -42.0531 N.am      7 UNK        -0.4243 
     45 CA         26.6714  -30.5146  -41.7211 C.3       7 UNK         0.0196 
     46 CB         27.4305  -31.0104  -42.9709 C.3       7 UNK        -0.2007 
     47 C          25.9162  -31.6502  -40.9957 C.2       7 UNK         0.5020 
     48 O          26.3234  -32.8087  -41.0939 O.2       7 UNK        -0.5147 
     49 N          24.8418  -31.2934  -40.2734 N.am      8 UNK        -0.4734 
     50 CA         23.9399  -32.1712  -39.5182 C.3       8 UNK         0.0238 
     51 CB         24.6508  -32.7283  -38.2665 C.3       8 UNK        -0.1912 
     52 C          23.2917  -33.2667  -40.3865 C.2       8 UNK         0.5038 
     53 O          23.3028  -34.4390  -40.0042 O.2       8 UNK        -0.5046 
     54 N          22.7478  -32.8676  -41.5451 N.am      9 UNK        -0.4200 
     55 CA         22.0888  -33.7707  -42.5030 C.3       9 UNK         0.0839 
     56 C          20.7526  -34.4087  -42.0183 C.2       9 UNK         0.5513 
     57 N          20.1134  -33.9018  -40.9704 N.am      9 UNK        -0.7519 
     58 O          20.2941  -35.3862  -42.6039 O.2       9 UNK        -0.4960 
     59 C59        21.9564  -33.1273  -43.9084 C.3       10 UNK        -0.0876 
     60 S60        20.8818  -31.6512  -43.9599 S.3       10 UNK        -0.2414 
     61 C61        19.3591  -32.3624  -44.6558 C.3       10 UNK         0.0169 
     62 H62        20.4341  -24.0392  -48.3979 H         1 UNK         0.0903 
     63 H63        19.5512  -25.4519  -49.0054 H         1 UNK         0.0903 
     64 H64        19.5633  -23.9555  -49.9257 H         1 UNK         0.0903 
     65 H65        17.1779  -24.0166  -46.4887 H         1 UNK         0.3096 
     66 H66        19.7410  -25.4954  -46.5872 H         1 UNK         0.1121 
     67 H67        16.9856  -26.6309  -45.8471 H         1 UNK         0.0849 
     68 H68        18.4915  -27.3905  -45.3910 H         1 UNK         0.0849 
     69 H69        15.8393  -28.4972  -47.4411 H         1 UNK         0.0865 
     70 H70        16.8460  -29.6727  -48.2464 H         1 UNK         0.0865 
     71 H71        18.6175  -30.9471  -46.8688 H         1 UNK         0.1346 
     72 H72        17.7344  -31.4107  -42.6962 H         1 UNK         0.1412 
     73 H73        15.5698  -28.5474  -45.0394 H         1 UNK         0.1426 
     74 H74        15.8551  -30.2071  -41.7060 H         1 UNK         0.0716 
     75 H75        14.7531  -29.3532  -42.7536 H         1 UNK         0.0716 
     76 H76        17.5766  -29.2994  -40.3567 H         1 UNK         0.0695 
     77 H77        17.8623  -27.6077  -40.0275 H         1 UNK         0.0695 
     78 H78        19.1091  -29.1851  -42.3387 H         1 UNK         0.0983 
     79 H79        19.4048  -27.2050  -43.2426 H         1 UNK         0.3095 
     80 H80        19.5308  -24.0645  -42.3508 H         1 UNK         0.0454 
     81 H81        22.4029  -25.0609  -42.6652 H         1 UNK         0.0851 
     82 H82        21.7881  -23.7889  -41.6165 H         1 UNK         0.0851 
     83 H83        21.8317  -23.5378  -43.3438 H         1 UNK         0.0851 
     84 H84        20.6450  -25.7544  -44.5445 H         1 UNK         0.2976 
     85 H85        19.3620  -28.3195  -38.9843 H         1 UNK         0.3116 
     86 H86        21.3383  -30.2421  -38.3972 H         1 UNK         0.0646 
     87 H87        19.6995  -29.4291  -36.7288 H         1 UNK         0.0847 
     88 H88        21.3317  -29.1779  -36.1360 H         1 UNK         0.0847 
     89 H89        20.4158  -27.8167  -36.7662 H         1 UNK         0.0847 
     90 H90        21.6777  -26.8355  -39.3079 H         1 UNK         0.3040 
     91 H91        24.5610  -26.7807  -38.6393 H         1 UNK         0.1015 
     92 H92        22.6452  -24.6901  -39.7721 H         1 UNK         0.0786 
     93 H93        24.3610  -24.4117  -39.4986 H         1 UNK         0.0786 
     94 H94        23.3008  -24.7631  -38.1444 H         1 UNK         0.0786 
     95 H95        22.7037  -27.9408  -41.2650 H         1 UNK         0.3172 
     96 H96        24.7125  -27.2709  -43.3477 H         1 UNK         0.0595 
     97 H97        22.0386  -28.7529  -43.5436 H         1 UNK         0.0839 
     98 H98        23.0949  -28.3428  -44.8810 H         1 UNK         0.0839 
     99 H99        22.3184  -27.0645  -43.9676 H         1 UNK         0.0839 
    100 H100       26.0895  -28.4798  -41.6181 H         1 UNK         0.2998 
    101 H101       27.4142  -30.1515  -41.0092 H         1 UNK         0.0822 
    102 H102       28.1688  -31.7687  -42.7071 H         1 UNK         0.0787 
    103 H103       26.7558  -31.4555  -43.7030 H         1 UNK         0.0787 
    104 H104       27.9662  -30.1964  -43.4592 H         1 UNK         0.0787 
    105 H105       24.5996  -30.3123  -40.2548 H         1 UNK         0.3055 
    106 H106       23.1169  -31.5466  -39.1736 H         1 UNK         0.1106 
    107 H107       23.9602  -33.3011  -37.6463 H         1 UNK         0.0828 
    108 H108       25.4773  -33.3892  -38.5294 H         1 UNK         0.0828 
    109 H109       25.0470  -31.9232  -37.6475 H         1 UNK         0.0828 
    110 H110       22.7777  -31.8898  -41.8034 H         1 UNK         0.2931 
    111 H111       22.7712  -34.6142  -42.6274 H         1 UNK         0.0412 
    112 H112       19.2544  -34.3282  -40.6611 H         1 UNK         0.3472 
    113 H113       20.4796  -33.0944  -40.4937 H         1 UNK         0.3472 
    114 H114       21.6072  -33.8642  -44.6340 H         1 UNK         0.0970 
    115 H115       22.9443  -32.8248  -44.2599 H         1 UNK         0.0970 
    116 H116       19.0062  -33.1768  -44.0225 H         1 UNK         0.0612 
    117 H117       19.5756  -32.7980  -45.6325 H         1 UNK         0.0612 
@<TRIPOS>BOND
     1    1    2 1    
     2    1   62 1    
     3    1   63 1    
     4    1   64 1    
     5    2    3 2    
     6    2    4 am   BACKBONE|DICT|INTERRES
     7    4    5 1    
     8    4   65 1    
     9    5    6 1    
    10    5   25 1    
    11    5   66 1    
    12    6    7 1    
    13    6   67 1    
    14    6   68 1    
    15    7    8 1    
    16    8    9 1    
    17    8   69 1    
    18    8   70 1    
    19    9   10 ar   
    20    9   14 ar   
    21   10   11 ar   
    22   10   71 1    
    23   11   12 ar   
    24   11   61 1    
    25   12   13 ar   
    26   12   72 1    
    27   13   14 ar   
    28   13   15 1    
    29   14   73 1    
    30   15   16 1    
    31   15   74 1    
    32   15   75 1    
    33   16   17 1    
    34   17   18 1    
    35   17   76 1    
    36   17   77 1    
    37   18   19 1    
    38   18   27 1    
    39   18   78 1    
    40   19   20 am   BACKBONE|DICT|INTERRES
    41   19   79 1    
    42   20   21 2    
    43   20   22 1    
    44   22   23 1    
    45   22   24 1    
    46   22   80 1    
    47   23   81 1    
    48   23   82 1    
    49   23   83 1    
    50   24   25 am   BACKBONE|DICT|INTERRES
    51   24   84 1    
    52   25   26 2    
    53   27   28 2    
    54   27   29 am   BACKBONE|DICT|INTERRES
    55   29   30 1    
    56   29   85 1    
    57   30   31 1    
    58   30   32 1    
    59   30   86 1    
    60   31   87 1    
    61   31   88 1    
    62   31   89 1    
    63   32   33 2    
    64   32   34 am   BACKBONE|DICT|INTERRES
    65   34   35 1    
    66   34   90 1    
    67   35   36 1    
    68   35   37 1    
    69   35   91 1    
    70   36   92 1    
    71   36   93 1    
    72   36   94 1    
    73   37   38 2    
    74   37   39 am   BACKBONE|DICT|INTERRES
    75   39   40 1    
    76   39   95 1    
    77   40   41 1    
    78   40   42 1    
    79   40   96 1    
    80   41   97 1    
    81   41   98 1    
    82   41   99 1    
    83   42   43 2    
    84   42   44 am   BACKBONE|DICT|INTERRES
    85   44   45 1    
    86   44  100 1    
    87   45   46 1    
    88   45   47 1    
    89   45  101 1    
    90   46  102 1    
    91   46  103 1    
    92   46  104 1    
    93   47   48 2    
    94   47   49 am   BACKBONE|DICT|INTERRES
    95   49   50 1    
    96   49  105 1    
    97   50   51 1    
    98   50   52 1    
    99   50  106 1    
   100   51  107 1    
   101   51  108 1    
   102   51  109 1    
   103   52   53 2    
   104   52   54 am   BACKBONE|DICT|INTERRES
   105   54   55 1    
   106   54  110 1    
   107   55   56 1    
   108   55   59 1    
   109   55  111 1    
   110   56   57 am   BACKBONE|DICT|INTERRES
   111   56   58 2    
   112   57  112 1    
   113   57  113 1    
   114   59   60 1    
   115   59  114 1    
   116   59  115 1    
   117   60   61 1    
   118   61  116 1    
   119   61  117 1    
@<TRIPOS>SUBSTRUCTURE
     1 UNK         1 GROUP             0       ****    0 ROOT    
