@<TRIPOS>MOLECULE
3R8
117   119    1
SMALL
USER_CHARGES


@<TRIPOS>ATOM
      1 CA         19.3893  -27.0357  -39.0232 C.3       0 UNK        -0.2013 
      2 C          19.1941  -26.1634  -40.2540 C.2       0 UNK         0.4866 
      3 O          19.2931  -24.9399  -40.1602 O.2       0 UNK        -0.5176 
      4 N          18.9093  -26.7833  -41.4050 N.am      1 UNK        -0.4884 
      5 CA         18.7409  -26.1142  -42.6988 C.3       1 UNK         0.0853 
      6 C6         18.1346  -27.0748  -43.7528 C.3       10 UNK        -0.0849 
      7 S7         16.4170  -27.5833  -43.4018 S.3       10 UNK        -0.2776 
      8 C8         16.5436  -29.3855  -43.1035 C.3       10 UNK         0.0316 
      9 C9         17.3751  -30.1497  -44.1346 C.ar      10 UNK        -0.0863 
     10 C10        18.2997  -31.1006  -43.6955 C.ar      10 UNK        -0.1009 
     11 C11        19.1235  -31.7807  -44.5996 C.ar      10 UNK        -0.0712 
     12 C12        18.9986  -31.5086  -45.9657 C.ar      10 UNK        -0.0894 
     13 C13        18.0717  -30.5678  -46.4248 C.ar      10 UNK        -0.0745 
     14 C14        17.2494  -29.9059  -45.5064 C.ar      10 UNK        -0.0972 
     15 C15        17.9728  -30.2518  -47.9123 C.3       10 UNK         0.0209 
     16 S16        19.4508  -29.3888  -48.5508 S.3       10 UNK        -0.2568 
     17 C17        19.4458  -27.8398  -47.5808 C.3       10 UNK        -0.0983 
     18 CA         20.8386  -27.3059  -47.1459 C.3       3 UNK         0.0876 
     19 N          20.6613  -26.0587  -46.3913 N.am      3 UNK        -0.4424 
     20 C          21.6232  -25.2514  -45.9206 C.2       2 UNK         0.4918 
     21 O          22.8222  -25.4023  -46.1474 O.2       2 UNK        -0.4875 
     22 CA         21.1637  -24.1451  -44.9485 C.3       2 UNK         0.0481 
     23 CB         20.7947  -22.8670  -45.7166 C.3       2 UNK        -0.1831 
     24 N          20.0297  -24.5711  -44.1139 N.am      2 UNK        -0.4498 
     25 C          20.0869  -25.5839  -43.2355 C.2       1 UNK         0.5027 
     26 O          21.1354  -26.1719  -42.9571 O.2       1 UNK        -0.4969 
     27 C          21.6799  -28.3547  -46.3716 C.2       3 UNK         0.5005 
     28 O          22.4478  -29.0939  -46.9895 O.2       3 UNK        -0.5279 
     29 N          21.5652  -28.3665  -45.0350 N.am      4 UNK        -0.4463 
     30 CA         22.3376  -29.2244  -44.1338 C.3       4 UNK         0.0283 
     31 CB         21.5078  -29.4812  -42.8626 C.3       4 UNK        -0.1875 
     32 C          23.6865  -28.6058  -43.7303 C.2       4 UNK         0.4949 
     33 O          24.4323  -29.2542  -42.9997 O.2       4 UNK        -0.5039 
     34 N          23.9467  -27.3480  -44.1222 N.am      5 UNK        -0.4663 
     35 CA         25.0205  -26.4787  -43.6213 C.3       5 UNK         0.0242 
     36 CB         26.4055  -26.9903  -44.0717 C.3       5 UNK        -0.1982 
     37 C          24.9191  -26.2554  -42.0967 C.2       5 UNK         0.5017 
     38 O          25.9392  -26.2307  -41.4067 O.2       5 UNK        -0.5012 
     39 N          23.6753  -26.1274  -41.6065 N.am      6 UNK        -0.4439 
     40 CA         23.2633  -25.9863  -40.2059 C.3       6 UNK         0.0297 
     41 CB         23.8613  -24.7153  -39.5660 C.3       6 UNK        -0.2006 
     42 C          23.4761  -27.2450  -39.3375 C.2       6 UNK         0.4892 
     43 O          23.3664  -27.1449  -38.1139 O.2       6 UNK        -0.5089 
     44 N          23.7428  -28.4069  -39.9541 N.am      7 UNK        -0.4243 
     45 CA         23.8136  -29.7015  -39.2694 C.3       7 UNK         0.0196 
     46 CB         24.5558  -30.7124  -40.1588 C.3       7 UNK        -0.2007 
     47 C          22.4150  -30.2321  -38.9087 C.2       7 UNK         0.5020 
     48 O          21.4152  -29.8016  -39.4874 O.2       7 UNK        -0.5147 
     49 N          22.3765  -31.1906  -37.9741 N.am      8 UNK        -0.4734 
     50 CA         21.1470  -31.8202  -37.4774 C.3       8 UNK         0.0238 
     51 CB         21.4672  -32.6067  -36.1953 C.3       8 UNK        -0.1912 
     52 C          20.4363  -32.7291  -38.4985 C.2       8 UNK         0.5038 
     53 O          19.2328  -32.9500  -38.3539 O.2       8 UNK        -0.5046 
     54 N          21.1762  -33.2323  -39.4984 N.am      9 UNK        -0.4200 
     55 CA         20.6982  -34.1559  -40.5416 C.3       9 UNK         0.0839 
     56 C          20.3279  -35.5653  -39.9804 C.2       9 UNK         0.5513 
     57 N          19.5693  -36.3658  -40.7159 N.am      9 UNK        -0.7519 
     58 O          20.7639  -35.9639  -38.9017 O.2       9 UNK        -0.4960 
     59 C59        19.5981  -33.4968  -41.4289 C.3       10 UNK        -0.0876 
     60 S60        19.5319  -34.1440  -43.1394 S.3       10 UNK        -0.2414 
     61 C61        20.1961  -32.7545  -44.1140 C.3       10 UNK         0.0169 
     62 H62        19.2544  -28.0929  -39.2481 H         1 UNK         0.0903 
     63 H63        20.3932  -26.9047  -38.6210 H         1 UNK         0.0903 
     64 H64        18.6736  -26.7600  -38.2510 H         1 UNK         0.0903 
     65 H65        18.8534  -27.7904  -41.4229 H         1 UNK         0.3096 
     66 H66        18.0699  -25.2637  -42.5584 H         1 UNK         0.1121 
     67 H67        18.1015  -26.5982  -44.7338 H         1 UNK         0.0849 
     68 H68        18.7729  -27.9510  -43.8704 H         1 UNK         0.0849 
     69 H69        16.9519  -29.5304  -42.1020 H         1 UNK         0.0865 
     70 H70        15.5381  -29.8082  -43.0848 H         1 UNK         0.0865 
     71 H71        18.3919  -31.2857  -42.6375 H         1 UNK         0.1346 
     72 H72        19.6415  -32.0085  -46.6772 H         1 UNK         0.1412 
     73 H73        16.5341  -29.1737  -45.8554 H         1 UNK         0.1426 
     74 H74        17.0905  -29.6452  -48.1226 H         1 UNK         0.0716 
     75 H75        17.8420  -31.1824  -48.4663 H         1 UNK         0.0716 
     76 H76        18.9412  -27.0863  -48.1877 H         1 UNK         0.0695 
     77 H77        18.8188  -27.9719  -46.7001 H         1 UNK         0.0695 
     78 H78        21.4023  -27.0574  -48.0476 H         1 UNK         0.0983 
     79 H79        19.7075  -25.8105  -46.1796 H         1 UNK         0.3095 
     80 H80        22.0012  -23.9157  -44.2860 H         1 UNK         0.0454 
     81 H81        21.6319  -22.5241  -46.3263 H         1 UNK         0.0851 
     82 H82        19.9476  -23.0229  -46.3856 H         1 UNK         0.0851 
     83 H83        20.5400  -22.0547  -45.0356 H         1 UNK         0.0851 
     84 H84        19.1424  -24.1200  -44.2901 H         1 UNK         0.2976 
     85 H85        20.9805  -27.6758  -44.5873 H         1 UNK         0.3116 
     86 H86        22.5298  -30.1821  -44.6221 H         1 UNK         0.0646 
     87 H87        21.9295  -30.3018  -42.2818 H         1 UNK         0.0847 
     88 H88        20.4814  -29.7449  -43.0974 H         1 UNK         0.0847 
     89 H89        21.4769  -28.6134  -42.2034 H         1 UNK         0.0847 
     90 H90        23.2929  -26.8995  -44.7530 H         1 UNK         0.3040 
     91 H91        24.8648  -25.5012  -44.0810 H         1 UNK         0.1015 
     92 H92        26.6650  -27.9368  -43.5965 H         1 UNK         0.0786 
     93 H93        27.1876  -26.2747  -43.8153 H         1 UNK         0.0786 
     94 H94        26.4418  -27.1357  -45.1513 H         1 UNK         0.0786 
     95 H95        22.8976  -26.1791  -42.2625 H         1 UNK         0.3172 
     96 H96        22.1834  -25.8429  -40.2452 H         1 UNK         0.0595 
     97 H97        23.4093  -24.5181  -38.5932 H         1 UNK         0.0839 
     98 H98        24.9362  -24.8060  -39.4086 H         1 UNK         0.0839 
     99 H99        23.6837  -23.8369  -40.1861 H         1 UNK         0.0839 
    100 H100       23.8229  -28.4241  -40.9625 H         1 UNK         0.2998 
    101 H101       24.3828  -29.5696  -38.3465 H         1 UNK         0.0822 
    102 H102       24.7560  -31.6388  -39.6194 H         1 UNK         0.0787 
    103 H103       23.9769  -30.9735  -41.0450 H         1 UNK         0.0787 
    104 H104       25.5171  -30.3198  -40.4913 H         1 UNK         0.0787 
    105 H105       23.2432  -31.4963  -37.5536 H         1 UNK         0.3055 
    106 H106       20.4446  -31.0233  -37.2222 H         1 UNK         0.1106 
    107 H107       21.8839  -31.9590  -35.4239 H         1 UNK         0.0828 
    108 H108       20.5659  -33.0606  -35.7806 H         1 UNK         0.0828 
    109 H109       22.1789  -33.4119  -36.3819 H         1 UNK         0.0828 
    110 H110       22.1623  -33.0203  -39.5111 H         1 UNK         0.2931 
    111 H111       21.5748  -34.3222  -41.1689 H         1 UNK         0.0412 
    112 H112       19.3380  -37.2858  -40.3747 H         1 UNK         0.3472 
    113 H113       19.2343  -36.0568  -41.6172 H         1 UNK         0.3472 
    114 H114       18.6126  -33.5986  -40.9702 H         1 UNK         0.0970 
    115 H115       19.7888  -32.4251  -41.4743 H         1 UNK         0.0970 
    116 H116       20.7282  -33.1784  -44.9668 H         1 UNK         0.0612 
    117 H117       20.9478  -32.2199  -43.5339 H         1 UNK         0.0612 
@<TRIPOS>BOND
     1    1    2 1    
     2    1   62 1    
     3    1   63 1    
     4    1   64 1    
     5    2    3 2    
     6    2    4 am   BACKBONE|DICT|INTERRES
     7    4    5 1    
     8    4   65 1    
     9    5    6 1    
    10    5   25 1    
    11    5   66 1    
    12    6    7 1    
    13    6   67 1    
    14    6   68 1    
    15    7    8 1    
    16    8    9 1    
    17    8   69 1    
    18    8   70 1    
    19    9   10 ar   
    20    9   14 ar   
    21   10   11 ar   
    22   10   71 1    
    23   11   12 ar   
    24   11   61 1    
    25   12   13 ar   
    26   12   72 1    
    27   13   14 ar   
    28   13   15 1    
    29   14   73 1    
    30   15   16 1    
    31   15   74 1    
    32   15   75 1    
    33   16   17 1    
    34   17   18 1    
    35   17   76 1    
    36   17   77 1    
    37   18   19 1    
    38   18   27 1    
    39   18   78 1    
    40   19   20 am   BACKBONE|DICT|INTERRES
    41   19   79 1    
    42   20   21 2    
    43   20   22 1    
    44   22   23 1    
    45   22   24 1    
    46   22   80 1    
    47   23   81 1    
    48   23   82 1    
    49   23   83 1    
    50   24   25 am   BACKBONE|DICT|INTERRES
    51   24   84 1    
    52   25   26 2    
    53   27   28 2    
    54   27   29 am   BACKBONE|DICT|INTERRES
    55   29   30 1    
    56   29   85 1    
    57   30   31 1    
    58   30   32 1    
    59   30   86 1    
    60   31   87 1    
    61   31   88 1    
    62   31   89 1    
    63   32   33 2    
    64   32   34 am   BACKBONE|DICT|INTERRES
    65   34   35 1    
    66   34   90 1    
    67   35   36 1    
    68   35   37 1    
    69   35   91 1    
    70   36   92 1    
    71   36   93 1    
    72   36   94 1    
    73   37   38 2    
    74   37   39 am   BACKBONE|DICT|INTERRES
    75   39   40 1    
    76   39   95 1    
    77   40   41 1    
    78   40   42 1    
    79   40   96 1    
    80   41   97 1    
    81   41   98 1    
    82   41   99 1    
    83   42   43 2    
    84   42   44 am   BACKBONE|DICT|INTERRES
    85   44   45 1    
    86   44  100 1    
    87   45   46 1    
    88   45   47 1    
    89   45  101 1    
    90   46  102 1    
    91   46  103 1    
    92   46  104 1    
    93   47   48 2    
    94   47   49 am   BACKBONE|DICT|INTERRES
    95   49   50 1    
    96   49  105 1    
    97   50   51 1    
    98   50   52 1    
    99   50  106 1    
   100   51  107 1    
   101   51  108 1    
   102   51  109 1    
   103   52   53 2    
   104   52   54 am   BACKBONE|DICT|INTERRES
   105   54   55 1    
   106   54  110 1    
   107   55   56 1    
   108   55   59 1    
   109   55  111 1    
   110   56   57 am   BACKBONE|DICT|INTERRES
   111   56   58 2    
   112   57  112 1    
   113   57  113 1    
   114   59   60 1    
   115   59  114 1    
   116   59  115 1    
   117   60   61 1    
   118   61  116 1    
   119   61  117 1    
@<TRIPOS>SUBSTRUCTURE
     1 UNK         1 GROUP             0       ****    0 ROOT    
