@<TRIPOS>MOLECULE
3R8
117   119    1
SMALL
USER_CHARGES


@<TRIPOS>ATOM
      1 CA         15.0707  -22.9060  -44.3459 C.3       0 UNK        -0.2013 
      2 C          16.1786  -23.9423  -44.2362 C.2       0 UNK         0.4866 
      3 O          17.1831  -23.8454  -44.9423 O.2       0 UNK        -0.5176 
      4 N          16.0172  -24.9278  -43.3441 N.am      1 UNK        -0.4884 
      5 CA         16.9472  -26.0428  -43.1061 C.3       1 UNK         0.0853 
      6 C6         16.2115  -27.2738  -42.5177 C.3       10 UNK        -0.0849 
      7 S7         14.9901  -27.9310  -43.7058 S.3       10 UNK        -0.2776 
      8 C8         15.4871  -29.6810  -43.8600 C.3       10 UNK         0.0316 
      9 C9         16.9401  -29.9047  -44.2778 C.ar      10 UNK        -0.0863 
     10 C10        17.6556  -30.9567  -43.6999 C.ar      10 UNK        -0.1009 
     11 C11        18.9752  -31.2227  -44.0762 C.ar      10 UNK        -0.0712 
     12 C12        19.5870  -30.4133  -45.0417 C.ar      10 UNK        -0.0894 
     13 C13        18.8795  -29.3665  -45.6456 C.ar      10 UNK        -0.0745 
     14 C14        17.5568  -29.1210  -45.2605 C.ar      10 UNK        -0.0972 
     15 C15        19.5022  -28.5528  -46.7755 C.3       10 UNK         0.0209 
     16 S16        19.8846  -26.8368  -46.2941 S.3       10 UNK        -0.2568 
     17 C17        21.6134  -26.9924  -45.7306 C.3       10 UNK        -0.0983 
     18 CA         22.1299  -25.7597  -44.9346 C.3       3 UNK         0.0876 
     19 N          21.1712  -25.3293  -43.9163 N.am      3 UNK        -0.4424 
     20 C          21.2422  -24.2206  -43.1688 C.2       2 UNK         0.4918 
     21 O          22.1422  -23.3846  -43.2656 O.2       2 UNK        -0.4875 
     22 CA         20.0882  -24.0046  -42.1716 C.3       2 UNK         0.0481 
     23 CB         19.8742  -22.5174  -41.8356 C.3       2 UNK        -0.1831 
     24 N          18.8457  -24.5521  -42.7176 N.am      2 UNK        -0.4498 
     25 C          18.1628  -25.6053  -42.2568 C.2       1 UNK         0.5027 
     26 O          18.4630  -26.2166  -41.2302 O.2       1 UNK        -0.4969 
     27 C          23.5000  -26.0873  -44.3074 C.2       3 UNK         0.5005 
     28 O          23.5639  -26.4800  -43.1391 O.2       3 UNK        -0.5279 
     29 N          24.5664  -26.0286  -45.1174 N.am      4 UNK        -0.4463 
     30 CA         25.9210  -26.4526  -44.7314 C.3       4 UNK         0.0283 
     31 CB         26.9008  -26.1254  -45.8697 C.3       4 UNK        -0.1875 
     32 C          26.0205  -27.9446  -44.3492 C.2       4 UNK         0.4949 
     33 O          26.9182  -28.3173  -43.5944 O.2       4 UNK        -0.5039 
     34 N          25.0858  -28.7550  -44.8620 N.am      5 UNK        -0.4663 
     35 CA         24.9290  -30.1780  -44.5675 C.3       5 UNK         0.0242 
     36 CB         24.8455  -30.9403  -45.9035 C.3       5 UNK        -0.1982 
     37 C          23.7014  -30.4696  -43.6796 C.2       5 UNK         0.5017 
     38 O          23.3133  -31.6349  -43.5968 O.2       5 UNK        -0.5012 
     39 N          23.0962  -29.4432  -43.0552 N.am      6 UNK        -0.4439 
     40 CA         21.9659  -29.5925  -42.1306 C.3       6 UNK         0.0297 
     41 CB         20.9773  -28.4148  -42.2698 C.3       6 UNK        -0.2006 
     42 C          22.4545  -29.8307  -40.6888 C.2       6 UNK         0.4892 
     43 O          23.3148  -30.6878  -40.4742 O.2       6 UNK        -0.5089 
     44 N          21.8750  -29.1028  -39.7208 N.am      7 UNK        -0.4243 
     45 CA         22.0424  -29.2524  -38.2716 C.3       7 UNK         0.0196 
     46 CB         23.4799  -28.8939  -37.8278 C.3       7 UNK        -0.2007 
     47 C          21.5677  -30.6449  -37.8213 C.2       7 UNK         0.5020 
     48 O          20.3597  -30.8644  -37.7306 O.2       7 UNK        -0.5147 
     49 N          22.5100  -31.5639  -37.5802 N.am      8 UNK        -0.4734 
     50 CA         22.2340  -32.9722  -37.2872 C.3       8 UNK         0.0238 
     51 CB         23.4692  -33.5934  -36.6140 C.3       8 UNK        -0.1912 
     52 C          21.8334  -33.7892  -38.5315 C.2       8 UNK         0.5038 
     53 O          21.2442  -34.8587  -38.3666 O.2       8 UNK        -0.5046 
     54 N          22.1657  -33.2923  -39.7335 N.am      9 UNK        -0.4200 
     55 CA         21.9978  -33.9616  -41.0350 C.3       9 UNK         0.0839 
     56 C          22.8564  -35.2584  -41.1737 C.2       9 UNK         0.5513 
     57 N          22.6469  -36.0560  -42.2163 N.am      9 UNK        -0.7519 
     58 O          23.7548  -35.5327  -40.3764 O.2       9 UNK        -0.4960 
     59 C59        20.5018  -34.1446  -41.4349 C.3       10 UNK        -0.0876 
     60 S60        19.6423  -32.5538  -41.6892 S.3       10 UNK        -0.2414 
     61 C61        19.7045  -32.4388  -43.5113 C.3       10 UNK         0.0169 
     62 H62        14.6759  -22.8862  -45.3614 H         1 UNK         0.0903 
     63 H63        14.2457  -23.1169  -43.6656 H         1 UNK         0.0903 
     64 H64        15.4593  -21.9153  -44.1117 H         1 UNK         0.0903 
     65 H65        15.1775  -24.9455  -42.7823 H         1 UNK         0.3096 
     66 H66        17.3629  -26.3473  -44.0700 H         1 UNK         0.1121 
     67 H67        16.9207  -28.0627  -42.2597 H         1 UNK         0.0849 
     68 H68        15.6998  -27.0139  -41.5892 H         1 UNK         0.0849 
     69 H69        15.2873  -30.1716  -42.9059 H         1 UNK         0.0865 
     70 H70        14.8388  -30.1636  -44.5924 H         1 UNK         0.0865 
     71 H71        17.1766  -31.5916  -42.9669 H         1 UNK         0.1346 
     72 H72        20.6017  -30.6241  -45.3514 H         1 UNK         0.1412 
     73 H73        17.0026  -28.3264  -45.7413 H         1 UNK         0.1426 
     74 H74        20.4019  -29.0380  -47.1573 H         1 UNK         0.0716 
     75 H75        18.8018  -28.5253  -47.6115 H         1 UNK         0.0716 
     76 H76        21.6991  -27.9081  -45.1455 H         1 UNK         0.0695 
     77 H77        22.2337  -27.1500  -46.6147 H         1 UNK         0.0695 
     78 H78        22.2607  -24.9240  -45.6255 H         1 UNK         0.0983 
     79 H79        20.3847  -25.9434  -43.7773 H         1 UNK         0.3095 
     80 H80        20.3627  -24.5258  -41.2526 H         1 UNK         0.0454 
     81 H81        19.6507  -21.9310  -42.7276 H         1 UNK         0.0851 
     82 H82        19.0513  -22.3855  -41.1331 H         1 UNK         0.0851 
     83 H83        20.7634  -22.0864  -41.3737 H         1 UNK         0.0851 
     84 H84        18.5043  -24.1278  -43.5780 H         1 UNK         0.2976 
     85 H85        24.4466  -25.7062  -46.0679 H         1 UNK         0.3116 
     86 H86        26.2113  -25.8728  -43.8527 H         1 UNK         0.0646 
     87 H87        27.9202  -26.4036  -45.5982 H         1 UNK         0.0847 
     88 H88        26.9089  -25.0588  -46.0945 H         1 UNK         0.0847 
     89 H89        26.6513  -26.6620  -46.7858 H         1 UNK         0.0847 
     90 H90        24.3994  -28.3497  -45.4807 H         1 UNK         0.3040 
     91 H91        25.7998  -30.5474  -44.0214 H         1 UNK         0.1015 
     92 H92        25.7171  -30.7423  -46.5277 H         1 UNK         0.0786 
     93 H93        23.9559  -30.6641  -46.4709 H         1 UNK         0.0786 
     94 H94        24.8078  -32.0184  -45.7416 H         1 UNK         0.0786 
     95 H95        23.4989  -28.5136  -43.1221 H         1 UNK         0.3172 
     96 H96        21.4123  -30.4860  -42.4086 H         1 UNK         0.0595 
     97 H97        21.4258  -27.4624  -41.9879 H         1 UNK         0.0839 
     98 H98        20.0934  -28.5649  -41.6482 H         1 UNK         0.0839 
     99 H99        20.6035  -28.3290  -43.2868 H         1 UNK         0.0839 
    100 H100       21.1623  -28.4445  -40.0029 H         1 UNK         0.2998 
    101 H101       21.3680  -28.5331  -37.8038 H         1 UNK         0.0822 
    102 H102       23.7143  -27.8586  -38.0759 H         1 UNK         0.0787 
    103 H103       23.5919  -28.9963  -36.7475 H         1 UNK         0.0787 
    104 H104       24.2385  -29.5196  -38.2983 H         1 UNK         0.0787 
    105 H105       23.4769  -31.3016  -37.7112 H         1 UNK         0.3055 
    106 H106       21.3989  -33.0245  -36.5845 H         1 UNK         0.1106 
    107 H107       23.2862  -34.6361  -36.3498 H         1 UNK         0.0828 
    108 H108       24.3400  -33.5733  -37.2707 H         1 UNK         0.0828 
    109 H109       23.7275  -33.0688  -35.6941 H         1 UNK         0.0828 
    110 H110       22.6515  -32.4019  -39.7742 H         1 UNK         0.2931 
    111 H111       22.4435  -33.2739  -41.7524 H         1 UNK         0.0412 
    112 H112       23.2153  -36.8829  -42.3159 H         1 UNK         0.3472 
    113 H113       21.9514  -35.8427  -42.9159 H         1 UNK         0.3472 
    114 H114       19.9657  -34.7116  -40.6731 H         1 UNK         0.0970 
    115 H115       20.4002  -34.7276  -42.3499 H         1 UNK         0.0970 
    116 H116       20.7489  -32.4403  -43.8254 H         1 UNK         0.0612 
    117 H117       19.2509  -33.3335  -43.9398 H         1 UNK         0.0612 
@<TRIPOS>BOND
     1    1    2 1    
     2    1   62 1    
     3    1   63 1    
     4    1   64 1    
     5    2    3 2    
     6    2    4 am   BACKBONE|DICT|INTERRES
     7    4    5 1    
     8    4   65 1    
     9    5    6 1    
    10    5   25 1    
    11    5   66 1    
    12    6    7 1    
    13    6   67 1    
    14    6   68 1    
    15    7    8 1    
    16    8    9 1    
    17    8   69 1    
    18    8   70 1    
    19    9   10 ar   
    20    9   14 ar   
    21   10   11 ar   
    22   10   71 1    
    23   11   12 ar   
    24   11   61 1    
    25   12   13 ar   
    26   12   72 1    
    27   13   14 ar   
    28   13   15 1    
    29   14   73 1    
    30   15   16 1    
    31   15   74 1    
    32   15   75 1    
    33   16   17 1    
    34   17   18 1    
    35   17   76 1    
    36   17   77 1    
    37   18   19 1    
    38   18   27 1    
    39   18   78 1    
    40   19   20 am   BACKBONE|DICT|INTERRES
    41   19   79 1    
    42   20   21 2    
    43   20   22 1    
    44   22   23 1    
    45   22   24 1    
    46   22   80 1    
    47   23   81 1    
    48   23   82 1    
    49   23   83 1    
    50   24   25 am   BACKBONE|DICT|INTERRES
    51   24   84 1    
    52   25   26 2    
    53   27   28 2    
    54   27   29 am   BACKBONE|DICT|INTERRES
    55   29   30 1    
    56   29   85 1    
    57   30   31 1    
    58   30   32 1    
    59   30   86 1    
    60   31   87 1    
    61   31   88 1    
    62   31   89 1    
    63   32   33 2    
    64   32   34 am   BACKBONE|DICT|INTERRES
    65   34   35 1    
    66   34   90 1    
    67   35   36 1    
    68   35   37 1    
    69   35   91 1    
    70   36   92 1    
    71   36   93 1    
    72   36   94 1    
    73   37   38 2    
    74   37   39 am   BACKBONE|DICT|INTERRES
    75   39   40 1    
    76   39   95 1    
    77   40   41 1    
    78   40   42 1    
    79   40   96 1    
    80   41   97 1    
    81   41   98 1    
    82   41   99 1    
    83   42   43 2    
    84   42   44 am   BACKBONE|DICT|INTERRES
    85   44   45 1    
    86   44  100 1    
    87   45   46 1    
    88   45   47 1    
    89   45  101 1    
    90   46  102 1    
    91   46  103 1    
    92   46  104 1    
    93   47   48 2    
    94   47   49 am   BACKBONE|DICT|INTERRES
    95   49   50 1    
    96   49  105 1    
    97   50   51 1    
    98   50   52 1    
    99   50  106 1    
   100   51  107 1    
   101   51  108 1    
   102   51  109 1    
   103   52   53 2    
   104   52   54 am   BACKBONE|DICT|INTERRES
   105   54   55 1    
   106   54  110 1    
   107   55   56 1    
   108   55   59 1    
   109   55  111 1    
   110   56   57 am   BACKBONE|DICT|INTERRES
   111   56   58 2    
   112   57  112 1    
   113   57  113 1    
   114   59   60 1    
   115   59  114 1    
   116   59  115 1    
   117   60   61 1    
   118   61  116 1    
   119   61  117 1    
@<TRIPOS>SUBSTRUCTURE
     1 UNK         1 GROUP             0       ****    0 ROOT    
