@<TRIPOS>MOLECULE
3R8
117   119    1
SMALL
USER_CHARGES


@<TRIPOS>ATOM
      1 CA         14.5153  -23.7043  -41.3539 C.3       0 UNK        -0.2013 
      2 C          15.4633  -24.1541  -42.4556 C.2       0 UNK         0.4866 
      3 O          15.5655  -23.4874  -43.4859 O.2       0 UNK        -0.5176 
      4 N          16.1507  -25.2845  -42.2516 N.am      1 UNK        -0.4884 
      5 CA         17.1368  -25.8467  -43.1788 C.3       1 UNK         0.0853 
      6 C6         17.4904  -27.3120  -42.8257 C.3       10 UNK        -0.0849 
      7 S7         16.0548  -28.4351  -42.8941 S.3       10 UNK        -0.2776 
      8 C8         16.1168  -29.0374  -44.6129 C.3       10 UNK         0.0316 
      9 C9         17.3832  -29.8297  -44.9104 C.ar      10 UNK        -0.0863 
     10 C10        17.5842  -31.0808  -44.3235 C.ar      10 UNK        -0.1009 
     11 C11        18.7290  -31.8251  -44.6169 C.ar      10 UNK        -0.0712 
     12 C12        19.6847  -31.3011  -45.4946 C.ar      10 UNK        -0.0894 
     13 C13        19.5055  -30.0449  -46.0871 C.ar      10 UNK        -0.0745 
     14 C14        18.3393  -29.3228  -45.7951 C.ar      10 UNK        -0.0972 
     15 C15        20.5651  -29.5306  -47.0680 C.3       10 UNK         0.0209 
     16 S16        20.5379  -27.7224  -47.3565 S.3       10 UNK        -0.2568 
     17 C17        22.2169  -27.1642  -46.8812 C.3       10 UNK        -0.0983 
     18 CA         22.2924  -26.3772  -45.5426 C.3       3 UNK         0.0876 
     19 N          21.1929  -25.4227  -45.3851 N.am      3 UNK        -0.4424 
     20 C          21.2118  -24.3475  -44.5871 C.2       2 UNK         0.4918 
     21 O          22.1864  -23.9973  -43.9218 O.2       2 UNK        -0.4875 
     22 CA         19.9134  -23.5262  -44.5238 C.3       2 UNK         0.0481 
     23 CB         19.7498  -22.6637  -45.7861 C.3       2 UNK        -0.1831 
     24 N          18.7284  -24.3704  -44.3422 N.am      2 UNK        -0.4498 
     25 C          18.4094  -24.9758  -43.1889 C.2       1 UNK         0.5027 
     26 O          19.0709  -24.8706  -42.1537 O.2       1 UNK        -0.4969 
     27 C          22.3916  -27.3102  -44.3242 C.2       3 UNK         0.5005 
     28 O          23.4526  -27.3984  -43.7019 O.2       3 UNK        -0.5279 
     29 N          21.2836  -28.0078  -44.0273 N.am      4 UNK        -0.4463 
     30 CA         21.0869  -28.9517  -42.9170 C.3       4 UNK         0.0283 
     31 CB         20.9899  -28.1782  -41.5862 C.3       4 UNK        -0.1875 
     32 C          22.1351  -30.0832  -42.8475 C.2       4 UNK         0.4949 
     33 O          22.3953  -30.5972  -41.7600 O.2       4 UNK        -0.5039 
     34 N          22.7570  -30.4119  -43.9907 N.am      5 UNK        -0.4663 
     35 CA         23.9095  -31.3105  -44.1457 C.3       5 UNK         0.0242 
     36 CB         23.4777  -32.7795  -43.9659 C.3       5 UNK        -0.1982 
     37 C          25.1035  -30.9127  -43.2493 C.2       5 UNK         0.5017 
     38 O          25.7382  -31.7822  -42.6513 O.2       5 UNK        -0.5012 
     39 N          25.3608  -29.5967  -43.1634 N.am      6 UNK        -0.4439 
     40 CA         26.3389  -28.9341  -42.2923 C.3       6 UNK         0.0297 
     41 CB         27.7831  -29.3879  -42.5986 C.3       6 UNK        -0.2006 
     42 C          25.9553  -29.0555  -40.8048 C.2       6 UNK         0.4892 
     43 O          26.7918  -29.4172  -39.9754 O.2       6 UNK        -0.5089 
     44 N          24.6854  -28.7346  -40.5118 N.am      7 UNK        -0.4243 
     45 CA         24.0412  -28.7407  -39.1905 C.3       7 UNK         0.0196 
     46 CB         24.6609  -27.6651  -38.2724 C.3       7 UNK        -0.2007 
     47 C          23.9840  -30.1356  -38.5351 C.2       7 UNK         0.5020 
     48 O          24.1190  -30.2485  -37.3152 O.2       7 UNK        -0.5147 
     49 N          23.7680  -31.1706  -39.3542 N.am      8 UNK        -0.4734 
     50 CA         23.5738  -32.5543  -38.9192 C.3       8 UNK         0.0238 
     51 CB         24.3618  -33.4922  -39.8467 C.3       8 UNK        -0.1912 
     52 C          22.0848  -32.9343  -38.9044 C.2       8 UNK         0.5038 
     53 O          21.6731  -33.6997  -38.0314 O.2       8 UNK        -0.5046 
     54 N          21.3076  -32.4041  -39.8579 N.am      9 UNK        -0.4200 
     55 CA         19.8556  -32.6017  -39.9670 C.3       9 UNK         0.0839 
     56 C          19.0855  -31.7999  -38.8853 C.2       9 UNK         0.5513 
     57 N          17.9917  -32.3456  -38.3719 N.am      9 UNK        -0.7519 
     58 O          19.4440  -30.6754  -38.5410 O.2       9 UNK        -0.4960 
     59 C59        19.3312  -32.2514  -41.3839 C.3       10 UNK        -0.0876 
     60 S60        20.1384  -33.2464  -42.6831 S.3       10 UNK        -0.2414 
     61 C61        18.9074  -33.2143  -44.0199 C.3       10 UNK         0.0169 
     62 H62        13.4975  -23.6401  -41.7379 H         1 UNK         0.0903 
     63 H63        14.5158  -24.3926  -40.5088 H         1 UNK         0.0903 
     64 H64        14.8049  -22.7192  -40.9891 H         1 UNK         0.0903 
     65 H65        16.0314  -25.7917  -41.3862 H         1 UNK         0.3096 
     66 H66        16.7004  -25.8375  -44.1801 H         1 UNK         0.1121 
     67 H67        18.2775  -27.6885  -43.4787 H         1 UNK         0.0849 
     68 H68        17.8931  -27.3693  -41.8129 H         1 UNK         0.0849 
     69 H69        15.2493  -29.6738  -44.7933 H         1 UNK         0.0865 
     70 H70        16.0154  -28.1902  -45.2929 H         1 UNK         0.0865 
     71 H71        16.8391  -31.4789  -43.6482 H         1 UNK         0.1346 
     72 H72        20.5667  -31.8840  -45.7234 H         1 UNK         0.1412 
     73 H73        18.1570  -28.3663  -46.2631 H         1 UNK         0.1426 
     74 H74        20.4088  -30.0266  -48.0267 H         1 UNK         0.0716 
     75 H75        21.5551  -29.8358  -46.7296 H         1 UNK         0.0716 
     76 H76        22.5540  -26.5057  -47.6832 H         1 UNK         0.0695 
     77 H77        22.9195  -27.9994  -46.8947 H         1 UNK         0.0695 
     78 H78        23.2240  -25.8062  -45.5623 H         1 UNK         0.0983 
     79 H79        20.3576  -25.6246  -45.9147 H         1 UNK         0.3095 
     80 H80        19.9870  -22.8508  -43.6684 H         1 UNK         0.0454 
     81 H81        20.6174  -22.0185  -45.9315 H         1 UNK         0.0851 
     82 H82        18.8767  -22.0152  -45.7114 H         1 UNK         0.0851 
     83 H83        19.6410  -23.2698  -46.6862 H         1 UNK         0.0851 
     84 H84        18.1119  -24.4682  -45.1366 H         1 UNK         0.2976 
     85 H85        20.4940  -27.8987  -44.6483 H         1 UNK         0.3116 
     86 H86        20.1271  -29.4380  -43.0935 H         1 UNK         0.0646 
     87 H87        21.9328  -27.6937  -41.3357 H         1 UNK         0.0847 
     88 H88        20.2317  -27.3986  -41.6319 H         1 UNK         0.0847 
     89 H89        20.7244  -28.8383  -40.7589 H         1 UNK         0.0847 
     90 H90        22.4721  -29.9175  -44.8221 H         1 UNK         0.3040 
     91 H91        24.2594  -31.1969  -45.1730 H         1 UNK         0.1015 
     92 H92        24.3071  -33.4619  -44.1553 H         1 UNK         0.0786 
     93 H93        22.6774  -33.0440  -44.6566 H         1 UNK         0.0786 
     94 H94        23.1202  -32.9718  -42.9554 H         1 UNK         0.0786 
     95 H95        24.7278  -28.9615  -43.6418 H         1 UNK         0.3172 
     96 H96        26.2788  -27.8713  -42.5324 H         1 UNK         0.0595 
     97 H97        27.9549  -30.4275  -42.3185 H         1 UNK         0.0839 
     98 H98        28.5034  -28.7842  -42.0452 H         1 UNK         0.0839 
     99 H99        28.0173  -29.2815  -43.6576 H         1 UNK         0.0839 
    100 H100       24.0874  -28.4796  -41.2860 H         1 UNK         0.2998 
    101 H101       23.0013  -28.4595  -39.3573 H         1 UNK         0.0822 
    102 H102       24.0958  -27.5694  -37.3445 H         1 UNK         0.0787 
    103 H103       24.6605  -26.6861  -38.7517 H         1 UNK         0.0787 
    104 H104       25.6893  -27.9068  -38.0022 H         1 UNK         0.0787 
    105 H105       23.5977  -30.9732  -40.3372 H         1 UNK         0.3055 
    106 H106       23.9568  -32.6866  -37.9048 H         1 UNK         0.1106 
    107 H107       25.4265  -33.2580  -39.8332 H         1 UNK         0.0828 
    108 H108       24.2523  -34.5323  -39.5368 H         1 UNK         0.0828 
    109 H109       24.0212  -33.4204  -40.8790 H         1 UNK         0.0828 
    110 H110       21.7188  -31.7697  -40.5374 H         1 UNK         0.2931 
    111 H111       19.6603  -33.6631  -39.7985 H         1 UNK         0.0412 
    112 H112       17.4679  -31.8338  -37.6788 H         1 UNK         0.3472 
    113 H113       17.6853  -33.2644  -38.6529 H         1 UNK         0.3472 
    114 H114       18.2542  -32.4206  -41.4380 H         1 UNK         0.0970 
    115 H115       19.4843  -31.1942  -41.6028 H         1 UNK         0.0970 
    116 H116       19.2286  -33.9016  -44.8038 H         1 UNK         0.0612 
    117 H117       17.9590  -33.6033  -43.6461 H         1 UNK         0.0612 
@<TRIPOS>BOND
     1    1    2 1    
     2    1   62 1    
     3    1   63 1    
     4    1   64 1    
     5    2    3 2    
     6    2    4 am   BACKBONE|DICT|INTERRES
     7    4    5 1    
     8    4   65 1    
     9    5    6 1    
    10    5   25 1    
    11    5   66 1    
    12    6    7 1    
    13    6   67 1    
    14    6   68 1    
    15    7    8 1    
    16    8    9 1    
    17    8   69 1    
    18    8   70 1    
    19    9   10 ar   
    20    9   14 ar   
    21   10   11 ar   
    22   10   71 1    
    23   11   12 ar   
    24   11   61 1    
    25   12   13 ar   
    26   12   72 1    
    27   13   14 ar   
    28   13   15 1    
    29   14   73 1    
    30   15   16 1    
    31   15   74 1    
    32   15   75 1    
    33   16   17 1    
    34   17   18 1    
    35   17   76 1    
    36   17   77 1    
    37   18   19 1    
    38   18   27 1    
    39   18   78 1    
    40   19   20 am   BACKBONE|DICT|INTERRES
    41   19   79 1    
    42   20   21 2    
    43   20   22 1    
    44   22   23 1    
    45   22   24 1    
    46   22   80 1    
    47   23   81 1    
    48   23   82 1    
    49   23   83 1    
    50   24   25 am   BACKBONE|DICT|INTERRES
    51   24   84 1    
    52   25   26 2    
    53   27   28 2    
    54   27   29 am   BACKBONE|DICT|INTERRES
    55   29   30 1    
    56   29   85 1    
    57   30   31 1    
    58   30   32 1    
    59   30   86 1    
    60   31   87 1    
    61   31   88 1    
    62   31   89 1    
    63   32   33 2    
    64   32   34 am   BACKBONE|DICT|INTERRES
    65   34   35 1    
    66   34   90 1    
    67   35   36 1    
    68   35   37 1    
    69   35   91 1    
    70   36   92 1    
    71   36   93 1    
    72   36   94 1    
    73   37   38 2    
    74   37   39 am   BACKBONE|DICT|INTERRES
    75   39   40 1    
    76   39   95 1    
    77   40   41 1    
    78   40   42 1    
    79   40   96 1    
    80   41   97 1    
    81   41   98 1    
    82   41   99 1    
    83   42   43 2    
    84   42   44 am   BACKBONE|DICT|INTERRES
    85   44   45 1    
    86   44  100 1    
    87   45   46 1    
    88   45   47 1    
    89   45  101 1    
    90   46  102 1    
    91   46  103 1    
    92   46  104 1    
    93   47   48 2    
    94   47   49 am   BACKBONE|DICT|INTERRES
    95   49   50 1    
    96   49  105 1    
    97   50   51 1    
    98   50   52 1    
    99   50  106 1    
   100   51  107 1    
   101   51  108 1    
   102   51  109 1    
   103   52   53 2    
   104   52   54 am   BACKBONE|DICT|INTERRES
   105   54   55 1    
   106   54  110 1    
   107   55   56 1    
   108   55   59 1    
   109   55  111 1    
   110   56   57 am   BACKBONE|DICT|INTERRES
   111   56   58 2    
   112   57  112 1    
   113   57  113 1    
   114   59   60 1    
   115   59  114 1    
   116   59  115 1    
   117   60   61 1    
   118   61  116 1    
   119   61  117 1    
@<TRIPOS>SUBSTRUCTURE
     1 UNK         1 GROUP             0       ****    0 ROOT    
