@<TRIPOS>MOLECULE
3R8
117   119    1
SMALL
USER_CHARGES


@<TRIPOS>ATOM
      1 CA         11.7458  -28.0114  -41.6463 C.3       0 UNK        -0.2013 
      2 C          12.8482  -28.0497  -42.6949 C.2       0 UNK         0.4866 
      3 O          12.9057  -29.0009  -43.4742 O.2       0 UNK        -0.5176 
      4 N          13.6998  -27.0134  -42.7172 N.am      1 UNK        -0.4884 
      5 CA         14.8868  -26.8329  -43.5664 C.3       1 UNK         0.0853 
      6 C6         14.6207  -27.0708  -45.0770 C.3       10 UNK        -0.0849 
      7 S7         15.7303  -26.1005  -46.1520 S.3       10 UNK        -0.2776 
      8 C8         16.3966  -27.3814  -47.2621 C.3       10 UNK         0.0316 
      9 C9         17.7038  -27.9656  -46.7461 C.ar      10 UNK        -0.0863 
     10 C10        17.7146  -29.1285  -45.9688 C.ar      10 UNK        -0.1009 
     11 C11        18.9241  -29.6877  -45.5390 C.ar      10 UNK        -0.0712 
     12 C12        20.1288  -29.0776  -45.9111 C.ar      10 UNK        -0.0894 
     13 C13        20.1289  -27.9027  -46.6662 C.ar      10 UNK        -0.0745 
     14 C14        18.9139  -27.3527  -47.0811 C.ar      10 UNK        -0.0972 
     15 C15        21.4368  -27.2303  -47.0517 C.3       10 UNK         0.0209 
     16 S16        21.8736  -25.8954  -45.8935 S.3       10 UNK        -0.2568 
     17 C17        22.7338  -26.7975  -44.5636 C.3       10 UNK        -0.0983 
     18 CA         22.1192  -26.5300  -43.1661 C.3       3 UNK         0.0876 
     19 N          20.8595  -27.2417  -42.9609 N.am      3 UNK        -0.4424 
     20 C          19.6578  -26.6652  -42.8625 C.2       2 UNK         0.4918 
     21 O          19.4467  -25.4593  -43.0182 O.2       2 UNK        -0.4875 
     22 CA         18.4984  -27.5848  -42.4662 C.3       2 UNK         0.0481 
     23 CB         18.4787  -27.8173  -40.9434 C.3       2 UNK        -0.1831 
     24 N          17.2399  -26.9954  -42.9093 N.am      2 UNK        -0.4498 
     25 C          16.0837  -27.6544  -43.0433 C.2       1 UNK         0.5027 
     26 O          15.9479  -28.8506  -42.7759 O.2       1 UNK        -0.4969 
     27 C          23.0906  -26.9995  -42.0742 C.2       3 UNK         0.5005 
     28 O          23.1774  -28.2031  -41.8131 O.2       3 UNK        -0.5279 
     29 N          23.8583  -26.0623  -41.5001 N.am      4 UNK        -0.4463 
     30 CA         24.9285  -26.3467  -40.5349 C.3       4 UNK         0.0283 
     31 CB         25.4417  -25.0325  -39.9264 C.3       4 UNK        -0.1875 
     32 C          26.0896  -27.1455  -41.1530 C.2       4 UNK         0.4949 
     33 O          26.6811  -27.9827  -40.4730 O.2       4 UNK        -0.5039 
     34 N          26.3469  -26.9252  -42.4511 N.am      5 UNK        -0.4663 
     35 CA         27.3047  -27.6827  -43.2650 C.3       5 UNK         0.0242 
     36 CB         27.4711  -26.9815  -44.6229 C.3       5 UNK        -0.1982 
     37 C          26.9122  -29.1595  -43.4686 C.2       5 UNK         0.5017 
     38 O          27.7865  -29.9793  -43.7484 O.2       5 UNK        -0.5012 
     39 N          25.6199  -29.4721  -43.3006 N.am      6 UNK        -0.4439 
     40 CA         25.0589  -30.8231  -43.3159 C.3       6 UNK         0.0297 
     41 CB         23.7371  -30.7959  -44.1047 C.3       6 UNK        -0.2006 
     42 C          24.8543  -31.3699  -41.8883 C.2       6 UNK         0.4892 
     43 O          24.1052  -32.3324  -41.7197 O.2       6 UNK        -0.5089 
     44 N          25.4875  -30.7410  -40.8825 N.am      7 UNK        -0.4243 
     45 CA         25.4125  -31.0514  -39.4481 C.3       7 UNK         0.0196 
     46 CB         26.0856  -32.4077  -39.1476 C.3       7 UNK        -0.2007 
     47 C          23.9796  -30.9541  -38.8890 C.2       7 UNK         0.5020 
     48 O          23.5860  -31.7700  -38.0541 O.2       7 UNK        -0.5147 
     49 N          23.2138  -29.9762  -39.3972 N.am      8 UNK        -0.4734 
     50 CA         21.7888  -29.7345  -39.1386 C.3       8 UNK         0.0238 
     51 CB         21.5280  -29.4083  -37.6527 C.3       8 UNK        -0.1912 
     52 C          20.8600  -30.8419  -39.6791 C.2       8 UNK         0.5038 
     53 O          19.6915  -30.8856  -39.2917 O.2       8 UNK        -0.5046 
     54 N          21.3783  -31.6879  -40.5815 N.am      9 UNK        -0.4200 
     55 CA         20.6630  -32.7556  -41.3003 C.3       9 UNK         0.0839 
     56 C          20.2101  -33.9472  -40.4049 C.2       9 UNK         0.5513 
     57 N          20.7630  -34.1202  -39.2098 N.am      9 UNK        -0.7519 
     58 O          19.3687  -34.7469  -40.8074 O.2       9 UNK        -0.4960 
     59 C59        19.5292  -32.2163  -42.2208 C.3       10 UNK        -0.0876 
     60 S60        20.1122  -30.8761  -43.3115 S.3       10 UNK        -0.2414 
     61 C61        18.9135  -30.9512  -44.6813 C.3       10 UNK         0.0169 
     62 H62        11.8257  -28.8758  -40.9876 H         1 UNK         0.0903 
     63 H63        11.7942  -27.1124  -41.0321 H         1 UNK         0.0903 
     64 H64        10.7687  -28.0398  -42.1280 H         1 UNK         0.0903 
     65 H65        13.5726  -26.2843  -42.0280 H         1 UNK         0.3096 
     66 H66        15.1369  -25.7778  -43.4401 H         1 UNK         0.1121 
     67 H67        13.6040  -26.7633  -45.3267 H         1 UNK         0.0849 
     68 H68        14.6727  -28.1336  -45.3205 H         1 UNK         0.0849 
     69 H69        15.6598  -28.1692  -47.4264 H         1 UNK         0.0865 
     70 H70        16.5646  -26.9317  -48.2421 H         1 UNK         0.0865 
     71 H71        16.7792  -29.5993  -45.6983 H         1 UNK         0.1346 
     72 H72        21.0696  -29.5086  -45.5988 H         1 UNK         0.1412 
     73 H73        18.9115  -26.4474  -47.6733 H         1 UNK         0.1426 
     74 H74        21.3437  -26.8045  -48.0519 H         1 UNK         0.0716 
     75 H75        22.2475  -27.9581  -47.1111 H         1 UNK         0.0716 
     76 H76        23.7753  -26.4715  -44.5993 H         1 UNK         0.0695 
     77 H77        22.7484  -27.8670  -44.7789 H         1 UNK         0.0695 
     78 H78        21.9696  -25.4550  -43.0422 H         1 UNK         0.0983 
     79 H79        20.9566  -28.2316  -42.7775 H         1 UNK         0.3095 
     80 H80        18.6256  -28.5361  -42.9777 H         1 UNK         0.0454 
     81 H81        17.7080  -28.5325  -40.6565 H         1 UNK         0.0851 
     82 H82        18.2989  -26.8908  -40.3970 H         1 UNK         0.0851 
     83 H83        19.4282  -28.2222  -40.5970 H         1 UNK         0.0851 
     84 H84        17.3151  -26.0250  -43.1901 H         1 UNK         0.2976 
     85 H85        23.7310  -25.0942  -41.7613 H         1 UNK         0.3116 
     86 H86        24.5037  -26.9517  -39.7307 H         1 UNK         0.0646 
     87 H87        25.8649  -24.3713  -40.6836 H         1 UNK         0.0847 
     88 H88        26.2228  -25.2242  -39.1892 H         1 UNK         0.0847 
     89 H89        24.6441  -24.4928  -39.4156 H         1 UNK         0.0847 
     90 H90        25.8234  -26.2028  -42.9236 H         1 UNK         0.3040 
     91 H91        28.2676  -27.6722  -42.7490 H         1 UNK         0.1015 
     92 H92        26.5336  -26.9501  -45.1799 H         1 UNK         0.0786 
     93 H93        28.2013  -27.5023  -45.2443 H         1 UNK         0.0786 
     94 H94        27.8255  -25.9578  -44.5011 H         1 UNK         0.0786 
     95 H95        24.9802  -28.7397  -43.0201 H         1 UNK         0.3172 
     96 H96        25.7408  -31.5067  -43.8252 H         1 UNK         0.0595 
     97 H97        22.9935  -30.1655  -43.6179 H         1 UNK         0.0839 
     98 H98        23.3070  -31.7945  -44.1924 H         1 UNK         0.0839 
     99 H99        23.8850  -30.4196  -45.1169 H         1 UNK         0.0839 
    100 H100       26.0539  -29.9319  -41.1094 H         1 UNK         0.2998 
    101 H101       25.9875  -30.2775  -38.9374 H         1 UNK         0.0822 
    102 H102       27.1020  -32.4412  -39.5395 H         1 UNK         0.0787 
    103 H103       26.1481  -32.5839  -38.0730 H         1 UNK         0.0787 
    104 H104       25.5307  -33.2403  -39.5813 H         1 UNK         0.0787 
    105 H105       23.6068  -29.3952  -40.1314 H         1 UNK         0.3055 
    106 H106       21.5403  -28.8411  -39.7120 H         1 UNK         0.1106 
    107 H107       20.5054  -29.0597  -37.5036 H         1 UNK         0.0828 
    108 H108       21.6663  -30.2806  -37.0136 H         1 UNK         0.0828 
    109 H109       22.1916  -28.6206  -37.2964 H         1 UNK         0.0828 
    110 H110       22.3602  -31.6078  -40.8176 H         1 UNK         0.2931 
    111 H111       21.4151  -33.1904  -41.9595 H         1 UNK         0.0412 
    112 H112       21.4642  -33.4757  -38.8760 H         1 UNK         0.3472 
    113 H113       20.4751  -34.8982  -38.6373 H         1 UNK         0.3472 
    114 H114       18.6917  -31.8444  -41.6283 H         1 UNK         0.0970 
    115 H115       19.1329  -33.0216  -42.8418 H         1 UNK         0.0970 
    116 H116       17.9188  -31.1083  -44.2605 H         1 UNK         0.0612 
    117 H117       19.1352  -31.8156  -45.3081 H         1 UNK         0.0612 
@<TRIPOS>BOND
     1    1    2 1    
     2    1   62 1    
     3    1   63 1    
     4    1   64 1    
     5    2    3 2    
     6    2    4 am   BACKBONE|DICT|INTERRES
     7    4    5 1    
     8    4   65 1    
     9    5    6 1    
    10    5   25 1    
    11    5   66 1    
    12    6    7 1    
    13    6   67 1    
    14    6   68 1    
    15    7    8 1    
    16    8    9 1    
    17    8   69 1    
    18    8   70 1    
    19    9   10 ar   
    20    9   14 ar   
    21   10   11 ar   
    22   10   71 1    
    23   11   12 ar   
    24   11   61 1    
    25   12   13 ar   
    26   12   72 1    
    27   13   14 ar   
    28   13   15 1    
    29   14   73 1    
    30   15   16 1    
    31   15   74 1    
    32   15   75 1    
    33   16   17 1    
    34   17   18 1    
    35   17   76 1    
    36   17   77 1    
    37   18   19 1    
    38   18   27 1    
    39   18   78 1    
    40   19   20 am   BACKBONE|DICT|INTERRES
    41   19   79 1    
    42   20   21 2    
    43   20   22 1    
    44   22   23 1    
    45   22   24 1    
    46   22   80 1    
    47   23   81 1    
    48   23   82 1    
    49   23   83 1    
    50   24   25 am   BACKBONE|DICT|INTERRES
    51   24   84 1    
    52   25   26 2    
    53   27   28 2    
    54   27   29 am   BACKBONE|DICT|INTERRES
    55   29   30 1    
    56   29   85 1    
    57   30   31 1    
    58   30   32 1    
    59   30   86 1    
    60   31   87 1    
    61   31   88 1    
    62   31   89 1    
    63   32   33 2    
    64   32   34 am   BACKBONE|DICT|INTERRES
    65   34   35 1    
    66   34   90 1    
    67   35   36 1    
    68   35   37 1    
    69   35   91 1    
    70   36   92 1    
    71   36   93 1    
    72   36   94 1    
    73   37   38 2    
    74   37   39 am   BACKBONE|DICT|INTERRES
    75   39   40 1    
    76   39   95 1    
    77   40   41 1    
    78   40   42 1    
    79   40   96 1    
    80   41   97 1    
    81   41   98 1    
    82   41   99 1    
    83   42   43 2    
    84   42   44 am   BACKBONE|DICT|INTERRES
    85   44   45 1    
    86   44  100 1    
    87   45   46 1    
    88   45   47 1    
    89   45  101 1    
    90   46  102 1    
    91   46  103 1    
    92   46  104 1    
    93   47   48 2    
    94   47   49 am   BACKBONE|DICT|INTERRES
    95   49   50 1    
    96   49  105 1    
    97   50   51 1    
    98   50   52 1    
    99   50  106 1    
   100   51  107 1    
   101   51  108 1    
   102   51  109 1    
   103   52   53 2    
   104   52   54 am   BACKBONE|DICT|INTERRES
   105   54   55 1    
   106   54  110 1    
   107   55   56 1    
   108   55   59 1    
   109   55  111 1    
   110   56   57 am   BACKBONE|DICT|INTERRES
   111   56   58 2    
   112   57  112 1    
   113   57  113 1    
   114   59   60 1    
   115   59  114 1    
   116   59  115 1    
   117   60   61 1    
   118   61  116 1    
   119   61  117 1    
@<TRIPOS>SUBSTRUCTURE
     1 UNK         1 GROUP             0       ****    0 ROOT    
