@<TRIPOS>MOLECULE
3R8
117   119    1
SMALL
USER_CHARGES


@<TRIPOS>ATOM
      1 CA         11.8943  -25.6519  -47.7475 C.3       0 UNK        -0.2013 
      2 C          13.0502  -26.5962  -47.4529 C.2       0 UNK         0.4866 
      3 O          12.9762  -27.7792  -47.7870 O.2       0 UNK        -0.5176 
      4 N          14.1179  -26.0839  -46.8354 N.am      1 UNK        -0.4884 
      5 CA         15.3282  -26.8212  -46.4753 C.3       1 UNK         0.0853 
      6 C6         15.1385  -27.7324  -45.2297 C.3       10 UNK        -0.0849 
      7 S7         14.6152  -26.8494  -43.7159 S.3       10 UNK        -0.2776 
      8 C8         14.4977  -28.2215  -42.5255 C.3       10 UNK         0.0316 
      9 C9         15.8697  -28.7074  -42.0794 C.ar      10 UNK        -0.0863 
     10 C10        16.4593  -29.8183  -42.6917 C.ar      10 UNK        -0.1009 
     11 C11        17.7133  -30.2721  -42.2751 C.ar      10 UNK        -0.0712 
     12 C12        18.3655  -29.6214  -41.2257 C.ar      10 UNK        -0.0894 
     13 C13        17.7954  -28.5046  -40.6107 C.ar      10 UNK        -0.0745 
     14 C14        16.5442  -28.0523  -41.0427 C.ar      10 UNK        -0.0972 
     15 C15        18.5206  -27.8027  -39.4671 C.3       10 UNK         0.0209 
     16 S16        20.2399  -27.3441  -39.8779 S.3       10 UNK        -0.2568 
     17 C17        19.9959  -26.1391  -41.2235 C.3       10 UNK        -0.0983 
     18 CA         20.4759  -26.6764  -42.5975 C.3       3 UNK         0.0876 
     19 N          19.7486  -26.0256  -43.6889 N.am      3 UNK        -0.4424 
     20 C          19.7538  -26.4316  -44.9629 C.2       2 UNK         0.4918 
     21 O          20.3302  -27.4414  -45.3692 O.2       2 UNK        -0.4875 
     22 CA         18.9296  -25.5922  -45.9424 C.3       2 UNK         0.0481 
     23 CB         19.6922  -25.3089  -47.2491 C.3       2 UNK        -0.1831 
     24 N          17.7128  -26.3425  -46.2285 N.am      2 UNK        -0.4498 
     25 C          16.4851  -25.8192  -46.3077 C.2       1 UNK         0.5027 
     26 O          16.2462  -24.6085  -46.2435 O.2       1 UNK        -0.4969 
     27 C          21.9977  -26.4936  -42.7886 C.2       3 UNK         0.5005 
     28 O          22.4447  -25.3713  -43.0457 O.2       3 UNK        -0.5279 
     29 N          22.7597  -27.5855  -42.6689 N.am      4 UNK        -0.4463 
     30 CA         24.2195  -27.6021  -42.7498 C.3       4 UNK         0.0283 
     31 CB         24.6739  -28.9989  -43.2081 C.3       4 UNK        -0.1875 
     32 C          24.8535  -27.2409  -41.3966 C.2       4 UNK         0.4949 
     33 O          24.1865  -27.2823  -40.3605 O.2       4 UNK        -0.5039 
     34 N          26.1534  -26.9187  -41.4283 N.am      5 UNK        -0.4663 
     35 CA         26.9551  -26.5642  -40.2499 C.3       5 UNK         0.0242 
     36 CB         28.2960  -25.9729  -40.7156 C.3       5 UNK        -0.1982 
     37 C          27.1942  -27.7327  -39.2735 C.2       5 UNK         0.5017 
     38 O          27.4784  -27.4850  -38.1009 O.2       5 UNK        -0.5012 
     39 N          27.0774  -28.9714  -39.7634 N.am      6 UNK        -0.4439 
     40 CA         27.1837  -30.2107  -39.0028 C.3       6 UNK         0.0297 
     41 CB         28.6628  -30.6093  -38.8476 C.3       6 UNK        -0.2006 
     42 C          26.3931  -31.2966  -39.7406 C.2       6 UNK         0.4892 
     43 O          26.1852  -31.1780  -40.9506 O.2       6 UNK        -0.5089 
     44 N          25.9840  -32.3334  -38.9950 N.am      7 UNK        -0.4243 
     45 CA         25.2599  -33.5293  -39.4548 C.3       7 UNK         0.0196 
     46 CB         26.1418  -34.3684  -40.4054 C.3       7 UNK        -0.2007 
     47 C          23.8642  -33.2443  -40.0492 C.2       7 UNK         0.5020 
     48 O          23.3811  -34.0347  -40.8627 O.2       7 UNK        -0.5147 
     49 N          23.2375  -32.1346  -39.6287 N.am      8 UNK        -0.4734 
     50 CA         21.9274  -31.6081  -40.0404 C.3       8 UNK         0.0238 
     51 CB         20.7812  -32.5568  -39.6305 C.3       8 UNK        -0.1912 
     52 C          21.8623  -31.2250  -41.5295 C.2       8 UNK         0.5038 
     53 O          21.7853  -30.0374  -41.8360 O.2       8 UNK        -0.5046 
     54 N          21.8979  -32.2268  -42.4111 N.am      9 UNK        -0.4200 
     55 CA         21.9640  -32.1032  -43.8745 C.3       9 UNK         0.0839 
     56 C          23.0365  -33.0418  -44.5013 C.2       9 UNK         0.5513 
     57 N          23.7798  -33.8344  -43.7361 N.am      9 UNK        -0.7519 
     58 O          23.2156  -33.0393  -45.7164 O.2       9 UNK        -0.4960 
     59 C59        20.5708  -32.2881  -44.5426 C.3       10 UNK        -0.0876 
     60 S60        19.4759  -30.8525  -44.2902 S.3       10 UNK        -0.2414 
     61 C61        18.3828  -31.4473  -42.9668 C.3       10 UNK         0.0169 
     62 H62        10.9872  -26.0060  -47.2586 H         1 UNK         0.0903 
     63 H63        12.0954  -24.6399  -47.3961 H         1 UNK         0.0903 
     64 H64        11.7090  -25.6081  -48.8204 H         1 UNK         0.0903 
     65 H65        14.1687  -25.0975  -46.6084 H         1 UNK         0.3096 
     66 H66        15.5936  -27.4537  -47.3258 H         1 UNK         0.1121 
     67 H67        16.0606  -28.2757  -45.0188 H         1 UNK         0.0849 
     68 H68        14.3936  -28.4983  -45.4505 H         1 UNK         0.0849 
     69 H69        13.9309  -27.8844  -41.6563 H         1 UNK         0.0865 
     70 H70        13.9208  -29.0389  -42.9612 H         1 UNK         0.0865 
     71 H71        15.9490  -30.3232  -43.5006 H         1 UNK         0.1346 
     72 H72        19.3342  -29.9674  -40.8994 H         1 UNK         0.1412 
     73 H73        16.0898  -27.1914  -40.5711 H         1 UNK         0.1426 
     74 H74        18.5344  -28.4684  -38.6032 H         1 UNK         0.0716 
     75 H75        17.9821  -26.9063  -39.1554 H         1 UNK         0.0716 
     76 H76        18.9330  -25.8955  -41.2658 H         1 UNK         0.0695 
     77 H77        20.4964  -25.2053  -40.9598 H         1 UNK         0.0695 
     78 H78        20.2414  -27.7427  -42.6591 H         1 UNK         0.0983 
     79 H79        19.2576  -25.1767  -43.4512 H         1 UNK         0.3095 
     80 H80        18.6903  -24.6376  -45.4682 H         1 UNK         0.0454 
     81 H81        19.9408  -26.2272  -47.7825 H         1 UNK         0.0851 
     82 H82        20.6269  -24.7844  -47.0477 H         1 UNK         0.0851 
     83 H83        19.1054  -24.6818  -47.9202 H         1 UNK         0.0851 
     84 H84        17.8300  -27.3468  -46.2631 H         1 UNK         0.2976 
     85 H85        22.3221  -28.4631  -42.3821 H         1 UNK         0.3116 
     86 H86        24.5442  -26.8702  -43.4926 H         1 UNK         0.0646 
     87 H87        24.4195  -29.7665  -42.4767 H         1 UNK         0.0847 
     88 H88        25.7539  -29.0385  -43.3538 H         1 UNK         0.0847 
     89 H89        24.2113  -29.2758  -44.1555 H         1 UNK         0.0847 
     90 H90        26.6312  -26.9092  -42.3187 H         1 UNK         0.3040 
     91 H91        26.4144  -25.7927  -39.6969 H         1 UNK         0.1015 
     92 H92        28.8780  -26.6945  -41.2904 H         1 UNK         0.0786 
     93 H93        28.9056  -25.6685  -39.8634 H         1 UNK         0.0786 
     94 H94        28.1471  -25.0886  -41.3357 H         1 UNK         0.0786 
     95 H95        26.7935  -29.1008  -40.7269 H         1 UNK         0.3172 
     96 H96        26.7357  -30.0662  -38.0172 H         1 UNK         0.0595 
     97 H97        28.7636  -31.5401  -38.2882 H         1 UNK         0.0839 
     98 H98        29.2262  -29.8473  -38.3086 H         1 UNK         0.0839 
     99 H99        29.1423  -30.7568  -39.8162 H         1 UNK         0.0839 
    100 H100       26.2051  -32.3192  -38.0081 H         1 UNK         0.2998 
    101 H101       25.0793  -34.1321  -38.5635 H         1 UNK         0.0822 
    102 H102       25.6784  -35.3311  -40.6248 H         1 UNK         0.0787 
    103 H103       26.3043  -33.8629  -41.3580 H         1 UNK         0.0787 
    104 H104       27.1169  -34.5748  -39.9643 H         1 UNK         0.0787 
    105 H105       23.7451  -31.5497  -38.9797 H         1 UNK         0.3055 
    106 H106       21.7895  -30.6794  -39.4826 H         1 UNK         0.1106 
    107 H107       19.8099  -32.1290  -39.8799 H         1 UNK         0.0828 
    108 H108       20.8440  -33.5264  -40.1247 H         1 UNK         0.0828 
    109 H109       20.7851  -32.7339  -38.5551 H         1 UNK         0.0828 
    110 H110       22.0477  -33.1582  -42.0399 H         1 UNK         0.2931 
    111 H111       22.3209  -31.1003  -44.1167 H         1 UNK         0.0412 
    112 H112       23.6751  -33.8606  -42.7271 H         1 UNK         0.3472 
    113 H113       24.4690  -34.4225  -44.1769 H         1 UNK         0.3472 
    114 H114       20.6707  -32.4043  -45.6233 H         1 UNK         0.0970 
    115 H115       20.0885  -33.2011  -44.1897 H         1 UNK         0.0970 
    116 H116       17.6382  -32.1249  -43.3870 H         1 UNK         0.0612 
    117 H117       18.9567  -32.0252  -42.2418 H         1 UNK         0.0612 
@<TRIPOS>BOND
     1    1    2 1    
     2    1   62 1    
     3    1   63 1    
     4    1   64 1    
     5    2    3 2    
     6    2    4 am   BACKBONE|DICT|INTERRES
     7    4    5 1    
     8    4   65 1    
     9    5    6 1    
    10    5   25 1    
    11    5   66 1    
    12    6    7 1    
    13    6   67 1    
    14    6   68 1    
    15    7    8 1    
    16    8    9 1    
    17    8   69 1    
    18    8   70 1    
    19    9   10 ar   
    20    9   14 ar   
    21   10   11 ar   
    22   10   71 1    
    23   11   12 ar   
    24   11   61 1    
    25   12   13 ar   
    26   12   72 1    
    27   13   14 ar   
    28   13   15 1    
    29   14   73 1    
    30   15   16 1    
    31   15   74 1    
    32   15   75 1    
    33   16   17 1    
    34   17   18 1    
    35   17   76 1    
    36   17   77 1    
    37   18   19 1    
    38   18   27 1    
    39   18   78 1    
    40   19   20 am   BACKBONE|DICT|INTERRES
    41   19   79 1    
    42   20   21 2    
    43   20   22 1    
    44   22   23 1    
    45   22   24 1    
    46   22   80 1    
    47   23   81 1    
    48   23   82 1    
    49   23   83 1    
    50   24   25 am   BACKBONE|DICT|INTERRES
    51   24   84 1    
    52   25   26 2    
    53   27   28 2    
    54   27   29 am   BACKBONE|DICT|INTERRES
    55   29   30 1    
    56   29   85 1    
    57   30   31 1    
    58   30   32 1    
    59   30   86 1    
    60   31   87 1    
    61   31   88 1    
    62   31   89 1    
    63   32   33 2    
    64   32   34 am   BACKBONE|DICT|INTERRES
    65   34   35 1    
    66   34   90 1    
    67   35   36 1    
    68   35   37 1    
    69   35   91 1    
    70   36   92 1    
    71   36   93 1    
    72   36   94 1    
    73   37   38 2    
    74   37   39 am   BACKBONE|DICT|INTERRES
    75   39   40 1    
    76   39   95 1    
    77   40   41 1    
    78   40   42 1    
    79   40   96 1    
    80   41   97 1    
    81   41   98 1    
    82   41   99 1    
    83   42   43 2    
    84   42   44 am   BACKBONE|DICT|INTERRES
    85   44   45 1    
    86   44  100 1    
    87   45   46 1    
    88   45   47 1    
    89   45  101 1    
    90   46  102 1    
    91   46  103 1    
    92   46  104 1    
    93   47   48 2    
    94   47   49 am   BACKBONE|DICT|INTERRES
    95   49   50 1    
    96   49  105 1    
    97   50   51 1    
    98   50   52 1    
    99   50  106 1    
   100   51  107 1    
   101   51  108 1    
   102   51  109 1    
   103   52   53 2    
   104   52   54 am   BACKBONE|DICT|INTERRES
   105   54   55 1    
   106   54  110 1    
   107   55   56 1    
   108   55   59 1    
   109   55  111 1    
   110   56   57 am   BACKBONE|DICT|INTERRES
   111   56   58 2    
   112   57  112 1    
   113   57  113 1    
   114   59   60 1    
   115   59  114 1    
   116   59  115 1    
   117   60   61 1    
   118   61  116 1    
   119   61  117 1    
@<TRIPOS>SUBSTRUCTURE
     1 UNK         1 GROUP             0       ****    0 ROOT    
