@<TRIPOS>MOLECULE
3R8
117   119    1
SMALL
USER_CHARGES


@<TRIPOS>ATOM
      1 CA         13.6856  -24.5592  -46.7873 C.3       0 UNK        -0.2013 
      2 C          14.9833  -25.1606  -46.2705 C.2       0 UNK         0.4866 
      3 O          15.8247  -25.5818  -47.0649 O.2       0 UNK        -0.5176 
      4 N          15.1670  -25.1897  -44.9445 N.am      1 UNK        -0.4884 
      5 CA         16.3244  -25.7648  -44.2408 C.3       1 UNK         0.0853 
      6 C6         15.9497  -26.1943  -42.7984 C.3       10 UNK        -0.0849 
      7 S7         14.6884  -27.5157  -42.8143 S.3       10 UNK        -0.2776 
      8 C8         15.4935  -28.8516  -41.8646 C.3       10 UNK         0.0316 
      9 C9         16.8585  -29.2812  -42.3998 C.ar      10 UNK        -0.0863 
     10 C10        17.9055  -29.5029  -41.4985 C.ar      10 UNK        -0.1009 
     11 C11        19.1544  -29.9366  -41.9494 C.ar      10 UNK        -0.0712 
     12 C12        19.3580  -30.1411  -43.3154 C.ar      10 UNK        -0.0894 
     13 C13        18.3345  -29.8927  -44.2329 C.ar      10 UNK        -0.0745 
     14 C14        17.0802  -29.4819  -43.7688 C.ar      10 UNK        -0.0972 
     15 C15        18.5926  -30.0718  -45.7231 C.3       10 UNK         0.0209 
     16 S16        19.0651  -28.5079  -46.5353 S.3       10 UNK        -0.2568 
     17 C17        20.7023  -28.1635  -45.7956 C.3       10 UNK        -0.0983 
     18 CA         21.2507  -26.7515  -46.1283 C.3       3 UNK         0.0876 
     19 N          20.2429  -25.7191  -45.8688 N.am      3 UNK        -0.4424 
     20 C          20.3428  -24.3997  -46.0810 C.2       2 UNK         0.4918 
     21 O          21.3644  -23.8467  -46.4888 O.2       2 UNK        -0.4875 
     22 CA         19.0788  -23.5548  -45.8161 C.3       2 UNK         0.0481 
     23 CB         18.7433  -22.6693  -47.0286 C.3       2 UNK        -0.1831 
     24 N          17.9049  -24.3753  -45.5002 N.am      2 UNK        -0.4498 
     25 C          17.5568  -24.8306  -44.2901 C.2       1 UNK         0.5027 
     26 O          18.1754  -24.5536  -43.2615 O.2       1 UNK        -0.4969 
     27 C          22.5776  -26.5157  -45.3740 C.2       3 UNK         0.5005 
     28 O          23.6411  -26.8276  -45.9109 O.2       3 UNK        -0.5279 
     29 N          22.4795  -25.9845  -44.1428 N.am      4 UNK        -0.4463 
     30 CA         23.5705  -25.6304  -43.2203 C.3       4 UNK         0.0283 
     31 CB         24.4534  -24.5144  -43.8175 C.3       4 UNK        -0.1875 
     32 C          24.4080  -26.8247  -42.7145 C.2       4 UNK         0.4949 
     33 O          25.4851  -26.6179  -42.1522 O.2       4 UNK        -0.5039 
     34 N          23.9001  -28.0525  -42.8815 N.am      5 UNK        -0.4663 
     35 CA         24.5369  -29.3004  -42.4572 C.3       5 UNK         0.0242 
     36 CB         24.0243  -30.4431  -43.3530 C.3       5 UNK        -0.1982 
     37 C          24.2918  -29.5610  -40.9600 C.2       5 UNK         0.5017 
     38 O          23.5877  -30.5075  -40.6076 O.2       5 UNK        -0.5012 
     39 N          24.8431  -28.6858  -40.1083 N.am      6 UNK        -0.4439 
     40 CA         24.6965  -28.6855  -38.6495 C.3       6 UNK         0.0297 
     41 CB         25.5476  -27.5511  -38.0547 C.3       6 UNK        -0.2006 
     42 C          25.0574  -30.0408  -38.0141 C.2       6 UNK         0.4892 
     43 O          26.2219  -30.4421  -38.0599 O.2       6 UNK        -0.5089 
     44 N          24.0341  -30.7157  -37.4689 N.am      7 UNK        -0.4243 
     45 CA         24.0601  -32.0612  -36.8782 C.3       7 UNK         0.0196 
     46 CB         24.9463  -32.0928  -35.6139 C.3       7 UNK        -0.2007 
     47 C          24.4111  -33.1848  -37.8786 C.2       7 UNK         0.5020 
     48 O          24.8474  -34.2566  -37.4554 O.2       7 UNK        -0.5147 
     49 N          24.2010  -32.9432  -39.1786 N.am      8 UNK        -0.4734 
     50 CA         24.4905  -33.8741  -40.2706 C.3       8 UNK         0.0238 
     51 CB         25.8990  -33.5836  -40.8254 C.3       8 UNK        -0.1912 
     52 C          23.3958  -33.7976  -41.3483 C.2       8 UNK         0.5038 
     53 O          23.7016  -33.8933  -42.5379 O.2       8 UNK        -0.5046 
     54 N          22.1416  -33.6090  -40.9142 N.am      9 UNK        -0.4200 
     55 CA         20.9631  -33.4114  -41.7757 C.3       9 UNK         0.0839 
     56 C          20.5862  -34.6168  -42.6864 C.2       9 UNK         0.5513 
     57 N          21.0447  -35.8310  -42.4063 N.am      9 UNK        -0.7519 
     58 O          19.8607  -34.4441  -43.6620 O.2       9 UNK        -0.4960 
     59 C59        19.7185  -32.9518  -40.9686 C.3       10 UNK        -0.0876 
     60 S60        20.0098  -31.5524  -39.8304 S.3       10 UNK        -0.2414 
     61 C61        20.2972  -30.1614  -40.9708 C.3       10 UNK         0.0169 
     62 H62        13.0393  -24.2246  -45.9760 H         1 UNK         0.0903 
     63 H63        13.8975  -23.7036  -47.4278 H         1 UNK         0.0903 
     64 H64        13.1388  -25.2970  -47.3737 H         1 UNK         0.0903 
     65 H65        14.4468  -24.8139  -44.3436 H         1 UNK         0.3096 
     66 H66        16.6272  -26.6687  -44.7753 H         1 UNK         0.1121 
     67 H67        15.5663  -25.3459  -42.2289 H         1 UNK         0.0849 
     68 H68        16.8293  -26.5469  -42.2567 H         1 UNK         0.0849 
     69 H69        15.5754  -28.5256  -40.8264 H         1 UNK         0.0865 
     70 H70        14.8350  -29.7209  -41.8591 H         1 UNK         0.0865 
     71 H71        17.7507  -29.3508  -40.4388 H         1 UNK         0.1346 
     72 H72        20.3235  -30.4735  -43.6708 H         1 UNK         0.1412 
     73 H73        16.2797  -29.3091  -44.4752 H         1 UNK         0.1426 
     74 H74        17.6943  -30.4600  -46.2053 H         1 UNK         0.0716 
     75 H75        19.3724  -30.8166  -45.8907 H         1 UNK         0.0716 
     76 H76        21.3996  -28.9347  -46.1293 H         1 UNK         0.0695 
     77 H77        20.6161  -28.2695  -44.7146 H         1 UNK         0.0695 
     78 H78        21.4760  -26.7123  -47.1961 H         1 UNK         0.0983 
     79 H79        19.3446  -26.0710  -45.5750 H         1 UNK         0.3095 
     80 H80        19.2975  -22.9012  -44.9694 H         1 UNK         0.0454 
     81 H81        18.5417  -23.2652  -47.9196 H         1 UNK         0.0851 
     82 H82        19.5682  -21.9961  -47.2658 H         1 UNK         0.0851 
     83 H83        17.8685  -22.0481  -46.8358 H         1 UNK         0.0851 
     84 H84        17.3288  -24.6745  -46.2839 H         1 UNK         0.2976 
     85 H85        21.5484  -25.7773  -43.8073 H         1 UNK         0.3116 
     86 H86        23.0848  -25.2192  -42.3343 H         1 UNK         0.0646 
     87 H87        25.0367  -24.8704  -44.6671 H         1 UNK         0.0847 
     88 H88        25.1590  -24.1332  -43.0783 H         1 UNK         0.0847 
     89 H89        23.8523  -23.6697  -44.1544 H         1 UNK         0.0847 
     90 H90        22.9960  -28.1326  -43.3208 H         1 UNK         0.3040 
     91 H91        25.6166  -29.2222  -42.6049 H         1 UNK         0.1015 
     92 H92        22.9519  -30.6042  -43.2408 H         1 UNK         0.0786 
     93 H93        24.5224  -31.3805  -43.1045 H         1 UNK         0.0786 
     94 H94        24.2249  -30.2428  -44.4057 H         1 UNK         0.0786 
     95 H95        25.3750  -27.9240  -40.5151 H         1 UNK         0.3172 
     96 H96        23.6491  -28.4646  -38.4338 H         1 UNK         0.0595 
     97 H97        25.4501  -27.5186  -36.9686 H         1 UNK         0.0839 
     98 H98        25.2376  -26.5780  -38.4362 H         1 UNK         0.0839 
     99 H99        26.6067  -27.6792  -38.2826 H         1 UNK         0.0839 
    100 H100       23.1171  -30.2935  -37.5256 H         1 UNK         0.2998 
    101 H101       23.0362  -32.2646  -36.5610 H         1 UNK         0.0822 
    102 H102       24.8393  -33.0396  -35.0831 H         1 UNK         0.0787 
    103 H103       26.0029  -31.9761  -35.8568 H         1 UNK         0.0787 
    104 H104       24.6724  -31.3011  -34.9167 H         1 UNK         0.0787 
    105 H105       23.8544  -32.0302  -39.4701 H         1 UNK         0.3055 
    106 H106       24.4732  -34.9005  -39.8974 H         1 UNK         0.1106 
    107 H107       26.1655  -34.2859  -41.6162 H         1 UNK         0.0828 
    108 H108       25.9636  -32.5776  -41.2416 H         1 UNK         0.0828 
    109 H109       26.6571  -33.6720  -40.0471 H         1 UNK         0.0828 
    110 H110       21.9822  -33.5276  -39.9213 H         1 UNK         0.2931 
    111 H111       21.2246  -32.6001  -42.4571 H         1 UNK         0.0412 
    112 H112       21.6424  -35.9807  -41.6095 H         1 UNK         0.3472 
    113 H113       20.7959  -36.6037  -43.0039 H         1 UNK         0.3472 
    114 H114       18.9028  -32.6847  -41.6434 H         1 UNK         0.0970 
    115 H115       19.3405  -33.7803  -40.3667 H         1 UNK         0.0970 
    116 H116       20.4557  -29.2539  -40.3870 H         1 UNK         0.0612 
    117 H117       21.2245  -30.3399  -41.5123 H         1 UNK         0.0612 
@<TRIPOS>BOND
     1    1    2 1    
     2    1   62 1    
     3    1   63 1    
     4    1   64 1    
     5    2    3 2    
     6    2    4 am   BACKBONE|DICT|INTERRES
     7    4    5 1    
     8    4   65 1    
     9    5    6 1    
    10    5   25 1    
    11    5   66 1    
    12    6    7 1    
    13    6   67 1    
    14    6   68 1    
    15    7    8 1    
    16    8    9 1    
    17    8   69 1    
    18    8   70 1    
    19    9   10 ar   
    20    9   14 ar   
    21   10   11 ar   
    22   10   71 1    
    23   11   12 ar   
    24   11   61 1    
    25   12   13 ar   
    26   12   72 1    
    27   13   14 ar   
    28   13   15 1    
    29   14   73 1    
    30   15   16 1    
    31   15   74 1    
    32   15   75 1    
    33   16   17 1    
    34   17   18 1    
    35   17   76 1    
    36   17   77 1    
    37   18   19 1    
    38   18   27 1    
    39   18   78 1    
    40   19   20 am   BACKBONE|DICT|INTERRES
    41   19   79 1    
    42   20   21 2    
    43   20   22 1    
    44   22   23 1    
    45   22   24 1    
    46   22   80 1    
    47   23   81 1    
    48   23   82 1    
    49   23   83 1    
    50   24   25 am   BACKBONE|DICT|INTERRES
    51   24   84 1    
    52   25   26 2    
    53   27   28 2    
    54   27   29 am   BACKBONE|DICT|INTERRES
    55   29   30 1    
    56   29   85 1    
    57   30   31 1    
    58   30   32 1    
    59   30   86 1    
    60   31   87 1    
    61   31   88 1    
    62   31   89 1    
    63   32   33 2    
    64   32   34 am   BACKBONE|DICT|INTERRES
    65   34   35 1    
    66   34   90 1    
    67   35   36 1    
    68   35   37 1    
    69   35   91 1    
    70   36   92 1    
    71   36   93 1    
    72   36   94 1    
    73   37   38 2    
    74   37   39 am   BACKBONE|DICT|INTERRES
    75   39   40 1    
    76   39   95 1    
    77   40   41 1    
    78   40   42 1    
    79   40   96 1    
    80   41   97 1    
    81   41   98 1    
    82   41   99 1    
    83   42   43 2    
    84   42   44 am   BACKBONE|DICT|INTERRES
    85   44   45 1    
    86   44  100 1    
    87   45   46 1    
    88   45   47 1    
    89   45  101 1    
    90   46  102 1    
    91   46  103 1    
    92   46  104 1    
    93   47   48 2    
    94   47   49 am   BACKBONE|DICT|INTERRES
    95   49   50 1    
    96   49  105 1    
    97   50   51 1    
    98   50   52 1    
    99   50  106 1    
   100   51  107 1    
   101   51  108 1    
   102   51  109 1    
   103   52   53 2    
   104   52   54 am   BACKBONE|DICT|INTERRES
   105   54   55 1    
   106   54  110 1    
   107   55   56 1    
   108   55   59 1    
   109   55  111 1    
   110   56   57 am   BACKBONE|DICT|INTERRES
   111   56   58 2    
   112   57  112 1    
   113   57  113 1    
   114   59   60 1    
   115   59  114 1    
   116   59  115 1    
   117   60   61 1    
   118   61  116 1    
   119   61  117 1    
@<TRIPOS>SUBSTRUCTURE
     1 UNK         1 GROUP             0       ****    0 ROOT    
