@<TRIPOS>MOLECULE
3R8
117   119    1
SMALL
USER_CHARGES


@<TRIPOS>ATOM
      1 CA         18.7905  -22.2908  -46.8449 C.3       0 UNK        -0.2013 
      2 C          18.9105  -23.5760  -46.0404 C.2       0 UNK         0.4866 
      3 O          17.9110  -24.2656  -45.8405 O.2       0 UNK        -0.5176 
      4 N          20.1214  -23.8882  -45.5565 N.am      1 UNK        -0.4884 
      5 CA         20.5407  -25.0922  -44.8127 C.3       1 UNK         0.0853 
      6 C6         20.2605  -26.4296  -45.5554 C.3       10 UNK        -0.0849 
      7 S7         20.9016  -26.5315  -47.2593 S.3       10 UNK        -0.2776 
      8 C8         21.4300  -28.2811  -47.3954 C.3       10 UNK         0.0316 
      9 C9         20.4953  -29.2974  -46.7344 C.ar      10 UNK        -0.0863 
     10 C10        21.0382  -30.3268  -45.9563 C.ar      10 UNK        -0.1009 
     11 C11        20.2108  -31.2716  -45.3424 C.ar      10 UNK        -0.0712 
     12 C12        18.8251  -31.1757  -45.4977 C.ar      10 UNK        -0.0894 
     13 C13        18.2648  -30.1483  -46.2638 C.ar      10 UNK        -0.0745 
     14 C14        19.1057  -29.2271  -46.8980 C.ar      10 UNK        -0.0972 
     15 C15        16.7513  -30.0256  -46.3930 C.3       10 UNK         0.0209 
     16 S16        16.0720  -28.6949  -45.3426 S.3       10 UNK        -0.2568 
     17 C17        16.4112  -29.3151  -43.6575 C.3       10 UNK        -0.0983 
     18 CA         17.7510  -28.7585  -43.1142 C.3       3 UNK         0.0876 
     19 N          17.7755  -27.2973  -42.9959 N.am      3 UNK        -0.4424 
     20 C          17.3835  -26.5115  -41.9817 C.2       2 UNK         0.4918 
     21 O          16.7501  -26.9081  -41.0036 O.2       2 UNK        -0.4875 
     22 CA         17.8104  -25.0261  -42.0641 C.3       2 UNK         0.0481 
     23 CB         18.3931  -24.5215  -40.7276 C.3       2 UNK        -0.1831 
     24 N          18.7271  -24.7425  -43.1819 N.am      2 UNK        -0.4498 
     25 C          19.9643  -25.2224  -43.3861 C.2       1 UNK         0.5027 
     26 O          20.5950  -25.8696  -42.5472 O.2       1 UNK        -0.4969 
     27 C          18.2879  -29.4773  -41.8587 C.2       3 UNK         0.5005 
     28 O          17.7117  -30.4714  -41.4127 O.2       3 UNK        -0.5279 
     29 N          19.3916  -28.9426  -41.3188 N.am      4 UNK        -0.4463 
     30 CA         20.1131  -29.4755  -40.1715 C.3       4 UNK         0.0283 
     31 CB         19.3554  -29.2127  -38.8551 C.3       4 UNK        -0.1875 
     32 C          21.5219  -28.8849  -40.1447 C.2       4 UNK         0.4949 
     33 O          22.4916  -29.6261  -40.2958 O.2       4 UNK        -0.5039 
     34 N          21.6067  -27.5583  -39.9724 N.am      5 UNK        -0.4663 
     35 CA         22.8381  -26.7988  -39.7180 C.3       5 UNK         0.0242 
     36 CB         22.4765  -25.3183  -39.5139 C.3       5 UNK        -0.1982 
     37 C          23.9426  -26.9366  -40.7810 C.2       5 UNK         0.5017 
     38 O          25.1170  -26.7872  -40.4427 O.2       5 UNK        -0.5012 
     39 N          23.5563  -27.2251  -42.0306 N.am      6 UNK        -0.4439 
     40 CA         24.4641  -27.4344  -43.1616 C.3       6 UNK         0.0297 
     41 CB         23.6463  -27.5792  -44.4530 C.3       6 UNK        -0.2006 
     42 C          25.4133  -28.6381  -43.0188 C.2       6 UNK         0.4892 
     43 O          26.5192  -28.5809  -43.5589 O.2       6 UNK        -0.5089 
     44 N          24.9685  -29.7067  -42.3424 N.am      7 UNK        -0.4243 
     45 CA         25.6914  -30.9839  -42.2856 C.3       7 UNK         0.0196 
     46 CB         25.2264  -31.8680  -43.4606 C.3       7 UNK        -0.2007 
     47 C          25.5516  -31.7220  -40.9440 C.2       7 UNK         0.5020 
     48 O          26.0343  -32.8499  -40.8395 O.2       7 UNK        -0.5147 
     49 N          24.8742  -31.1114  -39.9595 N.am      8 UNK        -0.4734 
     50 CA         24.3902  -31.7209  -38.7104 C.3       8 UNK         0.0238 
     51 CB         25.5586  -32.1451  -37.7946 C.3       8 UNK        -0.1912 
     52 C          23.3806  -32.8572  -38.9817 C.2       8 UNK         0.5038 
     53 O          23.3719  -33.8631  -38.2699 O.2       8 UNK        -0.5046 
     54 N          22.5654  -32.6742  -40.0288 N.am      9 UNK        -0.4200 
     55 CA         21.6027  -33.6519  -40.5549 C.3       9 UNK         0.0839 
     56 C          20.2112  -33.6475  -39.8562 C.2       9 UNK         0.5513 
     57 N          19.9993  -32.8724  -38.7992 N.am      9 UNK        -0.7519 
     58 O          19.3163  -34.3853  -40.2605 O.2       9 UNK        -0.4960 
     59 C59        21.5215  -33.5874  -42.1055 C.3       10 UNK        -0.0876 
     60 S60        21.0397  -31.9620  -42.7870 S.3       10 UNK        -0.2414 
     61 C61        20.8120  -32.4122  -44.5337 C.3       10 UNK         0.0169 
     62 H62        19.7455  -21.7734  -46.9344 H         1 UNK         0.0903 
     63 H63        18.4298  -22.5117  -47.8492 H         1 UNK         0.0903 
     64 H64        18.0809  -21.6146  -46.3690 H         1 UNK         0.0903 
     65 H65        20.8778  -23.2437  -45.7436 H         1 UNK         0.3096 
     66 H66        21.6185  -24.9872  -44.6891 H         1 UNK         0.1121 
     67 H67        20.6790  -27.2594  -44.9828 H         1 UNK         0.0849 
     68 H68        19.1871  -26.6185  -45.6139 H         1 UNK         0.0849 
     69 H69        22.4335  -28.3624  -46.9770 H         1 UNK         0.0865 
     70 H70        21.5253  -28.5333  -48.4522 H         1 UNK         0.0865 
     71 H71        22.1099  -30.4021  -45.8312 H         1 UNK         0.1346 
     72 H72        18.1824  -31.8974  -45.0120 H         1 UNK         0.1412 
     73 H73        18.6744  -28.4359  -47.4963 H         1 UNK         0.1426 
     74 H74        16.2624  -30.9687  -46.1438 H         1 UNK         0.0716 
     75 H75        16.4948  -29.8169  -47.4327 H         1 UNK         0.0716 
     76 H76        16.4170  -30.4061  -43.6856 H         1 UNK         0.0695 
     77 H77        15.5880  -29.0285  -43.0012 H         1 UNK         0.0695 
     78 H78        18.5129  -28.9754  -43.8614 H         1 UNK         0.0983 
     79 H79        18.2192  -26.8241  -43.7666 H         1 UNK         0.3095 
     80 H80        16.9019  -24.4581  -42.2681 H         1 UNK         0.0454 
     81 H81        18.6948  -23.4766  -40.7959 H         1 UNK         0.0851 
     82 H82        19.2611  -25.1010  -40.4140 H         1 UNK         0.0851 
     83 H83        17.6541  -24.5918  -39.9286 H         1 UNK         0.0851 
     84 H84        18.2920  -24.3102  -43.9942 H         1 UNK         0.2976 
     85 H85        19.8030  -28.1309  -41.7620 H         1 UNK         0.3116 
     86 H86        20.2153  -30.5532  -40.3010 H         1 UNK         0.0646 
     87 H87        19.9489  -29.5188  -37.9927 H         1 UNK         0.0847 
     88 H88        18.4238  -29.7773  -38.8176 H         1 UNK         0.0847 
     89 H89        19.1067  -28.1587  -38.7278 H         1 UNK         0.0847 
     90 H90        20.7481  -27.0329  -39.8994 H         1 UNK         0.3040 
     91 H91        23.2575  -27.1778  -38.7835 H         1 UNK         0.1015 
     92 H92        21.7830  -25.1879  -38.6829 H         1 UNK         0.0786 
     93 H93        22.0178  -24.8891  -40.4056 H         1 UNK         0.0786 
     94 H94        23.3641  -24.7257  -39.2874 H         1 UNK         0.0786 
     95 H95        22.5628  -27.2735  -42.2110 H         1 UNK         0.3172 
     96 H96        25.0866  -26.5418  -43.2526 H         1 UNK         0.0595 
     97 H97        22.9097  -28.3799  -44.3782 H         1 UNK         0.0839 
     98 H98        24.2914  -27.8069  -45.3031 H         1 UNK         0.0839 
     99 H99        23.1265  -26.6558  -44.6942 H         1 UNK         0.0839 
    100 H100       24.0453  -29.6734  -41.9266 H         1 UNK         0.2998 
    101 H101       26.7624  -30.8023  -42.3982 H         1 UNK         0.0822 
    102 H102       24.1594  -32.0839  -43.3999 H         1 UNK         0.0787 
    103 H103       25.4147  -31.3850  -44.4196 H         1 UNK         0.0787 
    104 H104       25.7540  -32.8225  -43.4752 H         1 UNK         0.0787 
    105 H105       24.4841  -30.1958  -40.1481 H         1 UNK         0.3055 
    106 H106       23.8305  -30.9434  -38.1874 H         1 UNK         0.1106 
    107 H107       25.1920  -32.4555  -36.8155 H         1 UNK         0.0828 
    108 H108       26.2549  -31.3224  -37.6330 H         1 UNK         0.0828 
    109 H109       26.1191  -32.9835  -38.2086 H         1 UNK         0.0828 
    110 H110       22.5987  -31.7846  -40.5108 H         1 UNK         0.2931 
    111 H111       22.0044  -34.6413  -40.3282 H         1 UNK         0.0412 
    112 H112       19.0969  -32.8877  -38.3511 H         1 UNK         0.3472 
    113 H113       20.7378  -32.2945  -38.4347 H         1 UNK         0.3472 
    114 H114       22.4944  -33.8485  -42.5248 H         1 UNK         0.0970 
    115 H115       20.8328  -34.3477  -42.4785 H         1 UNK         0.0970 
    116 H116       21.7744  -32.7051  -44.9561 H         1 UNK         0.0612 
    117 H117       20.1666  -33.2895  -44.6003 H         1 UNK         0.0612 
@<TRIPOS>BOND
     1    1    2 1    
     2    1   62 1    
     3    1   63 1    
     4    1   64 1    
     5    2    3 2    
     6    2    4 am   BACKBONE|DICT|INTERRES
     7    4    5 1    
     8    4   65 1    
     9    5    6 1    
    10    5   25 1    
    11    5   66 1    
    12    6    7 1    
    13    6   67 1    
    14    6   68 1    
    15    7    8 1    
    16    8    9 1    
    17    8   69 1    
    18    8   70 1    
    19    9   10 ar   
    20    9   14 ar   
    21   10   11 ar   
    22   10   71 1    
    23   11   12 ar   
    24   11   61 1    
    25   12   13 ar   
    26   12   72 1    
    27   13   14 ar   
    28   13   15 1    
    29   14   73 1    
    30   15   16 1    
    31   15   74 1    
    32   15   75 1    
    33   16   17 1    
    34   17   18 1    
    35   17   76 1    
    36   17   77 1    
    37   18   19 1    
    38   18   27 1    
    39   18   78 1    
    40   19   20 am   BACKBONE|DICT|INTERRES
    41   19   79 1    
    42   20   21 2    
    43   20   22 1    
    44   22   23 1    
    45   22   24 1    
    46   22   80 1    
    47   23   81 1    
    48   23   82 1    
    49   23   83 1    
    50   24   25 am   BACKBONE|DICT|INTERRES
    51   24   84 1    
    52   25   26 2    
    53   27   28 2    
    54   27   29 am   BACKBONE|DICT|INTERRES
    55   29   30 1    
    56   29   85 1    
    57   30   31 1    
    58   30   32 1    
    59   30   86 1    
    60   31   87 1    
    61   31   88 1    
    62   31   89 1    
    63   32   33 2    
    64   32   34 am   BACKBONE|DICT|INTERRES
    65   34   35 1    
    66   34   90 1    
    67   35   36 1    
    68   35   37 1    
    69   35   91 1    
    70   36   92 1    
    71   36   93 1    
    72   36   94 1    
    73   37   38 2    
    74   37   39 am   BACKBONE|DICT|INTERRES
    75   39   40 1    
    76   39   95 1    
    77   40   41 1    
    78   40   42 1    
    79   40   96 1    
    80   41   97 1    
    81   41   98 1    
    82   41   99 1    
    83   42   43 2    
    84   42   44 am   BACKBONE|DICT|INTERRES
    85   44   45 1    
    86   44  100 1    
    87   45   46 1    
    88   45   47 1    
    89   45  101 1    
    90   46  102 1    
    91   46  103 1    
    92   46  104 1    
    93   47   48 2    
    94   47   49 am   BACKBONE|DICT|INTERRES
    95   49   50 1    
    96   49  105 1    
    97   50   51 1    
    98   50   52 1    
    99   50  106 1    
   100   51  107 1    
   101   51  108 1    
   102   51  109 1    
   103   52   53 2    
   104   52   54 am   BACKBONE|DICT|INTERRES
   105   54   55 1    
   106   54  110 1    
   107   55   56 1    
   108   55   59 1    
   109   55  111 1    
   110   56   57 am   BACKBONE|DICT|INTERRES
   111   56   58 2    
   112   57  112 1    
   113   57  113 1    
   114   59   60 1    
   115   59  114 1    
   116   59  115 1    
   117   60   61 1    
   118   61  116 1    
   119   61  117 1    
@<TRIPOS>SUBSTRUCTURE
     1 UNK         1 GROUP             0       ****    0 ROOT    
