@<TRIPOS>MOLECULE
3R8
117   119    1
SMALL
USER_CHARGES


@<TRIPOS>ATOM
      1 CA         23.8299  -25.6810  -48.1656 C.3       0 UNK        -0.2013 
      2 C          23.5480  -26.2924  -46.8016 C.2       0 UNK         0.4866 
      3 O          24.2359  -25.9711  -45.8331 O.2       0 UNK        -0.5176 
      4 N          22.5428  -27.1739  -46.7192 N.am      1 UNK        -0.4884 
      5 CA         22.1111  -27.8362  -45.4828 C.3       1 UNK         0.0853 
      6 C6         21.2331  -29.0855  -45.7573 C.3       10 UNK        -0.0849 
      7 S7         19.8272  -28.7839  -46.8869 S.3       10 UNK        -0.2776 
      8 C8         18.9778  -30.3972  -46.8568 C.3       10 UNK         0.0316 
      9 C9         18.1143  -30.5410  -45.6134 C.ar      10 UNK        -0.0863 
     10 C10        18.5796  -31.2485  -44.5030 C.ar      10 UNK        -0.1009 
     11 C11        17.8199  -31.3154  -43.3323 C.ar      10 UNK        -0.0712 
     12 C12        16.5623  -30.7031  -43.2889 C.ar      10 UNK        -0.0894 
     13 C13        16.1025  -29.9631  -44.3853 C.ar      10 UNK        -0.0745 
     14 C14        16.8681  -29.9130  -45.5541 C.ar      10 UNK        -0.0972 
     15 C15        14.8568  -29.0970  -44.2668 C.3       10 UNK         0.0209 
     16 S16        15.2966  -27.3196  -44.2180 S.3       10 UNK        -0.2568 
     17 C17        16.1565  -27.1650  -42.6123 C.3       10 UNK        -0.0983 
     18 CA         17.6709  -27.5037  -42.6937 C.3       3 UNK         0.0876 
     19 N          18.4595  -26.6249  -43.5542 N.am      3 UNK        -0.4424 
     20 C          18.8912  -25.3863  -43.2926 C.2       2 UNK         0.4918 
     21 O          18.4926  -24.6996  -42.3511 O.2       2 UNK        -0.4875 
     22 CA         19.9671  -24.8283  -44.2543 C.3       2 UNK         0.0481 
     23 CB         20.9466  -23.8847  -43.5264 C.3       2 UNK        -0.1831 
     24 N          20.7125  -25.8622  -44.9978 N.am      2 UNK        -0.4498 
     25 C          21.4379  -26.8730  -44.4854 C.2       1 UNK         0.5027 
     26 O          21.5742  -27.0773  -43.2812 O.2       1 UNK        -0.4969 
     27 C          18.3312  -27.7378  -41.3186 C.2       3 UNK         0.5005 
     28 O          17.7745  -27.3512  -40.2882 O.2       3 UNK        -0.5279 
     29 N          19.4974  -28.4012  -41.3548 N.am      4 UNK        -0.4463 
     30 CA         20.3640  -28.7894  -40.2375 C.3       4 UNK         0.0283 
     31 CB         19.5917  -29.5557  -39.1393 C.3       4 UNK        -0.1875 
     32 C          21.1717  -27.6054  -39.6792 C.2       4 UNK         0.4949 
     33 O          21.0738  -26.4804  -40.1732 O.2       4 UNK        -0.5039 
     34 N          22.0138  -27.9042  -38.6809 N.am      5 UNK        -0.4663 
     35 CA         22.9855  -27.0320  -38.0040 C.3       5 UNK         0.0242 
     36 CB         22.3150  -25.8037  -37.3566 C.3       5 UNK        -0.1982 
     37 C          24.1794  -26.6260  -38.8865 C.2       5 UNK         0.5017 
     38 O          25.3166  -26.7279  -38.4252 O.2       5 UNK        -0.5012 
     39 N          23.9185  -26.1989  -40.1296 N.am      6 UNK        -0.4439 
     40 CA         24.9446  -25.8981  -41.1296 C.3       6 UNK         0.0297 
     41 CB         24.3649  -25.0187  -42.2482 C.3       6 UNK        -0.2006 
     42 C          25.5758  -27.1809  -41.6942 C.2       6 UNK         0.4892 
     43 O          26.8030  -27.2865  -41.7075 O.2       6 UNK        -0.5089 
     44 N          24.7370  -28.1386  -42.1131 N.am      7 UNK        -0.4243 
     45 CA         25.1347  -29.4554  -42.6098 C.3       7 UNK         0.0196 
     46 CB         25.8284  -29.3349  -43.9851 C.3       7 UNK        -0.2007 
     47 C          23.9037  -30.3668  -42.7021 C.2       7 UNK         0.5020 
     48 O          22.7769  -29.8689  -42.7092 O.2       7 UNK        -0.5147 
     49 N          24.1645  -31.6760  -42.8274 N.am      8 UNK        -0.4734 
     50 CA         23.2178  -32.7817  -43.0412 C.3       8 UNK         0.0238 
     51 CB         22.3954  -32.5561  -44.3278 C.3       8 UNK        -0.1912 
     52 C          22.3157  -33.1090  -41.8327 C.2       8 UNK         0.5038 
     53 O          22.2486  -32.3502  -40.8635 O.2       8 UNK        -0.5046 
     54 N          21.6622  -34.2766  -41.9200 N.am      9 UNK        -0.4200 
     55 CA         20.7791  -34.8826  -40.9043 C.3       9 UNK         0.0839 
     56 C          21.4931  -35.3012  -39.5815 C.2       9 UNK         0.5513 
     57 N          22.8129  -35.4449  -39.5599 N.am      9 UNK        -0.7519 
     58 O          20.8428  -35.5335  -38.5653 O.2       9 UNK        -0.4960 
     59 C59        19.4720  -34.0775  -40.6494 C.3       10 UNK        -0.0876 
     60 S60        18.5187  -33.7471  -42.1738 S.3       10 UNK        -0.2414 
     61 C61        18.4196  -31.9379  -42.0821 C.3       10 UNK         0.0169 
     62 H62        23.1511  -26.0578  -48.9304 H         1 UNK         0.0903 
     63 H63        23.7222  -24.5977  -48.1200 H         1 UNK         0.0903 
     64 H64        24.8495  -25.9093  -48.4749 H         1 UNK         0.0903 
     65 H65        22.0083  -27.4104  -47.5443 H         1 UNK         0.3096 
     66 H66        23.0108  -28.1885  -44.9759 H         1 UNK         0.1121 
     67 H67        21.8537  -29.8670  -46.1985 H         1 UNK         0.0849 
     68 H68        20.8612  -29.5016  -44.8193 H         1 UNK         0.0849 
     69 H69        18.3502  -30.4829  -47.7453 H         1 UNK         0.0865 
     70 H70        19.7084  -31.2052  -46.9220 H         1 UNK         0.0865 
     71 H71        19.5507  -31.7180  -44.5326 H         1 UNK         0.1346 
     72 H72        15.9883  -30.7191  -42.3724 H         1 UNK         0.1412 
     73 H73        16.5252  -29.3232  -46.3937 H         1 UNK         0.1426 
     74 H74        14.2780  -29.3564  -43.3789 H         1 UNK         0.0716 
     75 H75        14.2076  -29.2801  -45.1241 H         1 UNK         0.0716 
     76 H76        16.0172  -26.1492  -42.2391 H         1 UNK         0.0695 
     77 H77        15.6519  -27.8204  -41.8999 H         1 UNK         0.0695 
     78 H78        17.7727  -28.4591  -43.1900 H         1 UNK         0.0983 
     79 H79        18.8304  -27.0643  -44.3838 H         1 UNK         0.3095 
     80 H80        19.4340  -24.2422  -45.0039 H         1 UNK         0.0454 
     81 H81        21.4146  -24.3778  -42.6737 H         1 UNK         0.0851 
     82 H82        21.7369  -23.5354  -44.1907 H         1 UNK         0.0851 
     83 H83        20.4301  -23.0035  -43.1445 H         1 UNK         0.0851 
     84 H84        20.6585  -25.8016  -46.0054 H         1 UNK         0.2976 
     85 H85        19.9208  -28.5464  -42.2618 H         1 UNK         0.3116 
     86 H86        21.0893  -29.4813  -40.6678 H         1 UNK         0.0646 
     87 H87        20.2732  -30.0671  -38.4593 H         1 UNK         0.0847 
     88 H88        18.9419  -30.3185  -39.5648 H         1 UNK         0.0847 
     89 H89        18.9743  -28.8897  -38.5357 H         1 UNK         0.0847 
     90 H90        22.0413  -28.8690  -38.3799 H         1 UNK         0.3040 
     91 H91        23.3972  -27.6346  -37.1922 H         1 UNK         0.1015 
     92 H92        21.5016  -26.0995  -36.6940 H         1 UNK         0.0786 
     93 H93        21.9097  -25.1152  -38.0985 H         1 UNK         0.0786 
     94 H94        23.0334  -25.2425  -36.7577 H         1 UNK         0.0786 
     95 H95        22.9421  -26.1542  -40.4139 H         1 UNK         0.3172 
     96 H96        25.7352  -25.3240  -40.6413 H         1 UNK         0.0595 
     97 H97        23.9477  -24.0927  -41.8526 H         1 UNK         0.0839 
     98 H98        23.5816  -25.5308  -42.8036 H         1 UNK         0.0839 
     99 H99        25.1384  -24.7462  -42.9674 H         1 UNK         0.0839 
    100 H100       23.7336  -27.9930  -42.0751 H         1 UNK         0.2998 
    101 H101       25.8270  -29.8977  -41.8904 H         1 UNK         0.0822 
    102 H102       26.7730  -28.7964  -43.9126 H         1 UNK         0.0787 
    103 H103       26.0580  -30.3153  -44.4042 H         1 UNK         0.0787 
    104 H104       25.2063  -28.8097  -44.7089 H         1 UNK         0.0787 
    105 H105       25.1337  -31.9589  -42.7767 H         1 UNK         0.3055 
    106 H106       23.8398  -33.6644  -43.2010 H         1 UNK         0.1106 
    107 H107       21.7459  -31.6885  -44.2369 H         1 UNK         0.0828 
    108 H108       23.0441  -32.3960  -45.1890 H         1 UNK         0.0828 
    109 H109       21.7611  -33.4124  -44.5590 H         1 UNK         0.0828 
    110 H110       21.7925  -34.8367  -42.7496 H         1 UNK         0.2931 
    111 H111       20.4718  -35.8319  -41.3445 H         1 UNK         0.0412 
    112 H112       23.2642  -35.7266  -38.7035 H         1 UNK         0.3472 
    113 H113       23.3618  -35.2727  -40.3865 H         1 UNK         0.3472 
    114 H114       19.7038  -33.1430  -40.1356 H         1 UNK         0.0970 
    115 H115       18.8129  -34.6285  -39.9761 H         1 UNK         0.0970 
    116 H116       19.4207  -31.5294  -41.9316 H         1 UNK         0.0612 
    117 H117       17.8366  -31.6636  -41.2020 H         1 UNK         0.0612 
@<TRIPOS>BOND
     1    1    2 1    
     2    1   62 1    
     3    1   63 1    
     4    1   64 1    
     5    2    3 2    
     6    2    4 am   BACKBONE|DICT|INTERRES
     7    4    5 1    
     8    4   65 1    
     9    5    6 1    
    10    5   25 1    
    11    5   66 1    
    12    6    7 1    
    13    6   67 1    
    14    6   68 1    
    15    7    8 1    
    16    8    9 1    
    17    8   69 1    
    18    8   70 1    
    19    9   10 ar   
    20    9   14 ar   
    21   10   11 ar   
    22   10   71 1    
    23   11   12 ar   
    24   11   61 1    
    25   12   13 ar   
    26   12   72 1    
    27   13   14 ar   
    28   13   15 1    
    29   14   73 1    
    30   15   16 1    
    31   15   74 1    
    32   15   75 1    
    33   16   17 1    
    34   17   18 1    
    35   17   76 1    
    36   17   77 1    
    37   18   19 1    
    38   18   27 1    
    39   18   78 1    
    40   19   20 am   BACKBONE|DICT|INTERRES
    41   19   79 1    
    42   20   21 2    
    43   20   22 1    
    44   22   23 1    
    45   22   24 1    
    46   22   80 1    
    47   23   81 1    
    48   23   82 1    
    49   23   83 1    
    50   24   25 am   BACKBONE|DICT|INTERRES
    51   24   84 1    
    52   25   26 2    
    53   27   28 2    
    54   27   29 am   BACKBONE|DICT|INTERRES
    55   29   30 1    
    56   29   85 1    
    57   30   31 1    
    58   30   32 1    
    59   30   86 1    
    60   31   87 1    
    61   31   88 1    
    62   31   89 1    
    63   32   33 2    
    64   32   34 am   BACKBONE|DICT|INTERRES
    65   34   35 1    
    66   34   90 1    
    67   35   36 1    
    68   35   37 1    
    69   35   91 1    
    70   36   92 1    
    71   36   93 1    
    72   36   94 1    
    73   37   38 2    
    74   37   39 am   BACKBONE|DICT|INTERRES
    75   39   40 1    
    76   39   95 1    
    77   40   41 1    
    78   40   42 1    
    79   40   96 1    
    80   41   97 1    
    81   41   98 1    
    82   41   99 1    
    83   42   43 2    
    84   42   44 am   BACKBONE|DICT|INTERRES
    85   44   45 1    
    86   44  100 1    
    87   45   46 1    
    88   45   47 1    
    89   45  101 1    
    90   46  102 1    
    91   46  103 1    
    92   46  104 1    
    93   47   48 2    
    94   47   49 am   BACKBONE|DICT|INTERRES
    95   49   50 1    
    96   49  105 1    
    97   50   51 1    
    98   50   52 1    
    99   50  106 1    
   100   51  107 1    
   101   51  108 1    
   102   51  109 1    
   103   52   53 2    
   104   52   54 am   BACKBONE|DICT|INTERRES
   105   54   55 1    
   106   54  110 1    
   107   55   56 1    
   108   55   59 1    
   109   55  111 1    
   110   56   57 am   BACKBONE|DICT|INTERRES
   111   56   58 2    
   112   57  112 1    
   113   57  113 1    
   114   59   60 1    
   115   59  114 1    
   116   59  115 1    
   117   60   61 1    
   118   61  116 1    
   119   61  117 1    
@<TRIPOS>SUBSTRUCTURE
     1 UNK         1 GROUP             0       ****    0 ROOT    
