@<TRIPOS>MOLECULE
3R8
117   119    1
SMALL
USER_CHARGES


@<TRIPOS>ATOM
      1 CA         17.3164  -22.6128  -45.2036 C.3       0 UNK        -0.2013 
      2 C          17.8618  -23.9734  -45.6108 C.2       0 UNK         0.4866 
      3 O          18.7395  -24.0491  -46.4716 O.2       0 UNK        -0.5176 
      4 N          17.3436  -25.0480  -45.0040 N.am      1 UNK        -0.4884 
      5 CA         17.8161  -26.4253  -45.1827 C.3       1 UNK         0.0853 
      6 C6         16.7067  -27.4542  -44.8508 C.3       10 UNK        -0.0849 
      7 S7         16.0036  -27.2929  -43.1732 S.3       10 UNK        -0.2776 
      8 C8         15.2082  -28.9189  -42.9810 C.3       10 UNK         0.0316 
      9 C9         16.2308  -30.0087  -42.6986 C.ar      10 UNK        -0.0863 
     10 C10        16.6169  -30.9068  -43.7000 C.ar      10 UNK        -0.1009 
     11 C11        17.5636  -31.9010  -43.4329 C.ar      10 UNK        -0.0712 
     12 C12        18.1133  -31.9974  -42.1521 C.ar      10 UNK        -0.0894 
     13 C13        17.7270  -31.1131  -41.1419 C.ar      10 UNK        -0.0745 
     14 C14        16.7853  -30.1205  -41.4209 C.ar      10 UNK        -0.0972 
     15 C15        18.3111  -31.2495  -39.7454 C.3       10 UNK         0.0209 
     16 S16        19.9933  -30.5699  -39.6491 S.3       10 UNK        -0.2568 
     17 C17        19.6800  -28.7727  -39.5823 C.3       10 UNK        -0.0983 
     18 CA         20.7214  -28.0093  -40.4317 C.3       3 UNK         0.0876 
     19 N          20.5301  -28.2118  -41.8743 N.am      3 UNK        -0.4424 
     20 C          21.4812  -27.9846  -42.7886 C.2       2 UNK         0.4918 
     21 O          22.6078  -27.5894  -42.5012 O.2       2 UNK        -0.4875 
     22 CA         21.1329  -28.1841  -44.2702 C.3       2 UNK         0.0481 
     23 CB         21.4379  -29.6307  -44.6693 C.3       2 UNK        -0.1831 
     24 N          19.7651  -27.8343  -44.6760 N.am      2 UNK        -0.4498 
     25 C          19.1329  -26.6797  -44.4126 C.2       1 UNK         0.5027 
     26 O          19.5585  -25.8378  -43.6168 O.2       1 UNK        -0.4969 
     27 C          20.8688  -26.5283  -40.0112 C.2       3 UNK         0.5005 
     28 O          21.2824  -26.2817  -38.8772 O.2       3 UNK        -0.5279 
     29 N          20.6074  -25.5684  -40.9143 N.am      4 UNK        -0.4463 
     30 CA         20.9846  -24.1624  -40.7309 C.3       4 UNK         0.0283 
     31 CB         20.2357  -23.2831  -41.7456 C.3       4 UNK        -0.1875 
     32 C          22.5069  -23.9461  -40.8501 C.2       4 UNK         0.4949 
     33 O          23.0481  -23.0878  -40.1531 O.2       4 UNK        -0.5039 
     34 N          23.1669  -24.7264  -41.7188 N.am      5 UNK        -0.4663 
     35 CA         24.6211  -24.7190  -41.9180 C.3       5 UNK         0.0242 
     36 CB         24.9178  -24.9489  -43.4092 C.3       5 UNK        -0.1982 
     37 C          25.3375  -25.7827  -41.0649 C.2       5 UNK         0.5017 
     38 O          26.5038  -25.5837  -40.7250 O.2       5 UNK        -0.5012 
     39 N          24.6149  -26.8666  -40.7469 N.am      6 UNK        -0.4439 
     40 CA         24.9952  -28.1157  -40.0812 C.3       6 UNK         0.0297 
     41 CB         25.9097  -27.9017  -38.8567 C.3       6 UNK        -0.2006 
     42 C          25.6011  -29.1092  -41.0963 C.2       6 UNK         0.4892 
     43 O          26.6065  -28.7736  -41.7219 O.2       6 UNK        -0.5089 
     44 N          25.0449  -30.3169  -41.2808 N.am      7 UNK        -0.4243 
     45 CA         23.8366  -30.8935  -40.6897 C.3       7 UNK         0.0196 
     46 CB         24.0817  -31.2886  -39.2169 C.3       7 UNK        -0.2007 
     47 C          23.4239  -32.1323  -41.4972 C.2       7 UNK         0.5020 
     48 O          24.2112  -32.6336  -42.3041 O.2       7 UNK        -0.5147 
     49 N          22.2018  -32.6171  -41.2337 N.am      8 UNK        -0.4734 
     50 CA         21.6332  -33.9149  -41.6387 C.3       8 UNK         0.0238 
     51 CB         22.4529  -35.0683  -41.0212 C.3       8 UNK        -0.1912 
     52 C          21.4201  -34.1319  -43.1516 C.2       8 UNK         0.5038 
     53 O          21.0185  -35.2304  -43.5381 O.2       8 UNK        -0.5046 
     54 N          21.6823  -33.1087  -43.9751 N.am      9 UNK        -0.4200 
     55 CA         21.7024  -33.1693  -45.4491 C.3       9 UNK         0.0839 
     56 C          22.8209  -34.0962  -46.0186 C.2       9 UNK         0.5513 
     57 N          23.9090  -34.3247  -45.2908 N.am      9 UNK        -0.7519 
     58 O          22.7224  -34.5911  -47.1387 O.2       9 UNK        -0.4960 
     59 C59        20.3008  -33.4216  -46.0837 C.3       10 UNK        -0.0876 
     60 S60        19.1150  -32.0849  -45.7054 S.3       10 UNK        -0.2414 
     61 C61        17.9884  -32.8783  -44.5189 C.3       10 UNK         0.0169 
     62 H62        18.1144  -22.0008  -44.7838 H         1 UNK         0.0903 
     63 H63        16.9095  -22.0953  -46.0720 H         1 UNK         0.0903 
     64 H64        16.5261  -22.6969  -44.4577 H         1 UNK         0.0903 
     65 H65        16.6488  -24.9298  -44.2799 H         1 UNK         0.3096 
     66 H66        18.0613  -26.5505  -46.2401 H         1 UNK         0.1121 
     67 H67        15.8875  -27.3387  -45.5623 H         1 UNK         0.0849 
     68 H68        17.0739  -28.4699  -44.9995 H         1 UNK         0.0849 
     69 H69        14.4962  -28.8687  -42.1558 H         1 UNK         0.0865 
     70 H70        14.6229  -29.1519  -43.8721 H         1 UNK         0.0865 
     71 H71        16.1889  -30.8309  -44.6904 H         1 UNK         0.1346 
     72 H72        18.8382  -32.7671  -41.9372 H         1 UNK         0.1412 
     73 H73        16.4805  -29.4319  -40.6445 H         1 UNK         0.1426 
     74 H74        18.3434  -32.3047  -39.4702 H         1 UNK         0.0716 
     75 H75        17.6756  -30.7621  -39.0043 H         1 UNK         0.0716 
     76 H76        18.6679  -28.5389  -39.9141 H         1 UNK         0.0695 
     77 H77        19.7329  -28.4807  -38.5316 H         1 UNK         0.0695 
     78 H78        21.6932  -28.4344  -40.1804 H         1 UNK         0.0983 
     79 H79        19.6190  -28.5256  -42.1768 H         1 UNK         0.3095 
     80 H80        21.7973  -27.5332  -44.8418 H         1 UNK         0.0454 
     81 H81        22.4754  -29.8874  -44.4493 H         1 UNK         0.0851 
     82 H82        20.8040  -30.3296  -44.1233 H         1 UNK         0.0851 
     83 H83        21.2856  -29.7915  -45.7365 H         1 UNK         0.0851 
     84 H84        19.3250  -28.4814  -45.3144 H         1 UNK         0.2976 
     85 H85        20.2403  -25.8237  -41.8290 H         1 UNK         0.3116 
     86 H86        20.6789  -23.8528  -39.7291 H         1 UNK         0.0646 
     87 H87        20.4369  -22.2262  -41.5662 H         1 UNK         0.0847 
     88 H88        19.1570  -23.4249  -41.6771 H         1 UNK         0.0847 
     89 H89        20.5368  -23.5000  -42.7712 H         1 UNK         0.0847 
     90 H90        22.6450  -25.4209  -42.2378 H         1 UNK         0.3040 
     91 H91        25.0265  -23.7440  -41.6375 H         1 UNK         0.1015 
     92 H92        24.5430  -25.9142  -43.7528 H         1 UNK         0.0786 
     93 H93        25.9917  -24.9297  -43.6004 H         1 UNK         0.0786 
     94 H94        24.4651  -24.1735  -44.0275 H         1 UNK         0.0786 
     95 H95        23.7212  -26.9333  -41.2269 H         1 UNK         0.3172 
     96 H96        24.0518  -28.4969  -39.7004 H         1 UNK         0.0595 
     97 H97        26.0310  -28.8275  -38.2945 H         1 UNK         0.0839 
     98 H98        26.9100  -27.5773  -39.1444 H         1 UNK         0.0839 
     99 H99        25.4962  -27.1584  -38.1753 H         1 UNK         0.0839 
    100 H100       25.4609  -30.9368  -41.9660 H         1 UNK         0.2998 
    101 H101       23.0210  -30.1755  -40.7664 H         1 UNK         0.0822 
    102 H102       23.2013  -31.7647  -38.7829 H         1 UNK         0.0787 
    103 H103       24.9068  -31.9966  -39.1282 H         1 UNK         0.0787 
    104 H104       24.3115  -30.4360  -38.5821 H         1 UNK         0.0787 
    105 H105       21.6205  -32.0868  -40.5947 H         1 UNK         0.3055 
    106 H106       20.6397  -33.9593  -41.1916 H         1 UNK         0.1106 
    107 H107       23.4502  -35.1356  -41.4571 H         1 UNK         0.0828 
    108 H108       22.5652  -34.9440  -39.9442 H         1 UNK         0.0828 
    109 H109       21.9649  -36.0304  -41.1827 H         1 UNK         0.0828 
    110 H110       22.0428  -32.2629  -43.5618 H         1 UNK         0.2931 
    111 H111       22.0141  -32.1763  -45.7711 H         1 UNK         0.0412 
    112 H112       24.6369  -34.9151  -45.6616 H         1 UNK         0.3472 
    113 H113       24.0136  -33.9049  -44.3773 H         1 UNK         0.3472 
    114 H114       19.9003  -34.3910  -45.7853 H         1 UNK         0.0970 
    115 H115       20.3809  -33.4615  -47.1713 H         1 UNK         0.0970 
    116 H116       17.1112  -33.2495  -45.0505 H         1 UNK         0.0612 
    117 H117       18.4672  -33.7494  -44.0699 H         1 UNK         0.0612 
@<TRIPOS>BOND
     1    1    2 1    
     2    1   62 1    
     3    1   63 1    
     4    1   64 1    
     5    2    3 2    
     6    2    4 am   BACKBONE|DICT|INTERRES
     7    4    5 1    
     8    4   65 1    
     9    5    6 1    
    10    5   25 1    
    11    5   66 1    
    12    6    7 1    
    13    6   67 1    
    14    6   68 1    
    15    7    8 1    
    16    8    9 1    
    17    8   69 1    
    18    8   70 1    
    19    9   10 ar   
    20    9   14 ar   
    21   10   11 ar   
    22   10   71 1    
    23   11   12 ar   
    24   11   61 1    
    25   12   13 ar   
    26   12   72 1    
    27   13   14 ar   
    28   13   15 1    
    29   14   73 1    
    30   15   16 1    
    31   15   74 1    
    32   15   75 1    
    33   16   17 1    
    34   17   18 1    
    35   17   76 1    
    36   17   77 1    
    37   18   19 1    
    38   18   27 1    
    39   18   78 1    
    40   19   20 am   BACKBONE|DICT|INTERRES
    41   19   79 1    
    42   20   21 2    
    43   20   22 1    
    44   22   23 1    
    45   22   24 1    
    46   22   80 1    
    47   23   81 1    
    48   23   82 1    
    49   23   83 1    
    50   24   25 am   BACKBONE|DICT|INTERRES
    51   24   84 1    
    52   25   26 2    
    53   27   28 2    
    54   27   29 am   BACKBONE|DICT|INTERRES
    55   29   30 1    
    56   29   85 1    
    57   30   31 1    
    58   30   32 1    
    59   30   86 1    
    60   31   87 1    
    61   31   88 1    
    62   31   89 1    
    63   32   33 2    
    64   32   34 am   BACKBONE|DICT|INTERRES
    65   34   35 1    
    66   34   90 1    
    67   35   36 1    
    68   35   37 1    
    69   35   91 1    
    70   36   92 1    
    71   36   93 1    
    72   36   94 1    
    73   37   38 2    
    74   37   39 am   BACKBONE|DICT|INTERRES
    75   39   40 1    
    76   39   95 1    
    77   40   41 1    
    78   40   42 1    
    79   40   96 1    
    80   41   97 1    
    81   41   98 1    
    82   41   99 1    
    83   42   43 2    
    84   42   44 am   BACKBONE|DICT|INTERRES
    85   44   45 1    
    86   44  100 1    
    87   45   46 1    
    88   45   47 1    
    89   45  101 1    
    90   46  102 1    
    91   46  103 1    
    92   46  104 1    
    93   47   48 2    
    94   47   49 am   BACKBONE|DICT|INTERRES
    95   49   50 1    
    96   49  105 1    
    97   50   51 1    
    98   50   52 1    
    99   50  106 1    
   100   51  107 1    
   101   51  108 1    
   102   51  109 1    
   103   52   53 2    
   104   52   54 am   BACKBONE|DICT|INTERRES
   105   54   55 1    
   106   54  110 1    
   107   55   56 1    
   108   55   59 1    
   109   55  111 1    
   110   56   57 am   BACKBONE|DICT|INTERRES
   111   56   58 2    
   112   57  112 1    
   113   57  113 1    
   114   59   60 1    
   115   59  114 1    
   116   59  115 1    
   117   60   61 1    
   118   61  116 1    
   119   61  117 1    
@<TRIPOS>SUBSTRUCTURE
     1 UNK         1 GROUP             0       ****    0 ROOT    
