@<TRIPOS>MOLECULE
3R8
117   119    1
SMALL
USER_CHARGES


@<TRIPOS>ATOM
      1 CA         16.3224  -25.6718  -40.3315 C.3       0 UNK        -0.2013 
      2 C          17.0972  -26.9802  -40.1939 C.2       0 UNK         0.4866 
      3 O          17.3224  -27.4283  -39.0714 O.2       0 UNK        -0.5176 
      4 N          17.5092  -27.6353  -41.2877 N.am      1 UNK        -0.4884 
      5 CA         17.3765  -27.2134  -42.6893 C.3       1 UNK         0.0853 
      6 C6         17.6526  -28.3916  -43.6535 C.3       10 UNK        -0.0849 
      7 S7         16.5043  -29.7914  -43.4231 S.3       10 UNK        -0.2776 
      8 C8         16.8654  -30.8002  -44.9022 C.3       10 UNK         0.0316 
      9 C9         18.3614  -30.9706  -45.1367 C.ar      10 UNK        -0.0863 
     10 C10        19.1611  -31.5758  -44.1631 C.ar      10 UNK        -0.1009 
     11 C11        20.5429  -31.6790  -44.3409 C.ar      10 UNK        -0.0712 
     12 C12        21.1241  -31.1788  -45.5083 C.ar      10 UNK        -0.0894 
     13 C13        20.3393  -30.5437  -46.4754 C.ar      10 UNK        -0.0745 
     14 C14        18.9558  -30.4612  -46.2956 C.ar      10 UNK        -0.0972 
     15 C15        20.9985  -29.8817  -47.6768 C.3       10 UNK         0.0209 
     16 S16        21.0693  -28.0658  -47.4945 S.3       10 UNK        -0.2568 
     17 C17        22.0027  -27.8801  -45.9350 C.3       10 UNK        -0.0983 
     18 CA         22.0244  -26.4268  -45.3961 C.3       3 UNK         0.0876 
     19 N          20.6668  -25.9051  -45.2029 N.am      3 UNK        -0.4424 
     20 C          20.3224  -24.6161  -45.0793 C.2       2 UNK         0.4918 
     21 O          21.1232  -23.6874  -45.1997 O.2       2 UNK        -0.4875 
     22 CA         18.8501  -24.2963  -44.7500 C.3       2 UNK         0.0481 
     23 CB         18.1333  -23.7557  -45.9976 C.3       2 UNK        -0.1831 
     24 N          18.0796  -25.4220  -44.2048 N.am      2 UNK        -0.4498 
     25 C          18.3110  -26.0313  -43.0316 C.2       1 UNK         0.5027 
     26 O          19.2256  -25.7139  -42.2681 O.2       1 UNK        -0.4969 
     27 C          22.8239  -26.3235  -44.0754 C.2       3 UNK         0.5005 
     28 O          23.1591  -27.3470  -43.4734 O.2       3 UNK        -0.5279 
     29 N          23.0861  -25.0842  -43.6348 N.am      4 UNK        -0.4463 
     30 CA         23.6192  -24.6893  -42.3229 C.3       4 UNK         0.0283 
     31 CB         23.7379  -23.1572  -42.2806 C.3       4 UNK        -0.1875 
     32 C          24.9486  -25.3385  -41.8946 C.2       4 UNK         0.4949 
     33 O          25.2605  -25.3318  -40.7038 O.2       4 UNK        -0.5039 
     34 N          25.6972  -25.9018  -42.8512 N.am      5 UNK        -0.4663 
     35 CA         26.9009  -26.7019  -42.6152 C.3       5 UNK         0.0242 
     36 CB         27.6090  -26.9410  -43.9589 C.3       5 UNK        -0.1982 
     37 C          26.6286  -28.0443  -41.9053 C.2       5 UNK         0.5017 
     38 O          27.5652  -28.6099  -41.3391 O.2       5 UNK        -0.5012 
     39 N          25.3801  -28.5324  -41.9479 N.am      6 UNK        -0.4439 
     40 CA         24.9508  -29.7772  -41.3080 C.3       6 UNK         0.0297 
     41 CB         24.9483  -30.9192  -42.3372 C.3       6 UNK        -0.2006 
     42 C          23.5881  -29.6190  -40.6189 C.2       6 UNK         0.4892 
     43 O          23.4779  -29.9543  -39.4392 O.2       6 UNK        -0.5089 
     44 N          22.5940  -29.0938  -41.3518 N.am      7 UNK        -0.4243 
     45 CA         21.2220  -28.7353  -40.9579 C.3       7 UNK         0.0196 
     46 CB         21.2316  -27.5650  -39.9574 C.3       7 UNK        -0.2007 
     47 C          20.3266  -29.8795  -40.4430 C.2       7 UNK         0.5020 
     48 O          19.1985  -30.0146  -40.9152 O.2       7 UNK        -0.5147 
     49 N          20.8162  -30.6650  -39.4804 N.am      8 UNK        -0.4734 
     50 CA         20.0747  -31.7002  -38.7626 C.3       8 UNK         0.0238 
     51 CB         20.3694  -31.5547  -37.2576 C.3       8 UNK        -0.1912 
     52 C          20.4368  -33.0955  -39.2954 C.2       8 UNK         0.5038 
     53 O          21.1743  -33.8334  -38.6385 O.2       8 UNK        -0.5046 
     54 N          19.9110  -33.4292  -40.4797 N.am      9 UNK        -0.4200 
     55 CA         20.0282  -34.7617  -41.1020 C.3       9 UNK         0.0839 
     56 C          18.9540  -35.7753  -40.6060 C.2       9 UNK         0.5513 
     57 N          17.9692  -35.3764  -39.8089 N.am      9 UNK        -0.7519 
     58 O          19.0233  -36.9547  -40.9421 O.2       9 UNK        -0.4960 
     59 C59        20.0516  -34.6775  -42.6538 C.3       10 UNK        -0.0876 
     60 S60        21.6312  -34.0397  -43.3115 S.3       10 UNK        -0.2414 
     61 C61        21.4241  -32.2358  -43.2357 C.3       10 UNK         0.0169 
     62 H62        16.9732  -24.8705  -40.6798 H         1 UNK         0.0903 
     63 H63        15.4840  -25.7740  -41.0192 H         1 UNK         0.0903 
     64 H64        15.9157  -25.3693  -39.3667 H         1 UNK         0.0903 
     65 H65        18.0154  -28.5082  -41.1593 H         1 UNK         0.3096 
     66 H66        16.3498  -26.8808  -42.8524 H         1 UNK         0.1121 
     67 H67        18.6734  -28.7550  -43.5161 H         1 UNK         0.0849 
     68 H68        17.5759  -28.0757  -44.6957 H         1 UNK         0.0849 
     69 H69        16.3881  -30.3373  -45.7674 H         1 UNK         0.0865 
     70 H70        16.4046  -31.7821  -44.7865 H         1 UNK         0.0865 
     71 H71        18.7066  -31.9160  -43.2437 H         1 UNK         0.1346 
     72 H72        22.1968  -31.2300  -45.6365 H         1 UNK         0.1412 
     73 H73        18.3521  -29.9577  -47.0385 H         1 UNK         0.1426 
     74 H74        20.4405  -30.1277  -48.5814 H         1 UNK         0.0716 
     75 H75        22.0088  -30.2662  -47.8250 H         1 UNK         0.0716 
     76 H76        23.0182  -28.2446  -46.1015 H         1 UNK         0.0695 
     77 H77        21.5583  -28.5320  -45.1826 H         1 UNK         0.0695 
     78 H78        22.5330  -25.8040  -46.1352 H         1 UNK         0.0983 
     79 H79        19.9442  -26.6002  -45.1027 H         1 UNK         0.3095 
     80 H80        18.8566  -23.5076  -43.9948 H         1 UNK         0.0454 
     81 H81        18.0746  -24.5059  -46.7873 H         1 UNK         0.0851 
     82 H82        18.6601  -22.8930  -46.4084 H         1 UNK         0.0851 
     83 H83        17.1194  -23.4298  -45.7654 H         1 UNK         0.0851 
     84 H84        17.3076  -25.7414  -44.7732 H         1 UNK         0.2976 
     85 H85        22.7121  -24.3276  -44.2000 H         1 UNK         0.3116 
     86 H86        22.8750  -24.9878  -41.5831 H         1 UNK         0.0646 
     87 H87        24.4394  -22.7875  -43.0295 H         1 UNK         0.0847 
     88 H88        24.0918  -22.8167  -41.3063 H         1 UNK         0.0847 
     89 H89        22.7744  -22.6782  -42.4564 H         1 UNK         0.0847 
     90 H90        25.3558  -25.8597  -43.8004 H         1 UNK         0.3040 
     91 H91        27.5684  -26.1259  -41.9704 H         1 UNK         0.1015 
     92 H92        27.8796  -26.0003  -44.4389 H         1 UNK         0.0786 
     93 H93        26.9820  -27.5051  -44.6507 H         1 UNK         0.0786 
     94 H94        28.5310  -27.5075  -43.8192 H         1 UNK         0.0786 
     95 H95        24.6655  -27.9901  -42.4278 H         1 UNK         0.3172 
     96 H96        25.6567  -30.0451  -40.5187 H         1 UNK         0.0595 
     97 H97        24.3914  -30.6501  -43.2347 H         1 UNK         0.0839 
     98 H98        24.5054  -31.8264  -41.9233 H         1 UNK         0.0839 
     99 H99        25.9641  -31.1677  -42.6450 H         1 UNK         0.0839 
    100 H100       22.8218  -28.8060  -42.2995 H         1 UNK         0.2998 
    101 H101       20.7512  -28.3685  -41.8719 H         1 UNK         0.0822 
    102 H102       21.7510  -26.7008  -40.3692 H         1 UNK         0.0787 
    103 H103       20.2156  -27.2460  -39.7211 H         1 UNK         0.0787 
    104 H104       21.7164  -27.8336  -39.0184 H         1 UNK         0.0787 
    105 H105       21.7877  -30.5158  -39.2102 H         1 UNK         0.3055 
    106 H106       18.9999  -31.5604  -38.9007 H         1 UNK         0.1106 
    107 H107       19.8457  -32.3178  -36.6803 H         1 UNK         0.0828 
    108 H108       20.0413  -30.5847  -36.8836 H         1 UNK         0.0828 
    109 H109       21.4341  -31.6527  -37.0407 H         1 UNK         0.0828 
    110 H110       19.3210  -32.7598  -40.9521 H         1 UNK         0.2931 
    111 H111       20.9817  -35.1956  -40.7943 H         1 UNK         0.0412 
    112 H112       17.8970  -34.4152  -39.5184 H         1 UNK         0.3472 
    113 H113       17.2879  -36.0499  -39.4946 H         1 UNK         0.3472 
    114 H114       19.9357  -35.6714  -43.0905 H         1 UNK         0.0970 
    115 H115       19.2093  -34.1017  -43.0334 H         1 UNK         0.0970 
    116 H116       21.0417  -31.9374  -42.2641 H         1 UNK         0.0612 
    117 H117       22.4118  -31.7855  -43.3063 H         1 UNK         0.0612 
@<TRIPOS>BOND
     1    1    2 1    
     2    1   62 1    
     3    1   63 1    
     4    1   64 1    
     5    2    3 2    
     6    2    4 am   BACKBONE|DICT|INTERRES
     7    4    5 1    
     8    4   65 1    
     9    5    6 1    
    10    5   25 1    
    11    5   66 1    
    12    6    7 1    
    13    6   67 1    
    14    6   68 1    
    15    7    8 1    
    16    8    9 1    
    17    8   69 1    
    18    8   70 1    
    19    9   10 ar   
    20    9   14 ar   
    21   10   11 ar   
    22   10   71 1    
    23   11   12 ar   
    24   11   61 1    
    25   12   13 ar   
    26   12   72 1    
    27   13   14 ar   
    28   13   15 1    
    29   14   73 1    
    30   15   16 1    
    31   15   74 1    
    32   15   75 1    
    33   16   17 1    
    34   17   18 1    
    35   17   76 1    
    36   17   77 1    
    37   18   19 1    
    38   18   27 1    
    39   18   78 1    
    40   19   20 am   BACKBONE|DICT|INTERRES
    41   19   79 1    
    42   20   21 2    
    43   20   22 1    
    44   22   23 1    
    45   22   24 1    
    46   22   80 1    
    47   23   81 1    
    48   23   82 1    
    49   23   83 1    
    50   24   25 am   BACKBONE|DICT|INTERRES
    51   24   84 1    
    52   25   26 2    
    53   27   28 2    
    54   27   29 am   BACKBONE|DICT|INTERRES
    55   29   30 1    
    56   29   85 1    
    57   30   31 1    
    58   30   32 1    
    59   30   86 1    
    60   31   87 1    
    61   31   88 1    
    62   31   89 1    
    63   32   33 2    
    64   32   34 am   BACKBONE|DICT|INTERRES
    65   34   35 1    
    66   34   90 1    
    67   35   36 1    
    68   35   37 1    
    69   35   91 1    
    70   36   92 1    
    71   36   93 1    
    72   36   94 1    
    73   37   38 2    
    74   37   39 am   BACKBONE|DICT|INTERRES
    75   39   40 1    
    76   39   95 1    
    77   40   41 1    
    78   40   42 1    
    79   40   96 1    
    80   41   97 1    
    81   41   98 1    
    82   41   99 1    
    83   42   43 2    
    84   42   44 am   BACKBONE|DICT|INTERRES
    85   44   45 1    
    86   44  100 1    
    87   45   46 1    
    88   45   47 1    
    89   45  101 1    
    90   46  102 1    
    91   46  103 1    
    92   46  104 1    
    93   47   48 2    
    94   47   49 am   BACKBONE|DICT|INTERRES
    95   49   50 1    
    96   49  105 1    
    97   50   51 1    
    98   50   52 1    
    99   50  106 1    
   100   51  107 1    
   101   51  108 1    
   102   51  109 1    
   103   52   53 2    
   104   52   54 am   BACKBONE|DICT|INTERRES
   105   54   55 1    
   106   54  110 1    
   107   55   56 1    
   108   55   59 1    
   109   55  111 1    
   110   56   57 am   BACKBONE|DICT|INTERRES
   111   56   58 2    
   112   57  112 1    
   113   57  113 1    
   114   59   60 1    
   115   59  114 1    
   116   59  115 1    
   117   60   61 1    
   118   61  116 1    
   119   61  117 1    
@<TRIPOS>SUBSTRUCTURE
     1 UNK         1 GROUP             0       ****    0 ROOT    
