@<TRIPOS>MOLECULE
3R8
117   119    1
SMALL
USER_CHARGES


@<TRIPOS>ATOM
      1 CA         18.6596  -26.5453  -41.4010 C.3       0 UNK        -0.2013 
      2 C          18.0264  -26.0388  -42.6843 C.2       0 UNK         0.4866 
      3 O          17.8167  -24.8346  -42.8397 O.2       0 UNK        -0.5176 
      4 N          17.7300  -26.9494  -43.6192 N.am      1 UNK        -0.4884 
      5 CA         17.1375  -26.6576  -44.9314 C.3       1 UNK         0.0853 
      6 C6         16.3082  -27.8505  -45.4888 C.3       10 UNK        -0.0849 
      7 S7         15.1933  -28.6074  -44.2505 S.3       10 UNK        -0.2776 
      8 C8         15.8797  -30.2926  -44.0821 C.3       10 UNK         0.0316 
      9 C9         17.3451  -30.2987  -43.6602 C.ar      10 UNK        -0.0863 
     10 C10        17.7021  -30.0938  -42.3240 C.ar      10 UNK        -0.1009 
     11 C11        19.0479  -30.0962  -41.9405 C.ar      10 UNK        -0.0712 
     12 C12        20.0394  -30.2959  -42.9073 C.ar      10 UNK        -0.0894 
     13 C13        19.6929  -30.5278  -44.2417 C.ar      10 UNK        -0.0745 
     14 C14        18.3457  -30.5304  -44.6090 C.ar      10 UNK        -0.0972 
     15 C15        20.7622  -30.8103  -45.2881 C.3       10 UNK         0.0209 
     16 S16        21.2823  -29.3020  -46.1624 S.3       10 UNK        -0.2568 
     17 C17        22.3325  -28.5296  -44.8920 C.3       10 UNK        -0.0983 
     18 CA         23.0827  -27.2631  -45.3947 C.3       3 UNK         0.0876 
     19 N          22.1659  -26.2345  -45.9216 N.am      3 UNK        -0.4424 
     20 C          21.2553  -25.5563  -45.2081 C.2       2 UNK         0.4918 
     21 O          21.1857  -25.6019  -43.9787 O.2       2 UNK        -0.4875 
     22 CA         20.2463  -24.6665  -45.9580 C.3       2 UNK         0.0481 
     23 CB         20.4371  -24.5910  -47.4909 C.3       2 UNK        -0.1831 
     24 N          18.8945  -25.0750  -45.5629 N.am      2 UNK        -0.4498 
     25 C          18.2586  -26.2092  -45.8959 C.2       1 UNK         0.5027 
     26 O          18.5684  -26.9180  -46.8544 O.2       1 UNK        -0.4969 
     27 C          24.0540  -26.7299  -44.3120 C.2       3 UNK         0.5005 
     28 O          24.4695  -27.4925  -43.4400 O.2       3 UNK        -0.5279 
     29 N          24.3652  -25.4236  -44.3498 N.am      4 UNK        -0.4463 
     30 CA         25.1120  -24.6714  -43.3286 C.3       4 UNK         0.0283 
     31 CB         26.5875  -25.1229  -43.2744 C.3       4 UNK        -0.1875 
     32 C          24.4338  -24.6817  -41.9382 C.2       4 UNK         0.4949 
     33 O          25.1203  -24.5735  -40.9222 O.2       4 UNK        -0.5039 
     34 N          23.0979  -24.8116  -41.9263 N.am      5 UNK        -0.4663 
     35 CA         22.1760  -24.8307  -40.7837 C.3       5 UNK         0.0242 
     36 CB         22.3110  -23.5564  -39.9241 C.3       5 UNK        -0.1982 
     37 C          22.2092  -26.1075  -39.9213 C.2       5 UNK         0.5017 
     38 O          21.3502  -26.2383  -39.0481 O.2       5 UNK        -0.5012 
     39 N          23.1426  -27.0349  -40.1692 N.am      6 UNK        -0.4439 
     40 CA         23.2621  -28.3046  -39.4554 C.3       6 UNK         0.0297 
     41 CB         23.8594  -28.0903  -38.0507 C.3       6 UNK        -0.2006 
     42 C          24.1303  -29.2653  -40.2712 C.2       6 UNK         0.4892 
     43 O          25.2243  -28.8852  -40.6916 O.2       6 UNK        -0.5089 
     44 N          23.6428  -30.4972  -40.4375 N.am      7 UNK        -0.4243 
     45 CA         24.3187  -31.6055  -41.1064 C.3       7 UNK         0.0196 
     46 CB         24.1653  -31.4791  -42.6382 C.3       7 UNK        -0.2007 
     47 C          23.7607  -32.9102  -40.5155 C.2       7 UNK         0.5020 
     48 O          23.5561  -32.9769  -39.3018 O.2       7 UNK        -0.5147 
     49 N          23.5005  -33.9176  -41.3606 N.am      8 UNK        -0.4734 
     50 CA         22.8100  -35.1542  -40.9716 C.3       8 UNK         0.0238 
     51 CB         22.9689  -36.2059  -42.0818 C.3       8 UNK        -0.1912 
     52 C          21.3212  -34.9202  -40.6514 C.2       8 UNK         0.5038 
     53 O          20.7968  -35.5449  -39.7282 O.2       8 UNK        -0.5046 
     54 N          20.6948  -34.0046  -41.4043 N.am      9 UNK        -0.4200 
     55 CA         19.3076  -33.5353  -41.2548 C.3       9 UNK         0.0839 
     56 C          18.2434  -34.6582  -41.4555 C.2       9 UNK         0.5513 
     57 N          17.0182  -34.4794  -40.9777 N.am      9 UNK        -0.7519 
     58 O          18.4988  -35.6765  -42.0960 O.2       9 UNK        -0.4960 
     59 C59        19.1006  -32.6765  -39.9680 C.3       10 UNK        -0.0876 
     60 S60        20.3238  -31.3273  -39.7921 S.3       10 UNK        -0.2414 
     61 C61        19.4302  -29.8971  -40.4795 C.3       10 UNK         0.0169 
     62 H62        18.0315  -27.3043  -40.9365 H         1 UNK         0.0903 
     63 H63        19.6381  -26.9753  -41.6128 H         1 UNK         0.0903 
     64 H64        18.7927  -25.7338  -40.6858 H         1 UNK         0.0903 
     65 H65        17.9320  -27.9270  -43.4508 H         1 UNK         0.3096 
     66 H66        16.4501  -25.8154  -44.8216 H         1 UNK         0.1121 
     67 H67        15.6973  -27.5095  -46.3264 H         1 UNK         0.0849 
     68 H68        16.9531  -28.6237  -45.9041 H         1 UNK         0.0849 
     69 H69        15.2893  -30.8414  -43.3468 H         1 UNK         0.0865 
     70 H70        15.7514  -30.8248  -45.0260 H         1 UNK         0.0865 
     71 H71        16.9290  -29.9330  -41.5846 H         1 UNK         0.1346 
     72 H72        21.0792  -30.2965  -42.6120 H         1 UNK         0.1412 
     73 H73        18.0787  -30.7104  -45.6416 H         1 UNK         0.1426 
     74 H74        20.3764  -31.5200  -46.0215 H         1 UNK         0.0716 
     75 H75        21.6282  -31.2925  -44.8338 H         1 UNK         0.0716 
     76 H76        23.0425  -29.2885  -44.5594 H         1 UNK         0.0695 
     77 H77        21.7131  -28.2862  -44.0273 H         1 UNK         0.0695 
     78 H78        23.7171  -27.5646  -46.2297 H         1 UNK         0.0983 
     79 H79        22.1530  -26.1373  -46.9266 H         1 UNK         0.3095 
     80 H80        20.3802  -23.6577  -45.5655 H         1 UNK         0.0454 
     81 H81        20.4113  -25.5689  -47.9718 H         1 UNK         0.0851 
     82 H82        21.3928  -24.1292  -47.7413 H         1 UNK         0.0851 
     83 H83        19.6602  -23.9798  -47.9500 H         1 UNK         0.0851 
     84 H84        18.5651  -24.6372  -44.7068 H         1 UNK         0.2976 
     85 H85        23.9773  -24.8742  -45.1045 H         1 UNK         0.3116 
     86 H86        25.1019  -23.6305  -43.6549 H         1 UNK         0.0646 
     87 H87        26.6884  -26.1327  -42.8751 H         1 UNK         0.0847 
     88 H88        27.1750  -24.4634  -42.6347 H         1 UNK         0.0847 
     89 H89        27.0460  -25.1048  -44.2629 H         1 UNK         0.0847 
     90 H90        22.6354  -24.9664  -42.8182 H         1 UNK         0.3040 
     91 H91        21.1800  -24.8106  -41.2290 H         1 UNK         0.1015 
     92 H92        22.2431  -22.6558  -40.5343 H         1 UNK         0.0786 
     93 H93        23.2568  -23.5273  -39.3827 H         1 UNK         0.0786 
     94 H94        21.5147  -23.5026  -39.1805 H         1 UNK         0.0786 
     95 H95        23.8132  -26.8874  -40.9154 H         1 UNK         0.3172 
     96 H96        22.2657  -28.7385  -39.3497 H         1 UNK         0.0595 
     97 H97        24.8357  -27.6065  -38.1005 H         1 UNK         0.0839 
     98 H98        23.9916  -29.0418  -37.5339 H         1 UNK         0.0839 
     99 H99        23.2119  -27.4740  -37.4273 H         1 UNK         0.0839 
    100 H100       22.7689  -30.7473  -39.9897 H         1 UNK         0.2998 
    101 H101       25.3809  -31.5744  -40.8549 H         1 UNK         0.0822 
    102 H102       24.5371  -30.5165  -42.9908 H         1 UNK         0.0787 
    103 H103       24.7377  -32.2452  -43.1620 H         1 UNK         0.0787 
    104 H104       23.1241  -31.5634  -42.9482 H         1 UNK         0.0787 
    105 H105       23.7203  -33.7996  -42.3393 H         1 UNK         0.3055 
    106 H106       23.2828  -35.5401  -40.0652 H         1 UNK         0.1106 
    107 H107       22.4786  -37.1403  -41.8044 H         1 UNK         0.0828 
    108 H108       22.5276  -35.8748  -43.0226 H         1 UNK         0.0828 
    109 H109       24.0189  -36.4353  -42.2643 H         1 UNK         0.0828 
    110 H110       21.2186  -33.5691  -42.1468 H         1 UNK         0.2931 
    111 H111       19.1506  -32.8801  -42.1104 H         1 UNK         0.0412 
    112 H112       16.7655  -33.6440  -40.4751 H         1 UNK         0.3472 
    113 H113       16.3278  -35.1985  -41.1289 H         1 UNK         0.3472 
    114 H114       19.1673  -33.3093  -39.0814 H         1 UNK         0.0970 
    115 H115       18.1040  -32.2343  -39.9498 H         1 UNK         0.0970 
    116 H116       18.5497  -29.7010  -39.8657 H         1 UNK         0.0612 
    117 H117       20.0679  -29.0172  -40.3944 H         1 UNK         0.0612 
@<TRIPOS>BOND
     1    1    2 1    
     2    1   62 1    
     3    1   63 1    
     4    1   64 1    
     5    2    3 2    
     6    2    4 am   BACKBONE|DICT|INTERRES
     7    4    5 1    
     8    4   65 1    
     9    5    6 1    
    10    5   25 1    
    11    5   66 1    
    12    6    7 1    
    13    6   67 1    
    14    6   68 1    
    15    7    8 1    
    16    8    9 1    
    17    8   69 1    
    18    8   70 1    
    19    9   10 ar   
    20    9   14 ar   
    21   10   11 ar   
    22   10   71 1    
    23   11   12 ar   
    24   11   61 1    
    25   12   13 ar   
    26   12   72 1    
    27   13   14 ar   
    28   13   15 1    
    29   14   73 1    
    30   15   16 1    
    31   15   74 1    
    32   15   75 1    
    33   16   17 1    
    34   17   18 1    
    35   17   76 1    
    36   17   77 1    
    37   18   19 1    
    38   18   27 1    
    39   18   78 1    
    40   19   20 am   BACKBONE|DICT|INTERRES
    41   19   79 1    
    42   20   21 2    
    43   20   22 1    
    44   22   23 1    
    45   22   24 1    
    46   22   80 1    
    47   23   81 1    
    48   23   82 1    
    49   23   83 1    
    50   24   25 am   BACKBONE|DICT|INTERRES
    51   24   84 1    
    52   25   26 2    
    53   27   28 2    
    54   27   29 am   BACKBONE|DICT|INTERRES
    55   29   30 1    
    56   29   85 1    
    57   30   31 1    
    58   30   32 1    
    59   30   86 1    
    60   31   87 1    
    61   31   88 1    
    62   31   89 1    
    63   32   33 2    
    64   32   34 am   BACKBONE|DICT|INTERRES
    65   34   35 1    
    66   34   90 1    
    67   35   36 1    
    68   35   37 1    
    69   35   91 1    
    70   36   92 1    
    71   36   93 1    
    72   36   94 1    
    73   37   38 2    
    74   37   39 am   BACKBONE|DICT|INTERRES
    75   39   40 1    
    76   39   95 1    
    77   40   41 1    
    78   40   42 1    
    79   40   96 1    
    80   41   97 1    
    81   41   98 1    
    82   41   99 1    
    83   42   43 2    
    84   42   44 am   BACKBONE|DICT|INTERRES
    85   44   45 1    
    86   44  100 1    
    87   45   46 1    
    88   45   47 1    
    89   45  101 1    
    90   46  102 1    
    91   46  103 1    
    92   46  104 1    
    93   47   48 2    
    94   47   49 am   BACKBONE|DICT|INTERRES
    95   49   50 1    
    96   49  105 1    
    97   50   51 1    
    98   50   52 1    
    99   50  106 1    
   100   51  107 1    
   101   51  108 1    
   102   51  109 1    
   103   52   53 2    
   104   52   54 am   BACKBONE|DICT|INTERRES
   105   54   55 1    
   106   54  110 1    
   107   55   56 1    
   108   55   59 1    
   109   55  111 1    
   110   56   57 am   BACKBONE|DICT|INTERRES
   111   56   58 2    
   112   57  112 1    
   113   57  113 1    
   114   59   60 1    
   115   59  114 1    
   116   59  115 1    
   117   60   61 1    
   118   61  116 1    
   119   61  117 1    
@<TRIPOS>SUBSTRUCTURE
     1 UNK         1 GROUP             0       ****    0 ROOT    
