@<TRIPOS>MOLECULE
3R8
117   119    1
SMALL
USER_CHARGES


@<TRIPOS>ATOM
      1 CA         17.6705  -26.4614  -41.6048 C.3       0 UNK        -0.2013 
      2 C          17.8876  -26.5170  -43.1087 C.2       0 UNK         0.4866 
      3 O          19.0334  -26.4424  -43.5560 O.2       0 UNK        -0.5176 
      4 N          16.7989  -26.6404  -43.8871 N.am      1 UNK        -0.4884 
      5 CA         16.7800  -26.7265  -45.3568 C.3       1 UNK         0.0853 
      6 C6         17.3456  -28.0823  -45.8743 C.3       10 UNK        -0.0849 
      7 S7         16.2947  -29.5424  -45.5425 S.3       10 UNK        -0.2776 
      8 C8         16.6052  -30.0049  -43.7966 C.3       10 UNK         0.0316 
      9 C9         18.0633  -30.1666  -43.3620 C.ar      10 UNK        -0.0863 
     10 C10        18.3562  -30.0782  -41.9972 C.ar      10 UNK        -0.1009 
     11 C11        19.6735  -30.1545  -41.5384 C.ar      10 UNK        -0.0712 
     12 C12        20.7126  -30.2998  -42.4612 C.ar      10 UNK        -0.0894 
     13 C13        20.4360  -30.4170  -43.8254 C.ar      10 UNK        -0.0745 
     14 C14        19.1101  -30.3897  -44.2654 C.ar      10 UNK        -0.0972 
     15 C15        21.5728  -30.5396  -44.8280 C.3       10 UNK         0.0209 
     16 S16        21.8089  -29.0058  -45.7880 S.3       10 UNK        -0.2568 
     17 C17        22.1493  -27.7755  -44.4806 C.3       10 UNK        -0.0983 
     18 CA         22.1957  -26.3248  -45.0234 C.3       3 UNK         0.0876 
     19 N          20.9654  -25.9525  -45.7277 N.am      3 UNK        -0.4424 
     20 C          20.8610  -24.9722  -46.6379 C.2       2 UNK         0.4918 
     21 O          21.8142  -24.2821  -47.0007 O.2       2 UNK        -0.4875 
     22 CA         19.4738  -24.7224  -47.2670 C.3       2 UNK         0.0481 
     23 CB         19.5497  -24.7702  -48.8032 C.3       2 UNK        -0.1831 
     24 N          18.4987  -25.7154  -46.8123 N.am      2 UNK        -0.4498 
     25 C          17.4844  -25.4869  -45.9672 C.2       1 UNK         0.5027 
     26 O          17.1215  -24.3595  -45.6234 O.2       1 UNK        -0.4969 
     27 C          22.4839  -25.3285  -43.8843 C.2       3 UNK         0.5005 
     28 O          23.6462  -24.9914  -43.6538 O.2       3 UNK        -0.5279 
     29 N          21.4187  -24.8730  -43.2041 N.am      4 UNK        -0.4463 
     30 CA         21.3436  -23.8488  -42.1505 C.3       4 UNK         0.0283 
     31 CB         21.8428  -22.4840  -42.6623 C.3       4 UNK        -0.1875 
     32 C          22.0191  -24.2184  -40.8163 C.2       4 UNK         0.4949 
     33 O          21.4695  -23.8954  -39.7627 O.2       4 UNK        -0.5039 
     34 N          23.1815  -24.8762  -40.8766 N.am      5 UNK        -0.4663 
     35 CA         23.9131  -25.4340  -39.7407 C.3       5 UNK         0.0242 
     36 CB         25.4242  -25.3735  -40.0483 C.3       5 UNK        -0.1982 
     37 C          23.3833  -26.8484  -39.4339 C.2       5 UNK         0.5017 
     38 O          22.2016  -26.9938  -39.1171 O.2       5 UNK        -0.5012 
     39 N          24.2436  -27.8671  -39.5360 N.am      6 UNK        -0.4439 
     40 CA         23.8951  -29.2753  -39.3922 C.3       6 UNK         0.0297 
     41 CB         23.9558  -29.6962  -37.9134 C.3       6 UNK        -0.2006 
     42 C          24.8502  -30.1071  -40.2494 C.2       6 UNK         0.4892 
     43 O          26.0186  -29.7376  -40.3897 O.2       6 UNK        -0.5089 
     44 N          24.3311  -31.2135  -40.7880 N.am      7 UNK        -0.4243 
     45 CA         25.0315  -32.1782  -41.6308 C.3       7 UNK         0.0196 
     46 CB         25.4417  -31.5543  -42.9825 C.3       7 UNK        -0.2007 
     47 C          24.0879  -33.3716  -41.8006 C.2       7 UNK         0.5020 
     48 O          23.3396  -33.4272  -42.7777 O.2       7 UNK        -0.5147 
     49 N          24.0741  -34.2537  -40.7916 N.am      8 UNK        -0.4734 
     50 CA         23.2166  -35.4393  -40.6107 C.3       8 UNK         0.0238 
     51 CB         23.3790  -36.4488  -41.7649 C.3       8 UNK        -0.1912 
     52 C          21.7319  -35.1178  -40.3541 C.2       8 UNK         0.5038 
     53 O          21.1486  -35.6900  -39.4327 O.2       8 UNK        -0.5046 
     54 N          21.1640  -34.2026  -41.1479 N.am      9 UNK        -0.4200 
     55 CA         19.7989  -33.6594  -41.0406 C.3       9 UNK         0.0839 
     56 C          18.6616  -34.6836  -41.3354 C.2       9 UNK         0.5513 
     57 N          18.9365  -35.7976  -42.0038 N.am      9 UNK        -0.7519 
     58 O          17.5071  -34.4585  -40.9809 O.2       9 UNK        -0.4960 
     59 C59        19.5634  -32.8564  -39.7257 C.3       10 UNK        -0.0876 
     60 S60        20.8214  -31.5618  -39.4323 S.3       10 UNK        -0.2414 
     61 C61        19.9708  -30.0711  -40.0479 C.3       10 UNK         0.0169 
     62 H62        17.9208  -25.4705  -41.2273 H         1 UNK         0.0903 
     63 H63        16.6390  -26.6833  -41.3324 H         1 UNK         0.0903 
     64 H64        18.3159  -27.1861  -41.1088 H         1 UNK         0.0903 
     65 H65        15.8871  -26.6470  -43.4519 H         1 UNK         0.3096 
     66 H66        15.7365  -26.6541  -45.6679 H         1 UNK         0.1121 
     67 H67        17.4304  -28.0656  -46.9622 H         1 UNK         0.0849 
     68 H68        18.3563  -28.2400  -45.5016 H         1 UNK         0.0849 
     69 H69        16.1202  -29.2605  -43.1642 H         1 UNK         0.0865 
     70 H70        16.0884  -30.9451  -43.6004 H         1 UNK         0.0865 
     71 H71        17.5526  -29.9370  -41.2873 H         1 UNK         0.1346 
     72 H72        21.7360  -30.3284  -42.1155 H         1 UNK         0.1412 
     73 H73        18.9084  -30.4899  -45.3223 H         1 UNK         0.1426 
     74 H74        21.3620  -31.3601  -45.5152 H         1 UNK         0.0716 
     75 H75        22.5042  -30.7966  -44.3249 H         1 UNK         0.0716 
     76 H76        21.3809  -27.8587  -43.7105 H         1 UNK         0.0695 
     77 H77        23.0956  -28.0383  -44.0036 H         1 UNK         0.0695 
     78 H78        23.0262  -26.2580  -45.7299 H         1 UNK         0.0983 
     79 H79        20.1251  -26.4110  -45.3993 H         1 UNK         0.3095 
     80 H80        19.1650  -23.7182  -46.9708 H         1 UNK         0.0454 
     81 H81        20.2332  -24.0116  -49.1869 H         1 UNK         0.0851 
     82 H82        19.9026  -25.7381  -49.1612 H         1 UNK         0.0851 
     83 H83        18.5753  -24.5808  -49.2535 H         1 UNK         0.0851 
     84 H84        18.7069  -26.6724  -47.0600 H         1 UNK         0.2976 
     85 H85        20.5272  -25.3163  -43.4222 H         1 UNK         0.3116 
     86 H86        20.2788  -23.7438  -41.9350 H         1 UNK         0.0646 
     87 H87        21.6875  -21.7074  -41.9123 H         1 UNK         0.0847 
     88 H88        21.3082  -22.1778  -43.5614 H         1 UNK         0.0847 
     89 H89        22.9081  -22.4997  -42.8942 H         1 UNK         0.0847 
     90 H90        23.5498  -25.0667  -41.8058 H         1 UNK         0.3040 
     91 H91        23.7259  -24.8257  -38.8530 H         1 UNK         0.1015 
     92 H92        25.7450  -24.3443  -40.2121 H         1 UNK         0.0786 
     93 H93        25.6860  -25.9419  -40.9420 H         1 UNK         0.0786 
     94 H94        26.0154  -25.7583  -39.2161 H         1 UNK         0.0786 
     95 H95        25.1960  -27.6977  -39.8356 H         1 UNK         0.3172 
     96 H96        22.8847  -29.4282  -39.7712 H         1 UNK         0.0595 
     97 H97        24.9513  -29.5481  -37.4932 H         1 UNK         0.0839 
     98 H98        23.7029  -30.7508  -37.7964 H         1 UNK         0.0839 
     99 H99        23.2482  -29.1272  -37.3102 H         1 UNK         0.0839 
    100 H100       23.3684  -31.4475  -40.5812 H         1 UNK         0.2998 
    101 H101       25.9325  -32.5178  -41.1155 H         1 UNK         0.0822 
    102 H102       26.2201  -30.8019  -42.8570 H         1 UNK         0.0787 
    103 H103       25.8376  -32.3133  -43.6585 H         1 UNK         0.0787 
    104 H104       24.5994  -31.0782  -43.4818 H         1 UNK         0.0787 
    105 H105       24.6976  -34.0708  -40.0161 H         1 UNK         0.3055 
    106 H106       23.5815  -35.9274  -39.7049 H         1 UNK         0.1106 
    107 H107       23.0160  -36.0534  -42.7139 H         1 UNK         0.0828 
    108 H108       24.4227  -36.7332  -41.8983 H         1 UNK         0.0828 
    109 H109       22.8187  -37.3626  -41.5619 H         1 UNK         0.0828 
    110 H110       21.7429  -33.8143  -41.8877 H         1 UNK         0.2931 
    111 H111       19.7238  -32.9498  -41.8638 H         1 UNK         0.0412 
    112 H112       18.1960  -36.4528  -42.2001 H         1 UNK         0.3472 
    113 H113       19.8769  -35.9890  -42.3101 H         1 UNK         0.3472 
    114 H114       19.5629  -33.5300  -38.8675 H         1 UNK         0.0970 
    115 H115       18.5776  -32.3883  -39.7350 H         1 UNK         0.0970 
    116 H116       20.5899  -29.1943  -39.8583 H         1 UNK         0.0612 
    117 H117       19.0552  -29.9251  -39.4728 H         1 UNK         0.0612 
@<TRIPOS>BOND
     1    1    2 1    
     2    1   62 1    
     3    1   63 1    
     4    1   64 1    
     5    2    3 2    
     6    2    4 am   BACKBONE|DICT|INTERRES
     7    4    5 1    
     8    4   65 1    
     9    5    6 1    
    10    5   25 1    
    11    5   66 1    
    12    6    7 1    
    13    6   67 1    
    14    6   68 1    
    15    7    8 1    
    16    8    9 1    
    17    8   69 1    
    18    8   70 1    
    19    9   10 ar   
    20    9   14 ar   
    21   10   11 ar   
    22   10   71 1    
    23   11   12 ar   
    24   11   61 1    
    25   12   13 ar   
    26   12   72 1    
    27   13   14 ar   
    28   13   15 1    
    29   14   73 1    
    30   15   16 1    
    31   15   74 1    
    32   15   75 1    
    33   16   17 1    
    34   17   18 1    
    35   17   76 1    
    36   17   77 1    
    37   18   19 1    
    38   18   27 1    
    39   18   78 1    
    40   19   20 am   BACKBONE|DICT|INTERRES
    41   19   79 1    
    42   20   21 2    
    43   20   22 1    
    44   22   23 1    
    45   22   24 1    
    46   22   80 1    
    47   23   81 1    
    48   23   82 1    
    49   23   83 1    
    50   24   25 am   BACKBONE|DICT|INTERRES
    51   24   84 1    
    52   25   26 2    
    53   27   28 2    
    54   27   29 am   BACKBONE|DICT|INTERRES
    55   29   30 1    
    56   29   85 1    
    57   30   31 1    
    58   30   32 1    
    59   30   86 1    
    60   31   87 1    
    61   31   88 1    
    62   31   89 1    
    63   32   33 2    
    64   32   34 am   BACKBONE|DICT|INTERRES
    65   34   35 1    
    66   34   90 1    
    67   35   36 1    
    68   35   37 1    
    69   35   91 1    
    70   36   92 1    
    71   36   93 1    
    72   36   94 1    
    73   37   38 2    
    74   37   39 am   BACKBONE|DICT|INTERRES
    75   39   40 1    
    76   39   95 1    
    77   40   41 1    
    78   40   42 1    
    79   40   96 1    
    80   41   97 1    
    81   41   98 1    
    82   41   99 1    
    83   42   43 2    
    84   42   44 am   BACKBONE|DICT|INTERRES
    85   44   45 1    
    86   44  100 1    
    87   45   46 1    
    88   45   47 1    
    89   45  101 1    
    90   46  102 1    
    91   46  103 1    
    92   46  104 1    
    93   47   48 2    
    94   47   49 am   BACKBONE|DICT|INTERRES
    95   49   50 1    
    96   49  105 1    
    97   50   51 1    
    98   50   52 1    
    99   50  106 1    
   100   51  107 1    
   101   51  108 1    
   102   51  109 1    
   103   52   53 2    
   104   52   54 am   BACKBONE|DICT|INTERRES
   105   54   55 1    
   106   54  110 1    
   107   55   56 1    
   108   55   59 1    
   109   55  111 1    
   110   56   57 am   BACKBONE|DICT|INTERRES
   111   56   58 2    
   112   57  112 1    
   113   57  113 1    
   114   59   60 1    
   115   59  114 1    
   116   59  115 1    
   117   60   61 1    
   118   61  116 1    
   119   61  117 1    
@<TRIPOS>SUBSTRUCTURE
     1 UNK         1 GROUP             0       ****    0 ROOT    
