@<TRIPOS>MOLECULE
3R8
117   119    1
SMALL
USER_CHARGES


@<TRIPOS>ATOM
      1 CA         15.3467  -23.3227  -42.4580 C.3       0 UNK        -0.2013 
      2 C          16.3953  -23.6604  -43.5074 C.2       0 UNK         0.4866 
      3 O          17.0469  -22.7580  -44.0348 O.2       0 UNK        -0.5176 
      4 N          16.5565  -24.9516  -43.8210 N.am      1 UNK        -0.4884 
      5 CA         17.5570  -25.4641  -44.7623 C.3       1 UNK         0.0853 
      6 C6         17.2807  -26.9364  -45.1401 C.3       10 UNK        -0.0849 
      7 S7         15.7920  -27.1360  -46.1771 S.3       10 UNK        -0.2776 
      8 C8         15.0512  -28.6791  -45.5296 C.3       10 UNK         0.0316 
      9 C9         16.0672  -29.7783  -45.2228 C.ar      10 UNK        -0.0863 
     10 C10        15.9962  -30.4626  -44.0053 C.ar      10 UNK        -0.1009 
     11 C11        16.9425  -31.4375  -43.6748 C.ar      10 UNK        -0.0712 
     12 C12        17.9686  -31.7283  -44.5790 C.ar      10 UNK        -0.0894 
     13 C13        18.0729  -31.0260  -45.7848 C.ar      10 UNK        -0.0745 
     14 C14        17.0975  -30.0835  -46.1191 C.ar      10 UNK        -0.0972 
     15 C15        19.2870  -31.2177  -46.6847 C.3       10 UNK         0.0209 
     16 S16        20.4890  -29.8504  -46.4931 S.3       10 UNK        -0.2568 
     17 C17        20.7979  -29.9158  -44.6972 C.3       10 UNK        -0.0983 
     18 CA         21.7520  -28.8343  -44.1371 C.3       3 UNK         0.0876 
     19 N          21.3931  -27.4808  -44.5811 N.am      3 UNK        -0.4424 
     20 C          21.9786  -26.3360  -44.1953 C.2       2 UNK         0.4918 
     21 O          22.9205  -26.2797  -43.4052 O.2       2 UNK        -0.4875 
     22 CA         21.3883  -25.0243  -44.7417 C.3       2 UNK         0.0481 
     23 CB         22.1745  -24.5644  -45.9787 C.3       2 UNK        -0.1831 
     24 N          19.9601  -25.1050  -45.0687 N.am      2 UNK        -0.4498 
     25 C          18.9809  -25.3481  -44.1842 C.2       1 UNK         0.5027 
     26 O          19.1756  -25.5511  -42.9825 O.2       1 UNK        -0.4969 
     27 C          21.7713  -28.9757  -42.6016 C.2       3 UNK         0.5005 
     28 O          22.6389  -29.6658  -42.0636 O.2       3 UNK        -0.5279 
     29 N          20.8139  -28.3203  -41.9281 N.am      4 UNK        -0.4463 
     30 CA         20.6508  -28.3327  -40.4744 C.3       4 UNK         0.0283 
     31 CB         19.2993  -27.6994  -40.1105 C.3       4 UNK        -0.1875 
     32 C          21.7979  -27.6305  -39.7277 C.2       4 UNK         0.4949 
     33 O          22.0897  -28.0048  -38.5928 O.2       4 UNK        -0.5039 
     34 N          22.4341  -26.6462  -40.3750 N.am      5 UNK        -0.4663 
     35 CA         23.6140  -25.9532  -39.8603 C.3       5 UNK         0.0242 
     36 CB         23.5874  -24.4880  -40.3269 C.3       5 UNK        -0.1982 
     37 C          24.9079  -26.6431  -40.3159 C.2       5 UNK         0.5017 
     38 O          25.8257  -26.7966  -39.5099 O.2       5 UNK        -0.5012 
     39 N          24.9641  -27.0249  -41.5997 N.am      6 UNK        -0.4439 
     40 CA         26.1493  -27.5763  -42.2556 C.3       6 UNK         0.0297 
     41 CB         25.9543  -27.5357  -43.7803 C.3       6 UNK        -0.2006 
     42 C          26.5145  -28.9977  -41.8010 C.2       6 UNK         0.4892 
     43 O          27.6986  -29.2678  -41.5942 O.2       6 UNK        -0.5089 
     44 N          25.5127  -29.8799  -41.6884 N.am      7 UNK        -0.4243 
     45 CA         25.7065  -31.3125  -41.4378 C.3       7 UNK         0.0196 
     46 CB         25.4069  -32.0751  -42.7412 C.3       7 UNK        -0.2007 
     47 C          24.8398  -31.8606  -40.2937 C.2       7 UNK         0.5020 
     48 O          25.0797  -32.9907  -39.8688 O.2       7 UNK        -0.5147 
     49 N          23.8476  -31.0820  -39.8353 N.am      8 UNK        -0.4734 
     50 CA         22.7329  -31.4954  -38.9705 C.3       8 UNK         0.0238 
     51 CB         23.2185  -31.9813  -37.5871 C.3       8 UNK        -0.1912 
     52 C          21.8121  -32.4986  -39.6944 C.2       8 UNK         0.5038 
     53 O          21.4166  -33.5083  -39.1082 O.2       8 UNK        -0.5046 
     54 N          21.5086  -32.1907  -40.9648 N.am      9 UNK        -0.4200 
     55 CA         20.7702  -33.0292  -41.9249 C.3       9 UNK         0.0839 
     56 C          21.5656  -34.3005  -42.3571 C.2       9 UNK         0.5513 
     57 N          20.9454  -35.2281  -43.0755 N.am      9 UNK        -0.7519 
     58 O          22.7589  -34.4400  -42.1008 O.2       9 UNK        -0.4960 
     59 C59        19.3042  -33.3269  -41.4877 C.3       10 UNK        -0.0876 
     60 S60        18.2971  -31.8175  -41.2630 S.3       10 UNK        -0.2414 
     61 C61        16.8554  -32.1554  -42.3332 C.3       10 UNK         0.0169 
     62 H62        14.8377  -24.2127  -42.0882 H         1 UNK         0.0903 
     63 H63        15.8132  -22.8221  -41.6100 H         1 UNK         0.0903 
     64 H64        14.5965  -22.6536  -42.8787 H         1 UNK         0.0903 
     65 H65        16.0020  -25.6514  -43.3495 H         1 UNK         0.3096 
     66 H66        17.5083  -24.8538  -45.6673 H         1 UNK         0.1121 
     67 H67        17.1948  -27.5418  -44.2354 H         1 UNK         0.0849 
     68 H68        18.1130  -27.3589  -45.7072 H         1 UNK         0.0849 
     69 H69        14.4808  -28.4277  -44.6340 H         1 UNK         0.0865 
     70 H70        14.3297  -29.0568  -46.2552 H         1 UNK         0.0865 
     71 H71        15.2078  -30.2256  -43.3037 H         1 UNK         0.1346 
     72 H72        18.7188  -32.4607  -44.3181 H         1 UNK         0.1412 
     73 H73        17.1798  -29.5396  -47.0503 H         1 UNK         0.1426 
     74 H74        19.7828  -32.1647  -46.4658 H         1 UNK         0.0716 
     75 H75        18.9684  -31.2706  -47.7267 H         1 UNK         0.0716 
     76 H76        19.8336  -29.8328  -44.1940 H         1 UNK         0.0695 
     77 H77        21.1859  -30.9098  -44.4708 H         1 UNK         0.0695 
     78 H78        22.7611  -29.0369  -44.5010 H         1 UNK         0.0983 
     79 H79        20.6477  -27.4306  -45.2591 H         1 UNK         0.3095 
     80 H80        21.5058  -24.2673  -43.9635 H         1 UNK         0.0454 
     81 H81        22.0776  -25.2682  -46.8063 H         1 UNK         0.0851 
     82 H82        21.8360  -23.5878  -46.3250 H         1 UNK         0.0851 
     83 H83        23.2381  -24.4732  -45.7526 H         1 UNK         0.0851 
     84 H84        19.7153  -24.9595  -46.0383 H         1 UNK         0.2976 
     85 H85        20.1625  -27.7477  -42.4489 H         1 UNK         0.3116 
     86 H86        20.6287  -29.3750  -40.1526 H         1 UNK         0.0646 
     87 H87        19.2441  -26.6557  -40.4228 H         1 UNK         0.0847 
     88 H88        18.4721  -28.2347  -40.5774 H         1 UNK         0.0847 
     89 H89        19.1337  -27.7264  -39.0327 H         1 UNK         0.0847 
     90 H90        22.1492  -26.4237  -41.3200 H         1 UNK         0.3040 
     91 H91        23.5992  -25.9582  -38.7677 H         1 UNK         0.1015 
     92 H92        23.5952  -24.4050  -41.4145 H         1 UNK         0.0786 
     93 H93        24.4554  -23.9439  -39.9518 H         1 UNK         0.0786 
     94 H94        22.6996  -23.9731  -39.9594 H         1 UNK         0.0786 
     95 H95        24.1710  -26.8154  -42.2027 H         1 UNK         0.3172 
     96 H96        26.9929  -26.9267  -42.0117 H         1 UNK         0.0595 
     97 H97        26.8370  -27.9141  -44.2979 H         1 UNK         0.0839 
     98 H98        25.7852  -26.5176  -44.1317 H         1 UNK         0.0839 
     99 H99        25.1054  -28.1426  -44.0966 H         1 UNK         0.0839 
    100 H100       24.5627  -29.5818  -41.8904 H         1 UNK         0.2998 
    101 H101       26.7415  -31.5152  -41.1547 H         1 UNK         0.0822 
    102 H102       25.5454  -33.1493  -42.6099 H         1 UNK         0.0787 
    103 H103       24.3781  -31.9189  -43.0690 H         1 UNK         0.0787 
    104 H104       26.0689  -31.7591  -43.5475 H         1 UNK         0.0787 
    105 H105       23.7253  -30.1838  -40.2845 H         1 UNK         0.3055 
    106 H106       22.1272  -30.6076  -38.7957 H         1 UNK         0.1106 
    107 H107       23.8798  -31.2514  -37.1204 H         1 UNK         0.0828 
    108 H108       22.3743  -32.1308  -36.9131 H         1 UNK         0.0828 
    109 H109       23.7513  -32.9303  -37.6466 H         1 UNK         0.0828 
    110 H110       21.9273  -31.3539  -41.3562 H         1 UNK         0.2931 
    111 H111       20.7180  -32.4256  -42.8292 H         1 UNK         0.0412 
    112 H112       21.4679  -36.0386  -43.3704 H         1 UNK         0.3472 
    113 H113       19.9764  -35.1410  -43.3353 H         1 UNK         0.3472 
    114 H114       18.8109  -33.9622  -42.2221 H         1 UNK         0.0970 
    115 H115       19.2857  -33.8960  -40.5576 H         1 UNK         0.0970 
    116 H116       16.7263  -33.2255  -42.4968 H         1 UNK         0.0612 
    117 H117       15.9641  -31.8332  -41.7929 H         1 UNK         0.0612 
@<TRIPOS>BOND
     1    1    2 1    
     2    1   62 1    
     3    1   63 1    
     4    1   64 1    
     5    2    3 2    
     6    2    4 am   BACKBONE|DICT|INTERRES
     7    4    5 1    
     8    4   65 1    
     9    5    6 1    
    10    5   25 1    
    11    5   66 1    
    12    6    7 1    
    13    6   67 1    
    14    6   68 1    
    15    7    8 1    
    16    8    9 1    
    17    8   69 1    
    18    8   70 1    
    19    9   10 ar   
    20    9   14 ar   
    21   10   11 ar   
    22   10   71 1    
    23   11   12 ar   
    24   11   61 1    
    25   12   13 ar   
    26   12   72 1    
    27   13   14 ar   
    28   13   15 1    
    29   14   73 1    
    30   15   16 1    
    31   15   74 1    
    32   15   75 1    
    33   16   17 1    
    34   17   18 1    
    35   17   76 1    
    36   17   77 1    
    37   18   19 1    
    38   18   27 1    
    39   18   78 1    
    40   19   20 am   BACKBONE|DICT|INTERRES
    41   19   79 1    
    42   20   21 2    
    43   20   22 1    
    44   22   23 1    
    45   22   24 1    
    46   22   80 1    
    47   23   81 1    
    48   23   82 1    
    49   23   83 1    
    50   24   25 am   BACKBONE|DICT|INTERRES
    51   24   84 1    
    52   25   26 2    
    53   27   28 2    
    54   27   29 am   BACKBONE|DICT|INTERRES
    55   29   30 1    
    56   29   85 1    
    57   30   31 1    
    58   30   32 1    
    59   30   86 1    
    60   31   87 1    
    61   31   88 1    
    62   31   89 1    
    63   32   33 2    
    64   32   34 am   BACKBONE|DICT|INTERRES
    65   34   35 1    
    66   34   90 1    
    67   35   36 1    
    68   35   37 1    
    69   35   91 1    
    70   36   92 1    
    71   36   93 1    
    72   36   94 1    
    73   37   38 2    
    74   37   39 am   BACKBONE|DICT|INTERRES
    75   39   40 1    
    76   39   95 1    
    77   40   41 1    
    78   40   42 1    
    79   40   96 1    
    80   41   97 1    
    81   41   98 1    
    82   41   99 1    
    83   42   43 2    
    84   42   44 am   BACKBONE|DICT|INTERRES
    85   44   45 1    
    86   44  100 1    
    87   45   46 1    
    88   45   47 1    
    89   45  101 1    
    90   46  102 1    
    91   46  103 1    
    92   46  104 1    
    93   47   48 2    
    94   47   49 am   BACKBONE|DICT|INTERRES
    95   49   50 1    
    96   49  105 1    
    97   50   51 1    
    98   50   52 1    
    99   50  106 1    
   100   51  107 1    
   101   51  108 1    
   102   51  109 1    
   103   52   53 2    
   104   52   54 am   BACKBONE|DICT|INTERRES
   105   54   55 1    
   106   54  110 1    
   107   55   56 1    
   108   55   59 1    
   109   55  111 1    
   110   56   57 am   BACKBONE|DICT|INTERRES
   111   56   58 2    
   112   57  112 1    
   113   57  113 1    
   114   59   60 1    
   115   59  114 1    
   116   59  115 1    
   117   60   61 1    
   118   61  116 1    
   119   61  117 1    
@<TRIPOS>SUBSTRUCTURE
     1 UNK         1 GROUP             0       ****    0 ROOT    
