@<TRIPOS>MOLECULE
3R8
117   119    1
SMALL
USER_CHARGES


@<TRIPOS>ATOM
      1 CA         14.6450  -22.3045  -44.4394 C.3       0 UNK        -0.2013 
      2 C          15.4776  -23.5750  -44.5168 C.2       0 UNK         0.4866 
      3 O          16.3056  -23.8180  -43.6388 O.2       0 UNK        -0.5176 
      4 N          15.2799  -24.3793  -45.5709 N.am      1 UNK        -0.4884 
      5 CA         15.9276  -25.6706  -45.8637 C.3       1 UNK         0.0853 
      6 C6         15.7437  -26.7170  -44.7306 C.3       10 UNK        -0.0849 
      7 S7         15.5669  -28.4180  -45.3674 S.3       10 UNK        -0.2776 
      8 C8         15.0695  -29.3169  -43.8626 C.3       10 UNK         0.0316 
      9 C9         16.2741  -29.7814  -43.0554 C.ar      10 UNK        -0.0863 
     10 C10        16.7002  -31.1105  -43.1238 C.ar      10 UNK        -0.1009 
     11 C11        17.7850  -31.5593  -42.3628 C.ar      10 UNK        -0.0712 
     12 C12        18.4690  -30.6440  -41.5480 C.ar      10 UNK        -0.0894 
     13 C13        18.0605  -29.3081  -41.4805 C.ar      10 UNK        -0.0745 
     14 C14        16.9475  -28.8926  -42.2162 C.ar      10 UNK        -0.0972 
     15 C15        18.7765  -28.3212  -40.5686 C.3       10 UNK         0.0209 
     16 S16        19.2951  -26.8086  -41.4457 S.3       10 UNK        -0.2568 
     17 C17        20.9902  -27.1937  -42.0130 C.3       10 UNK        -0.0983 
     18 CA         21.2218  -27.0713  -43.5486 C.3       3 UNK         0.0876 
     19 N          20.4771  -25.9554  -44.1450 N.am      3 UNK        -0.4424 
     20 C          20.4487  -25.6201  -45.4424 C.2       2 UNK         0.4918 
     21 O          21.0271  -26.2445  -46.3338 O.2       2 UNK        -0.4875 
     22 CA         19.5956  -24.3866  -45.7867 C.3       2 UNK         0.0481 
     23 CB         19.9003  -23.8109  -47.1862 C.3       2 UNK        -0.1831 
     24 N          18.1651  -24.6645  -45.6249 N.am      2 UNK        -0.4498 
     25 C          17.4090  -25.5504  -46.2915 C.2       1 UNK         0.5027 
     26 O          17.8191  -26.2439  -47.2229 O.2       1 UNK        -0.4969 
     27 C          22.7307  -26.9159  -43.8471 C.2       3 UNK         0.5005 
     28 O          23.3220  -25.9165  -43.4299 O.2       3 UNK        -0.5279 
     29 N          23.3255  -27.8716  -44.5715 N.am      4 UNK        -0.4463 
     30 CA         24.7190  -27.8020  -45.0248 C.3       4 UNK         0.0283 
     31 CB         24.9116  -28.7321  -46.2330 C.3       4 UNK        -0.1875 
     32 C          25.7368  -28.1288  -43.9198 C.2       4 UNK         0.4949 
     33 O          26.8728  -27.6597  -43.9927 O.2       4 UNK        -0.5039 
     34 N          25.3191  -28.9192  -42.9241 N.am      5 UNK        -0.4663 
     35 CA         26.1421  -29.3530  -41.7942 C.3       5 UNK         0.0242 
     36 CB         26.8264  -30.6905  -42.1358 C.3       5 UNK        -0.1982 
     37 C          25.3125  -29.4080  -40.5018 C.2       5 UNK         0.5017 
     38 O          25.5229  -30.2983  -39.6761 O.2       5 UNK        -0.5012 
     39 N          24.3750  -28.4579  -40.3519 N.am      6 UNK        -0.4439 
     40 CA         23.4638  -28.2924  -39.2116 C.3       6 UNK         0.0297 
     41 CB         24.2345  -27.7436  -37.9889 C.3       6 UNK        -0.2006 
     42 C          22.6652  -29.5807  -38.9294 C.2       6 UNK         0.4892 
     43 O          21.9123  -30.0162  -39.8001 O.2       6 UNK        -0.5089 
     44 N          22.8704  -30.1923  -37.7548 N.am      7 UNK        -0.4243 
     45 CA         22.2440  -31.4477  -37.3277 C.3       7 UNK         0.0196 
     46 CB         22.6239  -31.7232  -35.8637 C.3       7 UNK        -0.2007 
     47 C          22.5807  -32.6671  -38.2089 C.2       7 UNK         0.5020 
     48 O          21.8143  -33.6302  -38.2047 O.2       7 UNK        -0.5147 
     49 N          23.6938  -32.6117  -38.9553 N.am      8 UNK        -0.4734 
     50 CA         24.0751  -33.6245  -39.9451 C.3       8 UNK         0.0238 
     51 CB         25.6086  -33.7392  -39.9894 C.3       8 UNK        -0.1912 
     52 C          23.4817  -33.3512  -41.3425 C.2       8 UNK         0.5038 
     53 O          23.7732  -34.1095  -42.2681 O.2       8 UNK        -0.5046 
     54 N          22.6736  -32.2896  -41.4819 N.am      9 UNK        -0.4200 
     55 CA         21.8900  -31.8834  -42.6641 C.3       9 UNK         0.0839 
     56 C          22.7161  -31.3702  -43.8728 C.2       9 UNK         0.5513 
     57 N          23.9303  -31.8500  -44.0954 N.am      9 UNK        -0.7519 
     58 O          22.2548  -30.4946  -44.5996 O.2       9 UNK        -0.4960 
     59 C59        20.8636  -32.9524  -43.1269 C.3       10 UNK        -0.0876 
     60 S60        19.7696  -33.5237  -41.7819 S.3       10 UNK        -0.2414 
     61 C61        18.1255  -33.0505  -42.4137 C.3       10 UNK         0.0169 
     62 H62        13.9567  -22.2146  -45.2795 H         1 UNK         0.0903 
     63 H63        14.0603  -22.2960  -43.5199 H         1 UNK         0.0903 
     64 H64        15.2949  -21.4299  -44.4379 H         1 UNK         0.0903 
     65 H65        14.6082  -24.0885  -46.2691 H         1 UNK         0.3096 
     66 H66        15.3949  -26.0343  -46.7446 H         1 UNK         0.1121 
     67 H67        16.5668  -26.6685  -44.0164 H         1 UNK         0.0849 
     68 H68        14.8407  -26.4925  -44.1608 H         1 UNK         0.0849 
     69 H69        14.4645  -30.1756  -44.1578 H         1 UNK         0.0865 
     70 H70        14.4200  -28.6943  -43.2453 H         1 UNK         0.0865 
     71 H71        16.1670  -31.8084  -43.7554 H         1 UNK         0.1346 
     72 H72        19.3036  -30.9665  -40.9415 H         1 UNK         0.1412 
     73 H73        16.6089  -27.8700  -42.1320 H         1 UNK         0.1426 
     74 H74        19.6338  -28.7794  -40.0762 H         1 UNK         0.0716 
     75 H75        18.0893  -28.0355  -39.7713 H         1 UNK         0.0716 
     76 H76        21.2673  -28.1965  -41.6850 H         1 UNK         0.0695 
     77 H77        21.6410  -26.5101  -41.4643 H         1 UNK         0.0695 
     78 H78        20.8563  -27.9850  -44.0226 H         1 UNK         0.0983 
     79 H79        19.9520  -25.3968  -43.4880 H         1 UNK         0.3095 
     80 H80        19.8438  -23.6134  -45.0579 H         1 UNK         0.0454 
     81 H81        19.3107  -22.9158  -47.3833 H         1 UNK         0.0851 
     82 H82        19.6957  -24.5282  -47.9813 H         1 UNK         0.0851 
     83 H83        20.9513  -23.5319  -47.2683 H         1 UNK         0.0851 
     84 H84        17.7021  -24.1853  -44.8557 H         1 UNK         0.2976 
     85 H85        22.7982  -28.7007  -44.8382 H         1 UNK         0.3116 
     86 H86        24.9202  -26.7817  -45.3591 H         1 UNK         0.0646 
     87 H87        25.9350  -28.6790  -46.6073 H         1 UNK         0.0847 
     88 H88        24.2526  -28.4531  -47.0554 H         1 UNK         0.0847 
     89 H89        24.7106  -29.7728  -45.9821 H         1 UNK         0.0847 
     90 H90        24.3745  -29.2757  -42.9575 H         1 UNK         0.3040 
     91 H91        26.9234  -28.6126  -41.6078 H         1 UNK         0.1015 
     92 H92        27.4367  -30.6048  -43.0348 H         1 UNK         0.0786 
     93 H93        26.0967  -31.4825  -42.3026 H         1 UNK         0.0786 
     94 H94        27.4871  -31.0123  -41.3299 H         1 UNK         0.0786 
     95 H95        24.2843  -27.7745  -41.0907 H         1 UNK         0.3172 
     96 H96        22.7300  -27.5395  -39.5011 H         1 UNK         0.0595 
     97 H97        25.0196  -28.4223  -37.6531 H         1 UNK         0.0839 
     98 H98        23.5652  -27.5600  -37.1471 H         1 UNK         0.0839 
     99 H99        24.7091  -26.7913  -38.2257 H         1 UNK         0.0839 
    100 H100       23.5345  -29.7797  -37.1160 H         1 UNK         0.2998 
    101 H101       21.1623  -31.3062  -37.3805 H         1 UNK         0.0822 
    102 H102       23.7008  -31.8486  -35.7437 H         1 UNK         0.0787 
    103 H103       22.3035  -30.9119  -35.2097 H         1 UNK         0.0787 
    104 H104       22.1474  -32.6353  -35.5013 H         1 UNK         0.0787 
    105 H105       24.2689  -31.7746  -38.9258 H         1 UNK         0.3055 
    106 H106       23.6849  -34.5964  -39.6346 H         1 UNK         0.1106 
    107 H107       25.9274  -34.5047  -40.6979 H         1 UNK         0.0828 
    108 H108       26.0784  -32.8040  -40.2874 H         1 UNK         0.0828 
    109 H109       26.0107  -34.0167  -39.0151 H         1 UNK         0.0828 
    110 H110       22.5216  -31.6995  -40.6710 H         1 UNK         0.2931 
    111 H111       21.3181  -31.0196  -42.3236 H         1 UNK         0.0412 
    112 H112       24.2512  -32.6311  -43.5360 H         1 UNK         0.3472 
    113 H113       24.4650  -31.5360  -44.8876 H         1 UNK         0.3472 
    114 H114       20.2528  -32.5567  -43.9408 H         1 UNK         0.0970 
    115 H115       21.3772  -33.8239  -43.5367 H         1 UNK         0.0970 
    116 H116       18.0270  -33.4198  -43.4358 H         1 UNK         0.0612 
    117 H117       17.3782  -33.5832  -41.8244 H         1 UNK         0.0612 
@<TRIPOS>BOND
     1    1    2 1    
     2    1   62 1    
     3    1   63 1    
     4    1   64 1    
     5    2    3 2    
     6    2    4 am   BACKBONE|DICT|INTERRES
     7    4    5 1    
     8    4   65 1    
     9    5    6 1    
    10    5   25 1    
    11    5   66 1    
    12    6    7 1    
    13    6   67 1    
    14    6   68 1    
    15    7    8 1    
    16    8    9 1    
    17    8   69 1    
    18    8   70 1    
    19    9   10 ar   
    20    9   14 ar   
    21   10   11 ar   
    22   10   71 1    
    23   11   12 ar   
    24   11   61 1    
    25   12   13 ar   
    26   12   72 1    
    27   13   14 ar   
    28   13   15 1    
    29   14   73 1    
    30   15   16 1    
    31   15   74 1    
    32   15   75 1    
    33   16   17 1    
    34   17   18 1    
    35   17   76 1    
    36   17   77 1    
    37   18   19 1    
    38   18   27 1    
    39   18   78 1    
    40   19   20 am   BACKBONE|DICT|INTERRES
    41   19   79 1    
    42   20   21 2    
    43   20   22 1    
    44   22   23 1    
    45   22   24 1    
    46   22   80 1    
    47   23   81 1    
    48   23   82 1    
    49   23   83 1    
    50   24   25 am   BACKBONE|DICT|INTERRES
    51   24   84 1    
    52   25   26 2    
    53   27   28 2    
    54   27   29 am   BACKBONE|DICT|INTERRES
    55   29   30 1    
    56   29   85 1    
    57   30   31 1    
    58   30   32 1    
    59   30   86 1    
    60   31   87 1    
    61   31   88 1    
    62   31   89 1    
    63   32   33 2    
    64   32   34 am   BACKBONE|DICT|INTERRES
    65   34   35 1    
    66   34   90 1    
    67   35   36 1    
    68   35   37 1    
    69   35   91 1    
    70   36   92 1    
    71   36   93 1    
    72   36   94 1    
    73   37   38 2    
    74   37   39 am   BACKBONE|DICT|INTERRES
    75   39   40 1    
    76   39   95 1    
    77   40   41 1    
    78   40   42 1    
    79   40   96 1    
    80   41   97 1    
    81   41   98 1    
    82   41   99 1    
    83   42   43 2    
    84   42   44 am   BACKBONE|DICT|INTERRES
    85   44   45 1    
    86   44  100 1    
    87   45   46 1    
    88   45   47 1    
    89   45  101 1    
    90   46  102 1    
    91   46  103 1    
    92   46  104 1    
    93   47   48 2    
    94   47   49 am   BACKBONE|DICT|INTERRES
    95   49   50 1    
    96   49  105 1    
    97   50   51 1    
    98   50   52 1    
    99   50  106 1    
   100   51  107 1    
   101   51  108 1    
   102   51  109 1    
   103   52   53 2    
   104   52   54 am   BACKBONE|DICT|INTERRES
   105   54   55 1    
   106   54  110 1    
   107   55   56 1    
   108   55   59 1    
   109   55  111 1    
   110   56   57 am   BACKBONE|DICT|INTERRES
   111   56   58 2    
   112   57  112 1    
   113   57  113 1    
   114   59   60 1    
   115   59  114 1    
   116   59  115 1    
   117   60   61 1    
   118   61  116 1    
   119   61  117 1    
@<TRIPOS>SUBSTRUCTURE
     1 UNK         1 GROUP             0       ****    0 ROOT    
