@<TRIPOS>MOLECULE
3R8
117   119    1
SMALL
USER_CHARGES


@<TRIPOS>ATOM
      1 CA         18.3622  -27.3372  -41.5197 C.3       0 UNK        -0.2013 
      2 C          17.3587  -26.6974  -42.4655 C.2       0 UNK         0.4866 
      3 O          16.1941  -26.5325  -42.1000 O.2       0 UNK        -0.5176 
      4 N          17.8108  -26.3368  -43.6704 N.am      1 UNK        -0.4884 
      5 CA         17.0172  -25.6989  -44.7221 C.3       1 UNK         0.0853 
      6 C6         16.5937  -26.6820  -45.8524 C.3       10 UNK        -0.0849 
      7 S7         15.5255  -28.0462  -45.2712 S.3       10 UNK        -0.2776 
      8 C8         16.4708  -29.5290  -45.7552 C.3       10 UNK         0.0316 
      9 C9         17.6773  -29.7730  -44.8579 C.ar      10 UNK        -0.0863 
     10 C10        17.5419  -30.5136  -43.6800 C.ar      10 UNK        -0.1009 
     11 C11        18.6552  -30.7715  -42.8758 C.ar      10 UNK        -0.0712 
     12 C12        19.9030  -30.2672  -43.2487 C.ar      10 UNK        -0.0894 
     13 C13        20.0578  -29.5034  -44.4084 C.ar      10 UNK        -0.0745 
     14 C14        18.9348  -29.2792  -45.2179 C.ar      10 UNK        -0.0972 
     15 C15        21.4461  -28.9329  -44.7169 C.3       10 UNK         0.0209 
     16 S16        21.5650  -27.9526  -46.2545 S.3       10 UNK        -0.2568 
     17 C17        22.7986  -26.6738  -45.8204 C.3       10 UNK        -0.0983 
     18 CA         22.2027  -25.2959  -45.4119 C.3       3 UNK         0.0876 
     19 N          21.0530  -24.9129  -46.2283 N.am      3 UNK        -0.4424 
     20 C          20.6224  -23.6598  -46.4192 C.2       2 UNK         0.4918 
     21 O          21.2588  -22.6549  -46.1008 O.2       2 UNK        -0.4875 
     22 CA         19.2176  -23.5128  -47.0319 C.3       2 UNK         0.0481 
     23 CB         19.2723  -23.6486  -48.5619 C.3       2 UNK        -0.1831 
     24 N          18.2756  -24.4934  -46.4791 N.am      2 UNK        -0.4498 
     25 C          17.8416  -24.4917  -45.2077 C.2       1 UNK         0.5027 
     26 O          18.0910  -23.5842  -44.4110 O.2       1 UNK        -0.4969 
     27 C          21.7890  -25.2574  -43.9284 C.2       3 UNK         0.5005 
     28 O          20.7367  -25.7983  -43.5712 O.2       3 UNK        -0.5279 
     29 N          22.6253  -24.6336  -43.0882 N.am      4 UNK        -0.4463 
     30 CA         22.4185  -24.4770  -41.6463 C.3       4 UNK         0.0283 
     31 CB         23.2467  -23.2783  -41.1479 C.3       4 UNK        -0.1875 
     32 C          22.7515  -25.7760  -40.8920 C.2       4 UNK         0.4949 
     33 O          23.7495  -25.8395  -40.1717 O.2       4 UNK        -0.5039 
     34 N          21.9284  -26.8059  -41.1224 N.am      5 UNK        -0.4663 
     35 CA         21.9894  -28.1813  -40.6067 C.3       5 UNK         0.0242 
     36 CB         21.9161  -28.2246  -39.0687 C.3       5 UNK        -0.1982 
     37 C          23.1792  -28.9999  -41.1326 C.2       5 UNK         0.5017 
     38 O          22.9757  -30.1374  -41.5496 O.2       5 UNK        -0.5012 
     39 N          24.3901  -28.4259  -41.1061 N.am      6 UNK        -0.4439 
     40 CA         25.6530  -28.9806  -41.6193 C.3       6 UNK         0.0297 
     41 CB         25.6313  -28.9858  -43.1629 C.3       6 UNK        -0.2006 
     42 C          26.0251  -30.3620  -41.0328 C.2       6 UNK         0.4892 
     43 O          26.6830  -31.1558  -41.7073 O.2       6 UNK        -0.5089 
     44 N          25.5732  -30.6234  -39.7957 N.am      7 UNK        -0.4243 
     45 CA         25.6521  -31.8898  -39.0544 C.3       7 UNK         0.0196 
     46 CB         27.1190  -32.2650  -38.7512 C.3       7 UNK        -0.2007 
     47 C          24.8625  -33.0559  -39.6930 C.2       7 UNK         0.5020 
     48 O          25.1015  -34.2095  -39.3315 O.2       7 UNK        -0.5147 
     49 N          23.9287  -32.7559  -40.6060 N.am      8 UNK        -0.4734 
     50 CA         23.0183  -33.7247  -41.2185 C.3       8 UNK         0.0238 
     51 CB         22.7291  -33.2854  -42.6656 C.3       8 UNK        -0.1912 
     52 C          21.7149  -33.8423  -40.4087 C.2       8 UNK         0.5038 
     53 O          21.4653  -33.0364  -39.5073 O.2       8 UNK        -0.5046 
     54 N          20.8993  -34.8388  -40.7760 N.am      9 UNK        -0.4200 
     55 CA         19.6045  -35.1853  -40.1633 C.3       9 UNK         0.0839 
     56 C          19.7478  -35.7798  -38.7282 C.2       9 UNK         0.5513 
     57 N          18.6543  -35.9430  -37.9944 N.am      9 UNK        -0.7519 
     58 O          20.8345  -36.1445  -38.2826 O.2       9 UNK        -0.4960 
     59 C59        18.5414  -34.0468  -40.2586 C.3       10 UNK        -0.0876 
     60 S60        18.3614  -33.3578  -41.9417 S.3       10 UNK        -0.2414 
     61 C61        18.5151  -31.5788  -41.5952 C.3       10 UNK         0.0169 
     62 H62        17.9278  -28.2177  -41.0470 H         1 UNK         0.0903 
     63 H63        19.2545  -27.6537  -42.0565 H         1 UNK         0.0903 
     64 H64        18.6550  -26.6339  -40.7408 H         1 UNK         0.0903 
     65 H65        18.8104  -26.3861  -43.8493 H         1 UNK         0.3096 
     66 H66        16.1076  -25.2754  -44.2903 H         1 UNK         0.1121 
     67 H67        16.0272  -26.1482  -46.6178 H         1 UNK         0.0849 
     68 H68        17.4666  -27.0957  -46.3556 H         1 UNK         0.0849 
     69 H69        15.8064  -30.3933  -45.7109 H         1 UNK         0.0865 
     70 H70        16.7786  -29.4451  -46.7987 H         1 UNK         0.0865 
     71 H71        16.5731  -30.8997  -43.3938 H         1 UNK         0.1346 
     72 H72        20.7591  -30.4640  -42.6223 H         1 UNK         0.1412 
     73 H73        19.0238  -28.7154  -46.1332 H         1 UNK         0.1426 
     74 H74        22.1680  -29.7493  -44.7700 H         1 UNK         0.0716 
     75 H75        21.7483  -28.3122  -43.8735 H         1 UNK         0.0716 
     76 H76        23.4811  -27.0568  -45.0590 H         1 UNK         0.0695 
     77 H77        23.4163  -26.5319  -46.7084 H         1 UNK         0.0695 
     78 H78        22.9845  -24.5475  -45.5611 H         1 UNK         0.0983 
     79 H79        20.4572  -25.6796  -46.5018 H         1 UNK         0.3095 
     80 H80        18.8490  -22.5128  -46.7934 H         1 UNK         0.0454 
     81 H81        19.9550  -22.9147  -48.9926 H         1 UNK         0.0851 
     82 H82        18.2935  -23.4788  -49.0106 H         1 UNK         0.0851 
     83 H83        19.6181  -24.6352  -48.8725 H         1 UNK         0.0851 
     84 H84        18.0087  -25.2554  -47.0848 H         1 UNK         0.2976 
     85 H85        23.4812  -24.2429  -43.4563 H         1 UNK         0.3116 
     86 H86        21.3655  -24.2509  -41.4630 H         1 UNK         0.0646 
     87 H87        24.3147  -23.4226  -41.3166 H         1 UNK         0.0847 
     88 H88        22.9496  -22.3556  -41.6466 H         1 UNK         0.0847 
     89 H89        23.1048  -23.1252  -40.0772 H         1 UNK         0.0847 
     90 H90        21.2135  -26.6346  -41.8242 H         1 UNK         0.3040 
     91 H91        21.0931  -28.6774  -40.9794 H         1 UNK         0.1015 
     92 H92        21.8649  -29.2547  -38.7127 H         1 UNK         0.0786 
     93 H93        21.0269  -27.7119  -38.7019 H         1 UNK         0.0786 
     94 H94        22.7857  -27.7635  -38.6000 H         1 UNK         0.0786 
     95 H95        24.4312  -27.4840  -40.7196 H         1 UNK         0.3172 
     96 H96        26.4392  -28.2951  -41.3001 H         1 UNK         0.0595 
     97 H97        24.8935  -29.6882  -43.5528 H         1 UNK         0.0839 
     98 H98        26.6014  -29.2732  -43.5702 H         1 UNK         0.0839 
     99 H99        25.3967  -27.9983  -43.5597 H         1 UNK         0.0839 
    100 H100       25.0424  -29.8922  -39.3435 H         1 UNK         0.2998 
    101 H101       25.1627  -31.7004  -38.0979 H         1 UNK         0.0822 
    102 H102       27.1735  -33.1068  -38.0598 H         1 UNK         0.0787 
    103 H103       27.6543  -31.4353  -38.2896 H         1 UNK         0.0787 
    104 H104       27.6589  -32.5533  -39.6534 H         1 UNK         0.0787 
    105 H105       23.7448  -31.7813  -40.8281 H         1 UNK         0.3055 
    106 H106       23.4949  -34.7074  -41.2434 H         1 UNK         0.1106 
    107 H107       23.6514  -33.1245  -43.2242 H         1 UNK         0.0828 
    108 H108       22.1551  -34.0412  -43.2025 H         1 UNK         0.0828 
    109 H109       22.1533  -32.3613  -42.7002 H         1 UNK         0.0828 
    110 H110       21.1976  -35.4559  -41.5166 H         1 UNK         0.2931 
    111 H111       19.2358  -36.0152  -40.7672 H         1 UNK         0.0412 
    112 H112       18.7420  -36.3444  -37.0734 H         1 UNK         0.3472 
    113 H113       17.7436  -35.6871  -38.3415 H         1 UNK         0.3472 
    114 H114       18.7818  -33.2493  -39.5536 H         1 UNK         0.0970 
    115 H115       17.5587  -34.4167  -39.9636 H         1 UNK         0.0970 
    116 H116       17.6393  -31.2410  -41.0391 H         1 UNK         0.0612 
    117 H117       19.3787  -31.4097  -40.9493 H         1 UNK         0.0612 
@<TRIPOS>BOND
     1    1    2 1    
     2    1   62 1    
     3    1   63 1    
     4    1   64 1    
     5    2    3 2    
     6    2    4 am   BACKBONE|DICT|INTERRES
     7    4    5 1    
     8    4   65 1    
     9    5    6 1    
    10    5   25 1    
    11    5   66 1    
    12    6    7 1    
    13    6   67 1    
    14    6   68 1    
    15    7    8 1    
    16    8    9 1    
    17    8   69 1    
    18    8   70 1    
    19    9   10 ar   
    20    9   14 ar   
    21   10   11 ar   
    22   10   71 1    
    23   11   12 ar   
    24   11   61 1    
    25   12   13 ar   
    26   12   72 1    
    27   13   14 ar   
    28   13   15 1    
    29   14   73 1    
    30   15   16 1    
    31   15   74 1    
    32   15   75 1    
    33   16   17 1    
    34   17   18 1    
    35   17   76 1    
    36   17   77 1    
    37   18   19 1    
    38   18   27 1    
    39   18   78 1    
    40   19   20 am   BACKBONE|DICT|INTERRES
    41   19   79 1    
    42   20   21 2    
    43   20   22 1    
    44   22   23 1    
    45   22   24 1    
    46   22   80 1    
    47   23   81 1    
    48   23   82 1    
    49   23   83 1    
    50   24   25 am   BACKBONE|DICT|INTERRES
    51   24   84 1    
    52   25   26 2    
    53   27   28 2    
    54   27   29 am   BACKBONE|DICT|INTERRES
    55   29   30 1    
    56   29   85 1    
    57   30   31 1    
    58   30   32 1    
    59   30   86 1    
    60   31   87 1    
    61   31   88 1    
    62   31   89 1    
    63   32   33 2    
    64   32   34 am   BACKBONE|DICT|INTERRES
    65   34   35 1    
    66   34   90 1    
    67   35   36 1    
    68   35   37 1    
    69   35   91 1    
    70   36   92 1    
    71   36   93 1    
    72   36   94 1    
    73   37   38 2    
    74   37   39 am   BACKBONE|DICT|INTERRES
    75   39   40 1    
    76   39   95 1    
    77   40   41 1    
    78   40   42 1    
    79   40   96 1    
    80   41   97 1    
    81   41   98 1    
    82   41   99 1    
    83   42   43 2    
    84   42   44 am   BACKBONE|DICT|INTERRES
    85   44   45 1    
    86   44  100 1    
    87   45   46 1    
    88   45   47 1    
    89   45  101 1    
    90   46  102 1    
    91   46  103 1    
    92   46  104 1    
    93   47   48 2    
    94   47   49 am   BACKBONE|DICT|INTERRES
    95   49   50 1    
    96   49  105 1    
    97   50   51 1    
    98   50   52 1    
    99   50  106 1    
   100   51  107 1    
   101   51  108 1    
   102   51  109 1    
   103   52   53 2    
   104   52   54 am   BACKBONE|DICT|INTERRES
   105   54   55 1    
   106   54  110 1    
   107   55   56 1    
   108   55   59 1    
   109   55  111 1    
   110   56   57 am   BACKBONE|DICT|INTERRES
   111   56   58 2    
   112   57  112 1    
   113   57  113 1    
   114   59   60 1    
   115   59  114 1    
   116   59  115 1    
   117   60   61 1    
   118   61  116 1    
   119   61  117 1    
@<TRIPOS>SUBSTRUCTURE
     1 UNK         1 GROUP             0       ****    0 ROOT    
