@<TRIPOS>MOLECULE
3R8
117   119    1
SMALL
USER_CHARGES


@<TRIPOS>ATOM
      1 CA         19.4118  -22.0988  -43.8739 C.3       0 UNK        -0.2013 
      2 C          18.4783  -22.4112  -45.0414 C.2       0 UNK         0.4866 
      3 O          17.7734  -21.5163  -45.5032 O.2       0 UNK        -0.5176 
      4 N          18.4359  -23.6466  -45.5623 N.am      1 UNK        -0.4884 
      5 CA         19.1533  -24.8427  -45.0993 C.3       1 UNK         0.0853 
      6 C6         19.0961  -25.9905  -46.1423 C.3       10 UNK        -0.0849 
      7 S7         17.4028  -26.4075  -46.6984 S.3       10 UNK        -0.2776 
      8 C8         17.6928  -27.9113  -47.6838 C.3       10 UNK         0.0316 
      9 C9         17.9491  -29.1205  -46.7975 C.ar      10 UNK        -0.0863 
     10 C10        19.2483  -29.5974  -46.6080 C.ar      10 UNK        -0.1009 
     11 C11        19.4863  -30.6920  -45.7720 C.ar      10 UNK        -0.0712 
     12 C12        18.4140  -31.3255  -45.1372 C.ar      10 UNK        -0.0894 
     13 C13        17.1126  -30.8393  -45.3001 C.ar      10 UNK        -0.0745 
     14 C14        16.8845  -29.7507  -46.1477 C.ar      10 UNK        -0.0972 
     15 C15        15.9584  -31.4429  -44.5140 C.3       10 UNK         0.0209 
     16 S16        15.3381  -30.2822  -43.2496 S.3       10 UNK        -0.2568 
     17 C17        16.6956  -30.2636  -42.0257 C.3       10 UNK        -0.0983 
     18 CA         17.8125  -29.2247  -42.3310 C.3       3 UNK         0.0876 
     19 N          17.3210  -27.8686  -42.5923 N.am      3 UNK        -0.4424 
     20 C          16.8405  -26.9904  -41.7025 C.2       2 UNK         0.4918 
     21 O          16.5762  -27.2749  -40.5337 O.2       2 UNK        -0.4875 
     22 CA         16.6647  -25.5336  -42.1918 C.3       2 UNK         0.0481 
     23 CB         17.0527  -24.5196  -41.0954 C.3       2 UNK        -0.1831 
     24 N          17.3683  -25.2033  -43.4445 N.am      2 UNK        -0.4498 
     25 C          18.6803  -25.3235  -43.7128 C.2       1 UNK         0.5027 
     26 O          19.5028  -25.7945  -42.9274 O.2       1 UNK        -0.4969 
     27 C          18.9685  -29.2537  -41.3015 C.2       3 UNK         0.5005 
     28 O          19.0792  -30.2086  -40.5296 O.2       3 UNK        -0.5279 
     29 N          19.8128  -28.2112  -41.3037 N.am      4 UNK        -0.4463 
     30 CA         20.9381  -28.0385  -40.3863 C.3       4 UNK         0.0283 
     31 CB         20.4385  -27.4784  -39.0390 C.3       4 UNK        -0.1875 
     32 C          22.0246  -27.1655  -41.0336 C.2       4 UNK         0.4949 
     33 O          22.5881  -26.2904  -40.3754 O.2       4 UNK        -0.5039 
     34 N          22.3086  -27.4173  -42.3196 N.am      5 UNK        -0.4663 
     35 CA         23.3379  -26.7135  -43.0974 C.3       5 UNK         0.0242 
     36 CB         23.0297  -26.8778  -44.5952 C.3       5 UNK        -0.1982 
     37 C          24.7738  -27.1806  -42.7789 C.2       5 UNK         0.5017 
     38 O          25.7305  -26.5448  -43.2225 O.2       5 UNK        -0.5012 
     39 N          24.8959  -28.2756  -42.0239 N.am      6 UNK        -0.4439 
     40 CA         26.1192  -28.8919  -41.5247 C.3       6 UNK         0.0297 
     41 CB         26.7610  -29.7525  -42.6308 C.3       6 UNK        -0.2006 
     42 C          25.7371  -29.7288  -40.2942 C.2       6 UNK         0.4892 
     43 O          24.5517  -29.7912  -39.9492 O.2       6 UNK        -0.5089 
     44 N          26.7267  -30.3809  -39.6676 N.am      7 UNK        -0.4243 
     45 CA         26.5425  -31.3199  -38.5538 C.3       7 UNK         0.0196 
     46 CB         27.9154  -31.8228  -38.0771 C.3       7 UNK        -0.2007 
     47 C          25.6326  -32.4923  -38.9633 C.2       7 UNK         0.5020 
     48 O          26.0177  -33.2837  -39.8267 O.2       7 UNK        -0.5147 
     49 N          24.4106  -32.5156  -38.4080 N.am      8 UNK        -0.4734 
     50 CA         23.2834  -33.3941  -38.7717 C.3       8 UNK         0.0238 
     51 CB         23.5838  -34.8543  -38.3714 C.3       8 UNK        -0.1912 
     52 C          22.8487  -33.2702  -40.2513 C.2       8 UNK         0.5038 
     53 O          22.2337  -34.1929  -40.7883 O.2       8 UNK        -0.5046 
     54 N          23.1986  -32.1422  -40.8842 N.am      9 UNK        -0.4200 
     55 CA         23.1150  -31.8783  -42.3252 C.3       9 UNK         0.0839 
     56 C          23.9706  -32.8345  -43.2139 C.2       9 UNK         0.5513 
     57 N          25.0185  -33.4577  -42.6848 N.am      9 UNK        -0.7519 
     58 O          23.7052  -32.9994  -44.4013 O.2       9 UNK        -0.4960 
     59 C59        21.6521  -31.6770  -42.8098 C.3       10 UNK        -0.0876 
     60 S60        21.5476  -30.3129  -44.0178 S.3       10 UNK        -0.2414 
     61 C61        20.9109  -31.1423  -45.5059 C.3       10 UNK         0.0169 
     62 H62        20.4116  -22.4989  -44.0364 H         1 UNK         0.0903 
     63 H63        19.5117  -21.0208  -43.7487 H         1 UNK         0.0903 
     64 H64        19.0155  -22.5034  -42.9432 H         1 UNK         0.0903 
     65 H65        17.8130  -23.8139  -46.3410 H         1 UNK         0.3096 
     66 H66        20.2060  -24.5757  -44.9874 H         1 UNK         0.1121 
     67 H67        19.6739  -25.7055  -47.0230 H         1 UNK         0.0849 
     68 H68        19.5822  -26.8865  -45.7513 H         1 UNK         0.0849 
     69 H69        18.5232  -27.7467  -48.3723 H         1 UNK         0.0865 
     70 H70        16.8164  -28.1000  -48.3057 H         1 UNK         0.0865 
     71 H71        20.0797  -29.1008  -47.0899 H         1 UNK         0.1346 
     72 H72        18.6020  -32.1565  -44.4710 H         1 UNK         0.1412 
     73 H73        15.8799  -29.3679  -46.2690 H         1 UNK         0.1426 
     74 H74        16.2499  -32.3811  -44.0392 H         1 UNK         0.0716 
     75 H75        15.1462  -31.6847  -45.2009 H         1 UNK         0.0716 
     76 H76        17.1149  -31.2695  -41.9642 H         1 UNK         0.0695 
     77 H77        16.2558  -30.0601  -41.0479 H         1 UNK         0.0695 
     78 H78        18.2956  -29.5182  -43.2585 H         1 UNK         0.0983 
     79 H79        17.4629  -27.5355  -43.5345 H         1 UNK         0.3095 
     80 H80        15.6010  -25.4109  -42.3993 H         1 UNK         0.0454 
     81 H81        16.9014  -23.4939  -41.4312 H         1 UNK         0.0851 
     82 H82        18.0971  -24.6258  -40.7997 H         1 UNK         0.0851 
     83 H83        16.4462  -24.6553  -40.1991 H         1 UNK         0.0851 
     84 H84        16.7858  -24.8328  -44.1838 H         1 UNK         0.2976 
     85 H85        19.6581  -27.4400  -41.9515 H         1 UNK         0.3116 
     86 H86        21.4007  -29.0113  -40.2047 H         1 UNK         0.0646 
     87 H87        21.2597  -27.3679  -38.3298 H         1 UNK         0.0847 
     88 H88        19.7048  -28.1403  -38.5790 H         1 UNK         0.0847 
     89 H89        19.9746  -26.4991  -39.1621 H         1 UNK         0.0847 
     90 H90        21.8118  -28.1610  -42.7929 H         1 UNK         0.3040 
     91 H91        23.2849  -25.6496  -42.8554 H         1 UNK         0.1015 
     92 H92        22.0210  -26.5408  -44.8329 H         1 UNK         0.0786 
     93 H93        23.1232  -27.9156  -44.9165 H         1 UNK         0.0786 
     94 H94        23.7189  -26.2884  -45.2014 H         1 UNK         0.0786 
     95 H95        24.0556  -28.6796  -41.6289 H         1 UNK         0.3172 
     96 H96        26.8132  -28.1112  -41.2074 H         1 UNK         0.0595 
     97 H97        26.1062  -30.5675  -42.9399 H         1 UNK         0.0839 
     98 H98        27.6994  -30.1965  -42.2978 H         1 UNK         0.0839 
     99 H99        26.9886  -29.1570  -43.5151 H         1 UNK         0.0839 
    100 H100       27.6666  -30.2913  -40.0254 H         1 UNK         0.2998 
    101 H101       26.0753  -30.7757  -37.7303 H         1 UNK         0.0822 
    102 H102       28.4538  -32.3437  -38.8702 H         1 UNK         0.0787 
    103 H103       28.5415  -31.0007  -37.7297 H         1 UNK         0.0787 
    104 H104       27.8068  -32.5203  -37.2454 H         1 UNK         0.0787 
    105 H105       24.1873  -31.7886  -37.7408 H         1 UNK         0.3055 
    106 H106       22.4276  -33.0586  -38.1835 H         1 UNK         0.1106 
    107 H107       22.7052  -35.4868  -38.5040 H         1 UNK         0.0828 
    108 H108       24.3849  -35.2827  -38.9745 H         1 UNK         0.0828 
    109 H109       23.8766  -34.9270  -37.3241 H         1 UNK         0.0828 
    110 H110       23.6869  -31.4292  -40.3500 H         1 UNK         0.2931 
    111 H111       23.6244  -30.9193  -42.4192 H         1 UNK         0.0412 
    112 H112       25.2612  -33.3455  -41.7060 H         1 UNK         0.3472 
    113 H113       25.5692  -34.0678  -43.2675 H         1 UNK         0.3472 
    114 H114       21.2300  -32.6036  -43.2014 H         1 UNK         0.0970 
    115 H115       21.0118  -31.4021  -41.9717 H         1 UNK         0.0970 
    116 H116       21.5521  -30.8850  -46.3502 H         1 UNK         0.0612 
    117 H117       20.9594  -32.2275  -45.4104 H         1 UNK         0.0612 
@<TRIPOS>BOND
     1    1    2 1    
     2    1   62 1    
     3    1   63 1    
     4    1   64 1    
     5    2    3 2    
     6    2    4 am   BACKBONE|DICT|INTERRES
     7    4    5 1    
     8    4   65 1    
     9    5    6 1    
    10    5   25 1    
    11    5   66 1    
    12    6    7 1    
    13    6   67 1    
    14    6   68 1    
    15    7    8 1    
    16    8    9 1    
    17    8   69 1    
    18    8   70 1    
    19    9   10 ar   
    20    9   14 ar   
    21   10   11 ar   
    22   10   71 1    
    23   11   12 ar   
    24   11   61 1    
    25   12   13 ar   
    26   12   72 1    
    27   13   14 ar   
    28   13   15 1    
    29   14   73 1    
    30   15   16 1    
    31   15   74 1    
    32   15   75 1    
    33   16   17 1    
    34   17   18 1    
    35   17   76 1    
    36   17   77 1    
    37   18   19 1    
    38   18   27 1    
    39   18   78 1    
    40   19   20 am   BACKBONE|DICT|INTERRES
    41   19   79 1    
    42   20   21 2    
    43   20   22 1    
    44   22   23 1    
    45   22   24 1    
    46   22   80 1    
    47   23   81 1    
    48   23   82 1    
    49   23   83 1    
    50   24   25 am   BACKBONE|DICT|INTERRES
    51   24   84 1    
    52   25   26 2    
    53   27   28 2    
    54   27   29 am   BACKBONE|DICT|INTERRES
    55   29   30 1    
    56   29   85 1    
    57   30   31 1    
    58   30   32 1    
    59   30   86 1    
    60   31   87 1    
    61   31   88 1    
    62   31   89 1    
    63   32   33 2    
    64   32   34 am   BACKBONE|DICT|INTERRES
    65   34   35 1    
    66   34   90 1    
    67   35   36 1    
    68   35   37 1    
    69   35   91 1    
    70   36   92 1    
    71   36   93 1    
    72   36   94 1    
    73   37   38 2    
    74   37   39 am   BACKBONE|DICT|INTERRES
    75   39   40 1    
    76   39   95 1    
    77   40   41 1    
    78   40   42 1    
    79   40   96 1    
    80   41   97 1    
    81   41   98 1    
    82   41   99 1    
    83   42   43 2    
    84   42   44 am   BACKBONE|DICT|INTERRES
    85   44   45 1    
    86   44  100 1    
    87   45   46 1    
    88   45   47 1    
    89   45  101 1    
    90   46  102 1    
    91   46  103 1    
    92   46  104 1    
    93   47   48 2    
    94   47   49 am   BACKBONE|DICT|INTERRES
    95   49   50 1    
    96   49  105 1    
    97   50   51 1    
    98   50   52 1    
    99   50  106 1    
   100   51  107 1    
   101   51  108 1    
   102   51  109 1    
   103   52   53 2    
   104   52   54 am   BACKBONE|DICT|INTERRES
   105   54   55 1    
   106   54  110 1    
   107   55   56 1    
   108   55   59 1    
   109   55  111 1    
   110   56   57 am   BACKBONE|DICT|INTERRES
   111   56   58 2    
   112   57  112 1    
   113   57  113 1    
   114   59   60 1    
   115   59  114 1    
   116   59  115 1    
   117   60   61 1    
   118   61  116 1    
   119   61  117 1    
@<TRIPOS>SUBSTRUCTURE
     1 UNK         1 GROUP             0       ****    0 ROOT    
