@<TRIPOS>MOLECULE
3R8
117   119    1
SMALL
USER_CHARGES


@<TRIPOS>ATOM
      1 CA         21.8764  -23.5721  -40.5274 C.3       0 UNK        -0.2013 
      2 C          20.6417  -23.7065  -41.4069 C.2       0 UNK         0.4866 
      3 O          19.9971  -22.7018  -41.7113 O.2       0 UNK        -0.5176 
      4 N          20.3024  -24.9367  -41.8104 N.am      1 UNK        -0.4884 
      5 CA         19.1992  -25.2357  -42.7291 C.3       1 UNK         0.0853 
      6 C6         18.6941  -26.6932  -42.5571 C.3       10 UNK        -0.0849 
      7 S7         16.9221  -26.8421  -42.9627 S.3       10 UNK        -0.2776 
      8 C8         16.5136  -28.4935  -42.3013 C.3       10 UNK         0.0316 
      9 C9         17.0548  -29.6316  -43.1603 C.ar      10 UNK        -0.0863 
     10 C10        17.8094  -30.6579  -42.5812 C.ar      10 UNK        -0.1009 
     11 C11        18.2940  -31.7176  -43.3574 C.ar      10 UNK        -0.0712 
     12 C12        18.0091  -31.7428  -44.7270 C.ar      10 UNK        -0.0894 
     13 C13        17.2687  -30.7180  -45.3216 C.ar      10 UNK        -0.0745 
     14 C14        16.7763  -29.6774  -44.5299 C.ar      10 UNK        -0.0972 
     15 C15        17.0362  -30.7207  -46.8265 C.3       10 UNK         0.0209 
     16 S16        17.7794  -29.2730  -47.6528 S.3       10 UNK        -0.2568 
     17 C17        19.5078  -29.3171  -47.0553 C.3       10 UNK        -0.0983 
     18 CA         20.2650  -27.9897  -47.3170 C.3       3 UNK         0.0876 
     19 N          19.5321  -26.8352  -46.7830 N.am      3 UNK        -0.4424 
     20 C          19.5760  -25.5911  -47.2755 C.2       2 UNK         0.4918 
     21 O          20.2268  -25.2698  -48.2695 O.2       2 UNK        -0.4875 
     22 CA         18.7869  -24.5125  -46.5073 C.3       2 UNK         0.0481 
     23 CB         17.4044  -24.3111  -47.1473 C.3       2 UNK        -0.1831 
     24 N          18.6195  -24.7841  -45.0724 N.am      2 UNK        -0.4498 
     25 C          19.6142  -24.9486  -44.1880 C.2       1 UNK         0.5027 
     26 O          20.8079  -24.9331  -44.5009 O.2       1 UNK        -0.4969 
     27 C          21.7185  -28.0672  -46.7844 C.2       3 UNK         0.5005 
     28 O          22.4074  -29.0439  -47.0818 O.2       3 UNK        -0.5279 
     29 N          22.1571  -27.0647  -46.0027 N.am      4 UNK        -0.4463 
     30 CA         23.4590  -26.9384  -45.3321 C.3       4 UNK         0.0283 
     31 CB         24.6356  -26.9979  -46.3304 C.3       4 UNK        -0.1875 
     32 C          23.6338  -27.8901  -44.1320 C.2       4 UNK         0.4949 
     33 O          24.7657  -28.1614  -43.7281 O.2       4 UNK        -0.5039 
     34 N          22.5157  -28.3518  -43.5576 N.am      5 UNK        -0.4663 
     35 CA         22.4745  -29.0884  -42.2938 C.3       5 UNK         0.0242 
     36 CB         21.1498  -29.8575  -42.2109 C.3       5 UNK        -0.1982 
     37 C          22.5934  -28.1208  -41.1077 C.2       5 UNK         0.5017 
     38 O          22.1544  -26.9734  -41.2144 O.2       5 UNK        -0.5012 
     39 N          23.1360  -28.6078  -39.9902 N.am      6 UNK        -0.4439 
     40 CA         23.3143  -27.8540  -38.7516 C.3       6 UNK         0.0297 
     41 CB         24.6901  -27.1608  -38.7531 C.3       6 UNK        -0.2006 
     42 C          23.1350  -28.8366  -37.5930 C.2       6 UNK         0.4892 
     43 O          24.1228  -29.3362  -37.0508 O.2       6 UNK        -0.5089 
     44 N          21.8661  -29.1648  -37.3074 N.am      7 UNK        -0.4243 
     45 CA         21.3700  -30.2275  -36.4180 C.3       7 UNK         0.0196 
     46 CB         21.8757  -30.0723  -34.9692 C.3       7 UNK        -0.2007 
     47 C          21.6478  -31.6324  -36.9801 C.2       7 UNK         0.5020 
     48 O          20.7087  -32.4029  -37.1796 O.2       7 UNK        -0.5147 
     49 N          22.9193  -31.9175  -37.2784 N.am      8 UNK        -0.4734 
     50 CA         23.3462  -33.0343  -38.1161 C.3       8 UNK         0.0238 
     51 CB         24.8022  -33.3885  -37.7746 C.3       8 UNK        -0.1912 
     52 C          23.2220  -32.6335  -39.5946 C.2       8 UNK         0.5038 
     53 O          23.4808  -31.4738  -39.9338 O.2       8 UNK        -0.5046 
     54 N          22.8501  -33.5994  -40.4417 N.am      9 UNK        -0.4200 
     55 CA         22.7058  -33.4237  -41.8964 C.3       9 UNK         0.0839 
     56 C          24.0241  -33.6298  -42.7014 C.2       9 UNK         0.5513 
     57 N          25.1423  -33.9697  -42.0710 N.am      9 UNK        -0.7519 
     58 O          24.0393  -33.4707  -43.9185 O.2       9 UNK        -0.4960 
     59 C59        21.5224  -34.2709  -42.4484 C.3       10 UNK        -0.0876 
     60 S60        20.5496  -33.3571  -43.6918 S.3       10 UNK        -0.2414 
     61 C61        19.1087  -32.8307  -42.7004 C.3       10 UNK         0.0169 
     62 H62        22.2496  -24.5405  -40.1957 H         1 UNK         0.0903 
     63 H63        22.6731  -23.0701  -41.0753 H         1 UNK         0.0903 
     64 H64        21.6454  -22.9809  -39.6419 H         1 UNK         0.0903 
     65 H65        20.9220  -25.7150  -41.5835 H         1 UNK         0.3096 
     66 H66        18.3832  -24.5529  -42.4794 H         1 UNK         0.1121 
     67 H67        18.8191  -27.0134  -41.5210 H         1 UNK         0.0849 
     68 H68        19.2671  -27.3974  -43.1624 H         1 UNK         0.0849 
     69 H69        16.8737  -28.5687  -41.2741 H         1 UNK         0.0865 
     70 H70        15.4282  -28.5881  -42.2504 H         1 UNK         0.0865 
     71 H71        18.0195  -30.6341  -41.5205 H         1 UNK         0.1346 
     72 H72        18.3822  -32.5539  -45.3368 H         1 UNK         0.1412 
     73 H73        16.1970  -28.8872  -44.9881 H         1 UNK         0.1426 
     74 H74        15.9635  -30.7300  -47.0234 H         1 UNK         0.0716 
     75 H75        17.4408  -31.6264  -47.2808 H         1 UNK         0.0716 
     76 H76        19.5206  -29.5371  -45.9870 H         1 UNK         0.0695 
     77 H77        20.0091  -30.1533  -47.5463 H         1 UNK         0.0695 
     78 H78        20.3470  -27.8703  -48.3997 H         1 UNK         0.0983 
     79 H79        18.9396  -27.0149  -45.9862 H         1 UNK         0.3095 
     80 H80        19.3437  -23.5777  -46.5975 H         1 UNK         0.0454 
     81 H81        17.4955  -24.0796  -48.2096 H         1 UNK         0.0851 
     82 H82        16.7853  -25.2052  -47.0616 H         1 UNK         0.0851 
     83 H83        16.8673  -23.4835  -46.6839 H         1 UNK         0.0851 
     84 H84        17.6679  -24.8526  -44.7374 H         1 UNK         0.2976 
     85 H85        21.5119  -26.3092  -45.7913 H         1 UNK         0.3116 
     86 H86        23.4602  -25.9355  -44.9025 H         1 UNK         0.0646 
     87 H87        25.5698  -26.7080  -45.8482 H         1 UNK         0.0847 
     88 H88        24.4816  -26.3184  -47.1685 H         1 UNK         0.0847 
     89 H89        24.7805  -28.0013  -46.7310 H         1 UNK         0.0847 
     90 H90        21.6328  -28.0415  -43.9311 H         1 UNK         0.3040 
     91 H91        23.3035  -29.7998  -42.2659 H         1 UNK         0.1015 
     92 H92        21.0060  -30.4872  -43.0881 H         1 UNK         0.0786 
     93 H93        20.2939  -29.1887  -42.1361 H         1 UNK         0.0786 
     94 H94        21.1274  -30.5048  -41.3335 H         1 UNK         0.0786 
     95 H95        23.3955  -29.5944  -39.9544 H         1 UNK         0.3172 
     96 H96        22.5416  -27.0874  -38.6591 H         1 UNK         0.0595 
     97 H97        24.8618  -26.6334  -37.8141 H         1 UNK         0.0839 
     98 H98        24.7614  -26.4271  -39.5562 H         1 UNK         0.0839 
     99 H99        25.5033  -27.8763  -38.8813 H         1 UNK         0.0839 
    100 H100       21.1470  -28.7103  -37.8537 H         1 UNK         0.2998 
    101 H101       20.2853  -30.1083  -36.3942 H         1 UNK         0.0822 
    102 H102       21.6436  -29.0837  -34.5733 H         1 UNK         0.0787 
    103 H103       21.3996  -30.8037  -34.3150 H         1 UNK         0.0787 
    104 H104       22.9523  -30.2219  -34.8860 H         1 UNK         0.0787 
    105 H105       23.5952  -31.1698  -37.1415 H         1 UNK         0.3055 
    106 H106       22.7123  -33.9016  -37.9170 H         1 UNK         0.1106 
    107 H107       25.4782  -32.5559  -37.9751 H         1 UNK         0.0828 
    108 H108       24.9075  -33.6583  -36.7236 H         1 UNK         0.0828 
    109 H109       25.1476  -34.2398  -38.3624 H         1 UNK         0.0828 
    110 H110       22.6909  -34.5321  -40.0893 H         1 UNK         0.2931 
    111 H111       22.4568  -32.3745  -42.0565 H         1 UNK         0.0412 
    112 H112       25.9890  -34.0957  -42.6037 H         1 UNK         0.3472 
    113 H113       25.1518  -34.0956  -41.0722 H         1 UNK         0.3472 
    114 H114       20.8466  -34.5691  -41.6452 H         1 UNK         0.0970 
    115 H115       21.8705  -35.2074  -42.8887 H         1 UNK         0.0970 
    116 H116       19.4643  -32.5019  -41.7224 H         1 UNK         0.0612 
    117 H117       18.4612  -33.6909  -42.5265 H         1 UNK         0.0612 
@<TRIPOS>BOND
     1    1    2 1    
     2    1   62 1    
     3    1   63 1    
     4    1   64 1    
     5    2    3 2    
     6    2    4 am   BACKBONE|DICT|INTERRES
     7    4    5 1    
     8    4   65 1    
     9    5    6 1    
    10    5   25 1    
    11    5   66 1    
    12    6    7 1    
    13    6   67 1    
    14    6   68 1    
    15    7    8 1    
    16    8    9 1    
    17    8   69 1    
    18    8   70 1    
    19    9   10 ar   
    20    9   14 ar   
    21   10   11 ar   
    22   10   71 1    
    23   11   12 ar   
    24   11   61 1    
    25   12   13 ar   
    26   12   72 1    
    27   13   14 ar   
    28   13   15 1    
    29   14   73 1    
    30   15   16 1    
    31   15   74 1    
    32   15   75 1    
    33   16   17 1    
    34   17   18 1    
    35   17   76 1    
    36   17   77 1    
    37   18   19 1    
    38   18   27 1    
    39   18   78 1    
    40   19   20 am   BACKBONE|DICT|INTERRES
    41   19   79 1    
    42   20   21 2    
    43   20   22 1    
    44   22   23 1    
    45   22   24 1    
    46   22   80 1    
    47   23   81 1    
    48   23   82 1    
    49   23   83 1    
    50   24   25 am   BACKBONE|DICT|INTERRES
    51   24   84 1    
    52   25   26 2    
    53   27   28 2    
    54   27   29 am   BACKBONE|DICT|INTERRES
    55   29   30 1    
    56   29   85 1    
    57   30   31 1    
    58   30   32 1    
    59   30   86 1    
    60   31   87 1    
    61   31   88 1    
    62   31   89 1    
    63   32   33 2    
    64   32   34 am   BACKBONE|DICT|INTERRES
    65   34   35 1    
    66   34   90 1    
    67   35   36 1    
    68   35   37 1    
    69   35   91 1    
    70   36   92 1    
    71   36   93 1    
    72   36   94 1    
    73   37   38 2    
    74   37   39 am   BACKBONE|DICT|INTERRES
    75   39   40 1    
    76   39   95 1    
    77   40   41 1    
    78   40   42 1    
    79   40   96 1    
    80   41   97 1    
    81   41   98 1    
    82   41   99 1    
    83   42   43 2    
    84   42   44 am   BACKBONE|DICT|INTERRES
    85   44   45 1    
    86   44  100 1    
    87   45   46 1    
    88   45   47 1    
    89   45  101 1    
    90   46  102 1    
    91   46  103 1    
    92   46  104 1    
    93   47   48 2    
    94   47   49 am   BACKBONE|DICT|INTERRES
    95   49   50 1    
    96   49  105 1    
    97   50   51 1    
    98   50   52 1    
    99   50  106 1    
   100   51  107 1    
   101   51  108 1    
   102   51  109 1    
   103   52   53 2    
   104   52   54 am   BACKBONE|DICT|INTERRES
   105   54   55 1    
   106   54  110 1    
   107   55   56 1    
   108   55   59 1    
   109   55  111 1    
   110   56   57 am   BACKBONE|DICT|INTERRES
   111   56   58 2    
   112   57  112 1    
   113   57  113 1    
   114   59   60 1    
   115   59  114 1    
   116   59  115 1    
   117   60   61 1    
   118   61  116 1    
   119   61  117 1    
@<TRIPOS>SUBSTRUCTURE
     1 UNK         1 GROUP             0       ****    0 ROOT    
