@<TRIPOS>MOLECULE
3R8
117   119    1
SMALL
USER_CHARGES


@<TRIPOS>ATOM
      1 CA         15.4061  -22.7030  -42.4621 C.3       0 UNK        -0.2013 
      2 C          15.8416  -23.3937  -43.7457 C.2       0 UNK         0.4866 
      3 O          15.8005  -22.7828  -44.8136 O.2       0 UNK        -0.5176 
      4 N          16.2662  -24.6614  -43.6499 N.am      1 UNK        -0.4884 
      5 CA         16.7123  -25.4859  -44.7847 C.3       1 UNK         0.0853 
      6 C6         16.4616  -26.9952  -44.5117 C.3       10 UNK        -0.0849 
      7 S7         15.8504  -27.8690  -45.9932 S.3       10 UNK        -0.2776 
      8 C8         15.8141  -29.6013  -45.4166 C.3       10 UNK         0.0316 
      9 C9         17.1868  -30.1074  -44.9900 C.ar      10 UNK        -0.0863 
     10 C10        17.3645  -30.6949  -43.7347 C.ar      10 UNK        -0.1009 
     11 C11        18.6293  -31.1267  -43.3225 C.ar      10 UNK        -0.0712 
     12 C12        19.7259  -30.9484  -44.1745 C.ar      10 UNK        -0.0894 
     13 C13        19.5616  -30.3696  -45.4370 C.ar      10 UNK        -0.0745 
     14 C14        18.2836  -29.9767  -45.8448 C.ar      10 UNK        -0.0972 
     15 C15        20.7556  -30.1811  -46.3660 C.3       10 UNK         0.0209 
     16 S16        20.8239  -28.4939  -47.0636 S.3       10 UNK        -0.2568 
     17 C17        22.4256  -27.8654  -46.4628 C.3       10 UNK        -0.0983 
     18 CA         22.3486  -27.0164  -45.1697 C.3       3 UNK         0.0876 
     19 N          21.3601  -25.9300  -45.2412 N.am      3 UNK        -0.4424 
     20 C          21.3381  -24.8710  -44.4206 C.2       2 UNK         0.4918 
     21 O          22.1318  -24.7192  -43.4914 O.2       2 UNK        -0.4875 
     22 CA         20.2371  -23.8220  -44.6401 C.3       2 UNK         0.0481 
     23 CB         20.3994  -23.0948  -45.9901 C.3       2 UNK        -0.1831 
     24 N          18.8747  -24.3364  -44.4476 N.am      2 UNK        -0.4498 
     25 C          18.1751  -25.1937  -45.2085 C.2       1 UNK         0.5027 
     26 O          18.6383  -25.7388  -46.2105 O.2       1 UNK        -0.4969 
     27 C          22.2227  -27.8840  -43.9000 C.2       3 UNK         0.5005 
     28 O          23.1848  -28.5631  -43.5447 O.2       3 UNK        -0.5279 
     29 N          21.0877  -27.7884  -43.1907 N.am      4 UNK        -0.4463 
     30 CA         20.8468  -28.3831  -41.8716 C.3       4 UNK         0.0283 
     31 CB         19.4039  -28.0763  -41.4398 C.3       4 UNK        -0.1875 
     32 C          21.8386  -27.9330  -40.7808 C.2       4 UNK         0.4949 
     33 O          22.0177  -28.6511  -39.7985 O.2       4 UNK        -0.5039 
     34 N          22.4857  -26.7750  -40.9762 N.am      5 UNK        -0.4663 
     35 CA         23.5658  -26.2729  -40.1249 C.3       5 UNK         0.0242 
     36 CB         23.7384  -24.7674  -40.3862 C.3       5 UNK        -0.1982 
     37 C          24.9066  -27.0101  -40.3229 C.2       5 UNK         0.5017 
     38 O          25.8059  -26.8236  -39.5023 O.2       5 UNK        -0.5012 
     39 N          25.0373  -27.8080  -41.3926 N.am      6 UNK        -0.4439 
     40 CA         26.2526  -28.5343  -41.7627 C.3       6 UNK         0.0297 
     41 CB         27.0352  -27.7164  -42.8084 C.3       6 UNK        -0.2006 
     42 C          25.9084  -29.9541  -42.2445 C.2       6 UNK         0.4892 
     43 O          26.5002  -30.4363  -43.2124 O.2       6 UNK        -0.5089 
     44 N          24.9587  -30.6002  -41.5597 N.am      7 UNK        -0.4243 
     45 CA         24.4986  -31.9609  -41.8213 C.3       7 UNK         0.0196 
     46 CB         23.2104  -31.9062  -42.6606 C.3       7 UNK        -0.2007 
     47 C          24.2388  -32.6584  -40.4836 C.2       7 UNK         0.5020 
     48 O          24.0596  -31.9847  -39.4663 O.2       7 UNK        -0.5147 
     49 N          24.1728  -33.9963  -40.5097 N.am      8 UNK        -0.4734 
     50 CA         23.8793  -34.8373  -39.3401 C.3       8 UNK         0.0238 
     51 CB         24.0657  -36.3167  -39.7145 C.3       8 UNK        -0.1912 
     52 C          22.4775  -34.6031  -38.7459 C.2       8 UNK         0.5038 
     53 O          22.2982  -34.7655  -37.5384 O.2       8 UNK        -0.5046 
     54 N          21.5273  -34.2054  -39.6005 N.am      9 UNK        -0.4200 
     55 CA         20.1857  -33.7412  -39.2246 C.3       9 UNK         0.0839 
     56 C          20.1258  -32.2624  -38.7369 C.2       9 UNK         0.5513 
     57 N          21.2182  -31.5082  -38.7351 N.am      9 UNK        -0.7519 
     58 O          19.0599  -31.7897  -38.3514 O.2       9 UNK        -0.4960 
     59 C59        19.1477  -34.0406  -40.3406 C.3       10 UNK        -0.0876 
     60 S60        19.5817  -33.3881  -41.9940 S.3       10 UNK        -0.2414 
     61 C61        18.8025  -31.7430  -41.9395 C.3       10 UNK         0.0169 
     62 H62        15.4985  -23.3559  -41.5944 H         1 UNK         0.0903 
     63 H63        16.0162  -21.8173  -42.2866 H         1 UNK         0.0903 
     64 H64        14.3655  -22.3894  -42.5402 H         1 UNK         0.0903 
     65 H65        16.2773  -25.1121  -42.7449 H         1 UNK         0.3096 
     66 H66        16.1021  -25.1929  -45.6427 H         1 UNK         0.1121 
     67 H67        17.3577  -27.4877  -44.1295 H         1 UNK         0.0849 
     68 H68        15.7012  -27.1281  -43.7403 H         1 UNK         0.0849 
     69 H69        15.0961  -29.6844  -44.5991 H         1 UNK         0.0865 
     70 H70        15.4394  -30.2349  -46.2215 H         1 UNK         0.0865 
     71 H71        16.5174  -30.8064  -43.0715 H         1 UNK         0.1346 
     72 H72        20.7074  -31.2640  -43.8524 H         1 UNK         0.1412 
     73 H73        18.1465  -29.5307  -46.8205 H         1 UNK         0.1426 
     74 H74        21.6855  -30.4121  -45.8445 H         1 UNK         0.0716 
     75 H75        20.6774  -30.8960  -47.1859 H         1 UNK         0.0716 
     76 H76        23.1365  -28.6870  -46.3559 H         1 UNK         0.0695 
     77 H77        22.8335  -27.2437  -47.2612 H         1 UNK         0.0695 
     78 H78        23.3229  -26.5316  -45.0715 H         1 UNK         0.0983 
     79 H79        20.6212  -26.0248  -45.9324 H         1 UNK         0.3095 
     80 H80        20.3696  -23.0694  -43.8611 H         1 UNK         0.0454 
     81 H81        20.2862  -23.7659  -46.8416 H         1 UNK         0.0851 
     82 H82        19.6670  -22.2948  -46.0974 H         1 UNK         0.0851 
     83 H83        21.3878  -22.6402  -46.0688 H         1 UNK         0.0851 
     84 H84        18.3928  -23.9682  -43.6393 H         1 UNK         0.2976 
     85 H85        20.3506  -27.2149  -43.5720 H         1 UNK         0.3116 
     86 H86        20.9603  -29.4619  -41.9773 H         1 UNK         0.0646 
     87 H87        19.2369  -27.0052  -41.3201 H         1 UNK         0.0847 
     88 H88        19.1750  -28.5508  -40.4843 H         1 UNK         0.0847 
     89 H89        18.6816  -28.4504  -42.1647 H         1 UNK         0.0847 
     90 H90        22.2776  -26.2340  -41.8070 H         1 UNK         0.3040 
     91 H91        23.2746  -26.4087  -39.0808 H         1 UNK         0.1015 
     92 H92        22.8122  -24.2228  -40.2013 H         1 UNK         0.0786 
     93 H93        24.0436  -24.5697  -41.4147 H         1 UNK         0.0786 
     94 H94        24.5000  -24.3405  -39.7322 H         1 UNK         0.0786 
     95 H95        24.2437  -27.9514  -42.0140 H         1 UNK         0.3172 
     96 H96        26.8895  -28.6638  -40.8854 H         1 UNK         0.0595 
     97 H97        27.2899  -26.7268  -42.4290 H         1 UNK         0.0839 
     98 H98        26.4591  -27.5867  -43.7256 H         1 UNK         0.0839 
     99 H99        27.9709  -28.2097  -43.0747 H         1 UNK         0.0839 
    100 H100       24.5606  -30.1710  -40.7334 H         1 UNK         0.2998 
    101 H101       25.2667  -32.5220  -42.3581 H         1 UNK         0.0822 
    102 H102       23.3732  -31.3778  -43.6003 H         1 UNK         0.0787 
    103 H103       22.8526  -32.9062  -42.9082 H         1 UNK         0.0787 
    104 H104       22.4102  -31.3941  -42.1250 H         1 UNK         0.0787 
    105 H105       24.3272  -34.4757  -41.3860 H         1 UNK         0.3055 
    106 H106       24.6027  -34.5863  -38.5608 H         1 UNK         0.1106 
    107 H107       23.8766  -36.9629  -38.8560 H         1 UNK         0.0828 
    108 H108       23.3834  -36.6229  -40.5084 H         1 UNK         0.0828 
    109 H109       25.0838  -36.5173  -40.0488 H         1 UNK         0.0828 
    110 H110       21.7698  -34.0939  -40.5735 H         1 UNK         0.2931 
    111 H111       19.8740  -34.3288  -38.3589 H         1 UNK         0.0412 
    112 H112       21.1523  -30.5398  -38.4609 H         1 UNK         0.3472 
    113 H113       22.1188  -31.8726  -39.0222 H         1 UNK         0.3472 
    114 H114       18.1527  -33.6963  -40.0527 H         1 UNK         0.0970 
    115 H115       19.0488  -35.1222  -40.4431 H         1 UNK         0.0970 
    116 H116       19.4112  -31.0810  -41.3250 H         1 UNK         0.0612 
    117 H117       17.8360  -31.8233  -41.4401 H         1 UNK         0.0612 
@<TRIPOS>BOND
     1    1    2 1    
     2    1   62 1    
     3    1   63 1    
     4    1   64 1    
     5    2    3 2    
     6    2    4 am   BACKBONE|DICT|INTERRES
     7    4    5 1    
     8    4   65 1    
     9    5    6 1    
    10    5   25 1    
    11    5   66 1    
    12    6    7 1    
    13    6   67 1    
    14    6   68 1    
    15    7    8 1    
    16    8    9 1    
    17    8   69 1    
    18    8   70 1    
    19    9   10 ar   
    20    9   14 ar   
    21   10   11 ar   
    22   10   71 1    
    23   11   12 ar   
    24   11   61 1    
    25   12   13 ar   
    26   12   72 1    
    27   13   14 ar   
    28   13   15 1    
    29   14   73 1    
    30   15   16 1    
    31   15   74 1    
    32   15   75 1    
    33   16   17 1    
    34   17   18 1    
    35   17   76 1    
    36   17   77 1    
    37   18   19 1    
    38   18   27 1    
    39   18   78 1    
    40   19   20 am   BACKBONE|DICT|INTERRES
    41   19   79 1    
    42   20   21 2    
    43   20   22 1    
    44   22   23 1    
    45   22   24 1    
    46   22   80 1    
    47   23   81 1    
    48   23   82 1    
    49   23   83 1    
    50   24   25 am   BACKBONE|DICT|INTERRES
    51   24   84 1    
    52   25   26 2    
    53   27   28 2    
    54   27   29 am   BACKBONE|DICT|INTERRES
    55   29   30 1    
    56   29   85 1    
    57   30   31 1    
    58   30   32 1    
    59   30   86 1    
    60   31   87 1    
    61   31   88 1    
    62   31   89 1    
    63   32   33 2    
    64   32   34 am   BACKBONE|DICT|INTERRES
    65   34   35 1    
    66   34   90 1    
    67   35   36 1    
    68   35   37 1    
    69   35   91 1    
    70   36   92 1    
    71   36   93 1    
    72   36   94 1    
    73   37   38 2    
    74   37   39 am   BACKBONE|DICT|INTERRES
    75   39   40 1    
    76   39   95 1    
    77   40   41 1    
    78   40   42 1    
    79   40   96 1    
    80   41   97 1    
    81   41   98 1    
    82   41   99 1    
    83   42   43 2    
    84   42   44 am   BACKBONE|DICT|INTERRES
    85   44   45 1    
    86   44  100 1    
    87   45   46 1    
    88   45   47 1    
    89   45  101 1    
    90   46  102 1    
    91   46  103 1    
    92   46  104 1    
    93   47   48 2    
    94   47   49 am   BACKBONE|DICT|INTERRES
    95   49   50 1    
    96   49  105 1    
    97   50   51 1    
    98   50   52 1    
    99   50  106 1    
   100   51  107 1    
   101   51  108 1    
   102   51  109 1    
   103   52   53 2    
   104   52   54 am   BACKBONE|DICT|INTERRES
   105   54   55 1    
   106   54  110 1    
   107   55   56 1    
   108   55   59 1    
   109   55  111 1    
   110   56   57 am   BACKBONE|DICT|INTERRES
   111   56   58 2    
   112   57  112 1    
   113   57  113 1    
   114   59   60 1    
   115   59  114 1    
   116   59  115 1    
   117   60   61 1    
   118   61  116 1    
   119   61  117 1    
@<TRIPOS>SUBSTRUCTURE
     1 UNK         1 GROUP             0       ****    0 ROOT    
