@<TRIPOS>MOLECULE
3R8
117   119    1
SMALL
USER_CHARGES


@<TRIPOS>ATOM
      1 CA         19.0378  -28.2025  -42.2027 C.3       0 UNK        -0.2013 
      2 C          17.8747  -27.2547  -42.4315 C.2       0 UNK         0.4866 
      3 O          17.6903  -26.3217  -41.6499 O.2       0 UNK        -0.5176 
      4 N          17.0867  -27.4782  -43.4945 N.am      1 UNK        -0.4884 
      5 CA         15.9603  -26.6105  -43.8669 C.3       1 UNK         0.0853 
      6 C6         14.9486  -27.3151  -44.8080 C.3       10 UNK        -0.0849 
      7 S7         15.5476  -27.6678  -46.5008 S.3       10 UNK        -0.2776 
      8 C8         15.7365  -29.4782  -46.4995 C.3       10 UNK         0.0316 
      9 C9         17.0810  -29.9102  -45.9331 C.ar      10 UNK        -0.0863 
     10 C10        17.1561  -30.6044  -44.7221 C.ar      10 UNK        -0.1009 
     11 C11        18.3875  -31.0472  -44.2260 C.ar      10 UNK        -0.0712 
     12 C12        19.5513  -30.7847  -44.9637 C.ar      10 UNK        -0.0894 
     13 C13        19.4915  -30.0782  -46.1683 C.ar      10 UNK        -0.0745 
     14 C14        18.2519  -29.6509  -46.6503 C.ar      10 UNK        -0.0972 
     15 C15        20.7583  -29.8171  -46.9739 C.3       10 UNK         0.0209 
     16 S16        21.1055  -28.0411  -47.1862 S.3       10 UNK        -0.2568 
     17 C17        21.7100  -27.5773  -45.5302 C.3       10 UNK        -0.0983 
     18 CA         21.5905  -26.0527  -45.2824 C.3       3 UNK         0.0876 
     19 N          20.1999  -25.6062  -45.3043 N.am      3 UNK        -0.4424 
     20 C          19.7779  -24.4156  -45.7512 C.2       2 UNK         0.4918 
     21 O          20.5365  -23.5488  -46.1874 O.2       2 UNK        -0.4875 
     22 CA         18.2622  -24.1396  -45.7215 C.3       2 UNK         0.0481 
     23 CB         17.7307  -23.7626  -47.1158 C.3       2 UNK        -0.1831 
     24 N          17.5139  -25.2896  -45.2131 N.am      2 UNK        -0.4498 
     25 C          16.4488  -25.2465  -44.4034 C.2       1 UNK         0.5027 
     26 O          15.8916  -24.2076  -44.0452 O.2       1 UNK        -0.4969 
     27 C          22.1969  -25.6467  -43.9295 C.2       3 UNK         0.5005 
     28 O          21.8675  -26.2551  -42.9086 O.2       3 UNK        -0.5279 
     29 N          23.0402  -24.6062  -43.9349 N.am      4 UNK        -0.4463 
     30 CA         23.7273  -24.0940  -42.7483 C.3       4 UNK         0.0283 
     31 CB         24.4140  -22.7617  -43.0896 C.3       4 UNK        -0.1875 
     32 C          24.7501  -25.1059  -42.2063 C.2       4 UNK         0.4949 
     33 O          25.5261  -25.6597  -42.9878 O.2       4 UNK        -0.5039 
     34 N          24.7313  -25.3074  -40.8809 N.am      5 UNK        -0.4663 
     35 CA         25.6048  -26.2007  -40.1040 C.3       5 UNK         0.0242 
     36 CB         27.0637  -25.6951  -40.1315 C.3       5 UNK        -0.1982 
     37 C          25.4888  -27.6932  -40.4831 C.2       5 UNK         0.5017 
     38 O          26.4408  -28.4502  -40.2792 O.2       5 UNK        -0.5012 
     39 N          24.3265  -28.1045  -41.0105 N.am      6 UNK        -0.4439 
     40 CA         24.0192  -29.4812  -41.4014 C.3       6 UNK         0.0297 
     41 CB         22.8704  -29.4707  -42.4229 C.3       6 UNK        -0.2006 
     42 C          23.7130  -30.3612  -40.1755 C.2       6 UNK         0.4892 
     43 O          22.5593  -30.7140  -39.9300 O.2       6 UNK        -0.5089 
     44 N          24.7656  -30.7079  -39.4242 N.am      7 UNK        -0.4243 
     45 CA         24.7171  -31.5528  -38.2243 C.3       7 UNK         0.0196 
     46 CB         26.0965  -31.5299  -37.5456 C.3       7 UNK        -0.2007 
     47 C          24.2663  -33.0048  -38.4830 C.2       7 UNK         0.5020 
     48 O          23.8916  -33.6957  -37.5358 O.2       7 UNK        -0.5147 
     49 N          24.3085  -33.4446  -39.7482 N.am      8 UNK        -0.4734 
     50 CA         23.8497  -34.7595  -40.2014 C.3       8 UNK         0.0238 
     51 CB         24.4107  -35.0225  -41.6090 C.3       8 UNK        -0.1912 
     52 C          22.3175  -34.9273  -40.1956 C.2       8 UNK         0.5038 
     53 O          21.8523  -36.0678  -40.2276 O.2       8 UNK        -0.5046 
     54 N          21.5637  -33.8181  -40.1791 N.am      9 UNK        -0.4200 
     55 CA         20.0933  -33.8074  -40.1301 C.3       9 UNK         0.0839 
     56 C          19.5381  -34.4007  -38.8065 C.2       9 UNK         0.5513 
     57 N          18.4493  -35.1547  -38.8737 N.am      9 UNK        -0.7519 
     58 O          20.0543  -34.1446  -37.7209 O.2       9 UNK        -0.4960 
     59 C59        19.5227  -32.3860  -40.3605 C.3       10 UNK        -0.0876 
     60 S60        19.9816  -31.6981  -41.9854 S.3       10 UNK        -0.2414 
     61 C61        18.4127  -31.8247  -42.9083 C.3       10 UNK         0.0169 
     62 H62        19.8709  -27.6747  -41.7396 H         1 UNK         0.0903 
     63 H63        18.7372  -29.0098  -41.5364 H         1 UNK         0.0903 
     64 H64        19.3958  -28.6319  -43.1360 H         1 UNK         0.0903 
     65 H65        17.2576  -28.2722  -44.0988 H         1 UNK         0.3096 
     66 H66        15.4158  -26.3892  -42.9454 H         1 UNK         0.1121 
     67 H67        14.0551  -26.6955  -44.9041 H         1 UNK         0.0849 
     68 H68        14.6030  -28.2393  -44.3429 H         1 UNK         0.0849 
     69 H69        14.9086  -29.9433  -45.9622 H         1 UNK         0.0865 
     70 H70        15.6610  -29.8344  -47.5280 H         1 UNK         0.0865 
     71 H71        16.2500  -30.8165  -44.1702 H         1 UNK         0.1346 
     72 H72        20.5102  -31.1332  -44.6073 H         1 UNK         0.1412 
     73 H73        18.1984  -29.1199  -47.5914 H         1 UNK         0.1426 
     74 H74        20.6442  -30.2699  -47.9597 H         1 UNK         0.0716 
     75 H75        21.6239  -30.2981  -46.5153 H         1 UNK         0.0716 
     76 H76        21.1581  -28.1391  -44.7747 H         1 UNK         0.0695 
     77 H77        22.7515  -27.8951  -45.4575 H         1 UNK         0.0695 
     78 H78        22.1464  -25.5490  -46.0769 H         1 UNK         0.0983 
     79 H79        19.5389  -26.2308  -44.8735 H         1 UNK         0.3095 
     80 H80        18.1189  -23.2894  -45.0517 H         1 UNK         0.0454 
     81 H81        16.6696  -23.5158  -47.0816 H         1 UNK         0.0851 
     82 H82        18.2515  -22.8910  -47.5141 H         1 UNK         0.0851 
     83 H83        17.8620  -24.5774  -47.8288 H         1 UNK         0.0851 
     84 H84        17.8263  -26.2004  -45.5172 H         1 UNK         0.2976 
     85 H85        23.2580  -24.1570  -44.8131 H         1 UNK         0.3116 
     86 H86        22.9726  -23.9031  -41.9820 H         1 UNK         0.0646 
     87 H87        25.1697  -22.8837  -43.8668 H         1 UNK         0.0847 
     88 H88        24.9139  -22.3455  -42.2138 H         1 UNK         0.0847 
     89 H89        23.6942  -22.0186  -43.4333 H         1 UNK         0.0847 
     90 H90        24.0411  -24.8039  -40.3391 H         1 UNK         0.3040 
     91 H91        25.2597  -26.1373  -39.0706 H         1 UNK         0.1015 
     92 H92        27.1265  -24.6469  -39.8396 H         1 UNK         0.0786 
     93 H93        27.5083  -25.7951  -41.1222 H         1 UNK         0.0786 
     94 H94        27.6884  -26.2593  -39.4378 H         1 UNK         0.0786 
     95 H95        23.5936  -27.4213  -41.1474 H         1 UNK         0.3172 
     96 H96        24.8926  -29.9047  -41.9020 H         1 UNK         0.0595 
     97 H97        23.1344  -28.8843  -43.3013 H         1 UNK         0.0839 
     98 H98        21.9551  -29.0531  -42.0025 H         1 UNK         0.0839 
     99 H99        22.6430  -30.4808  -42.7649 H         1 UNK         0.0839 
    100 H100       25.6651  -30.3090  -39.6714 H         1 UNK         0.2998 
    101 H101       23.9900  -31.1108  -37.5398 H         1 UNK         0.0822 
    102 H102       26.8704  -31.9449  -38.1927 H         1 UNK         0.0787 
    103 H103       26.3908  -30.5148  -37.2779 H         1 UNK         0.0787 
    104 H104       26.0906  -32.1168  -36.6259 H         1 UNK         0.0787 
    105 H105       24.6440  -32.8090  -40.4571 H         1 UNK         0.3055 
    106 H106       24.2560  -35.5134  -39.5231 H         1 UNK         0.1106 
    107 H107       25.5003  -34.9874  -41.6164 H         1 UNK         0.0828 
    108 H108       24.1193  -36.0111  -41.9672 H         1 UNK         0.0828 
    109 H109       24.0441  -34.2936  -42.3330 H         1 UNK         0.0828 
    110 H110       22.0150  -32.9131  -40.1371 H         1 UNK         0.2931 
    111 H111       19.7463  -34.4395  -40.9504 H         1 UNK         0.0412 
    112 H112       18.0628  -35.5352  -38.0235 H         1 UNK         0.3472 
    113 H113       18.0132  -35.3637  -39.7587 H         1 UNK         0.3472 
    114 H114       19.8878  -31.7027  -39.5910 H         1 UNK         0.0970 
    115 H115       18.4353  -32.3878  -40.2661 H         1 UNK         0.0970 
    116 H116       18.2064  -32.8760  -43.1121 H         1 UNK         0.0612 
    117 H117       17.6078  -31.4626  -42.2668 H         1 UNK         0.0612 
@<TRIPOS>BOND
     1    1    2 1    
     2    1   62 1    
     3    1   63 1    
     4    1   64 1    
     5    2    3 2    
     6    2    4 am   BACKBONE|DICT|INTERRES
     7    4    5 1    
     8    4   65 1    
     9    5    6 1    
    10    5   25 1    
    11    5   66 1    
    12    6    7 1    
    13    6   67 1    
    14    6   68 1    
    15    7    8 1    
    16    8    9 1    
    17    8   69 1    
    18    8   70 1    
    19    9   10 ar   
    20    9   14 ar   
    21   10   11 ar   
    22   10   71 1    
    23   11   12 ar   
    24   11   61 1    
    25   12   13 ar   
    26   12   72 1    
    27   13   14 ar   
    28   13   15 1    
    29   14   73 1    
    30   15   16 1    
    31   15   74 1    
    32   15   75 1    
    33   16   17 1    
    34   17   18 1    
    35   17   76 1    
    36   17   77 1    
    37   18   19 1    
    38   18   27 1    
    39   18   78 1    
    40   19   20 am   BACKBONE|DICT|INTERRES
    41   19   79 1    
    42   20   21 2    
    43   20   22 1    
    44   22   23 1    
    45   22   24 1    
    46   22   80 1    
    47   23   81 1    
    48   23   82 1    
    49   23   83 1    
    50   24   25 am   BACKBONE|DICT|INTERRES
    51   24   84 1    
    52   25   26 2    
    53   27   28 2    
    54   27   29 am   BACKBONE|DICT|INTERRES
    55   29   30 1    
    56   29   85 1    
    57   30   31 1    
    58   30   32 1    
    59   30   86 1    
    60   31   87 1    
    61   31   88 1    
    62   31   89 1    
    63   32   33 2    
    64   32   34 am   BACKBONE|DICT|INTERRES
    65   34   35 1    
    66   34   90 1    
    67   35   36 1    
    68   35   37 1    
    69   35   91 1    
    70   36   92 1    
    71   36   93 1    
    72   36   94 1    
    73   37   38 2    
    74   37   39 am   BACKBONE|DICT|INTERRES
    75   39   40 1    
    76   39   95 1    
    77   40   41 1    
    78   40   42 1    
    79   40   96 1    
    80   41   97 1    
    81   41   98 1    
    82   41   99 1    
    83   42   43 2    
    84   42   44 am   BACKBONE|DICT|INTERRES
    85   44   45 1    
    86   44  100 1    
    87   45   46 1    
    88   45   47 1    
    89   45  101 1    
    90   46  102 1    
    91   46  103 1    
    92   46  104 1    
    93   47   48 2    
    94   47   49 am   BACKBONE|DICT|INTERRES
    95   49   50 1    
    96   49  105 1    
    97   50   51 1    
    98   50   52 1    
    99   50  106 1    
   100   51  107 1    
   101   51  108 1    
   102   51  109 1    
   103   52   53 2    
   104   52   54 am   BACKBONE|DICT|INTERRES
   105   54   55 1    
   106   54  110 1    
   107   55   56 1    
   108   55   59 1    
   109   55  111 1    
   110   56   57 am   BACKBONE|DICT|INTERRES
   111   56   58 2    
   112   57  112 1    
   113   57  113 1    
   114   59   60 1    
   115   59  114 1    
   116   59  115 1    
   117   60   61 1    
   118   61  116 1    
   119   61  117 1    
@<TRIPOS>SUBSTRUCTURE
     1 UNK         1 GROUP             0       ****    0 ROOT    
