@<TRIPOS>MOLECULE
3R8
117   119    1
SMALL
USER_CHARGES


@<TRIPOS>ATOM
      1 CA         13.5461  -25.9481  -40.5867 C.3       0 UNK        -0.2013 
      2 C          14.3720  -25.7593  -41.8503 C.2       0 UNK         0.4866 
      3 O          14.9557  -24.6933  -42.0460 O.2       0 UNK        -0.5176 
      4 N          14.4234  -26.7851  -42.7111 N.am      1 UNK        -0.4884 
      5 CA         15.1883  -26.7849  -43.9661 C.3       1 UNK         0.0853 
      6 C6         14.7193  -27.9300  -44.9007 C.3       10 UNK        -0.0849 
      7 S7         15.1372  -27.6315  -46.6521 S.3       10 UNK        -0.2776 
      8 C8         15.9720  -29.1836  -47.1211 C.3       10 UNK         0.0316 
      9 C9         17.4057  -29.2916  -46.6089 C.ar      10 UNK        -0.0863 
     10 C10        17.7734  -30.3344  -45.7526 C.ar      10 UNK        -0.1009 
     11 C11        19.1092  -30.5106  -45.3751 C.ar      10 UNK        -0.0712 
     12 C12        20.0805  -29.6133  -45.8337 C.ar      10 UNK        -0.0894 
     13 C13        19.7265  -28.5659  -46.6916 C.ar      10 UNK        -0.0745 
     14 C14        18.3884  -28.4099  -47.0705 C.ar      10 UNK        -0.0972 
     15 C15        20.7916  -27.6578  -47.2941 C.3       10 UNK         0.0209 
     16 S16        20.8684  -26.0249  -46.4915 S.3       10 UNK        -0.2568 
     17 C17        22.0734  -26.2998  -45.1499 C.3       10 UNK        -0.0983 
     18 CA         21.4765  -26.0013  -43.7543 C.3       3 UNK         0.0876 
     19 N          20.3706  -26.9048  -43.4478 N.am      3 UNK        -0.4424 
     20 C          19.5234  -26.7774  -42.4222 C.2       2 UNK         0.4918 
     21 O          19.5307  -25.8417  -41.6193 O.2       2 UNK        -0.4875 
     22 CA         18.4852  -27.9016  -42.2851 C.3       2 UNK         0.0481 
     23 CB         18.4974  -28.4900  -40.8635 C.3       2 UNK        -0.1831 
     24 N          17.1168  -27.5195  -42.6401 N.am      2 UNK        -0.4498 
     25 C          16.7127  -26.8497  -43.7324 C.2       1 UNK         0.5027 
     26 O          17.4648  -26.3119  -44.5444 O.2       1 UNK        -0.4969 
     27 C          22.5728  -26.1063  -42.6783 C.2       3 UNK         0.5005 
     28 O          22.8691  -27.2117  -42.2208 O.2       3 UNK        -0.5279 
     29 N          23.2033  -24.9721  -42.3405 N.am      4 UNK        -0.4463 
     30 CA         24.2802  -24.8741  -41.3439 C.3       4 UNK         0.0283 
     31 CB         24.6203  -23.3929  -41.1112 C.3       4 UNK        -0.1875 
     32 C          25.5538  -25.6674  -41.6986 C.2       4 UNK         0.4949 
     33 O          26.3355  -25.9867  -40.8031 O.2       4 UNK        -0.5039 
     34 N          25.7364  -25.9756  -42.9896 N.am      5 UNK        -0.4663 
     35 CA         26.8082  -26.8284  -43.5040 C.3       5 UNK         0.0242 
     36 CB         26.9544  -26.5819  -45.0149 C.3       5 UNK        -0.1982 
     37 C          26.5898  -28.3282  -43.2245 C.2       5 UNK         0.5017 
     38 O          27.5593  -29.0854  -43.2909 O.2       5 UNK        -0.5012 
     39 N          25.3462  -28.7416  -42.9382 N.am      6 UNK        -0.4439 
     40 CA         24.9931  -30.1209  -42.6063 C.3       6 UNK         0.0297 
     41 CB         23.5848  -30.4275  -43.1478 C.3       6 UNK        -0.2006 
     42 C          25.0366  -30.3176  -41.0854 C.2       6 UNK         0.4892 
     43 O          24.7191  -29.3936  -40.3326 O.2       6 UNK        -0.5089 
     44 N          25.3657  -31.5407  -40.6524 N.am      7 UNK        -0.4243 
     45 CA         25.3609  -31.9628  -39.2478 C.3       7 UNK         0.0196 
     46 CB         26.3130  -33.1625  -39.0837 C.3       7 UNK        -0.2007 
     47 C          23.9277  -32.2750  -38.7768 C.2       7 UNK         0.5020 
     48 O          23.6087  -33.4303  -38.4914 O.2       7 UNK        -0.5147 
     49 N          23.0682  -31.2445  -38.7827 N.am      8 UNK        -0.4734 
     50 CA         21.6256  -31.2779  -38.4876 C.3       8 UNK         0.0238 
     51 CB         21.3894  -31.5488  -36.9866 C.3       8 UNK        -0.1912 
     52 C          20.8362  -32.2470  -39.3956 C.2       8 UNK         0.5038 
     53 O          19.8273  -32.8083  -38.9650 O.2       8 UNK        -0.5046 
     54 N          21.3357  -32.4372  -40.6250 N.am      9 UNK        -0.4200 
     55 CA         20.8762  -33.4167  -41.6240 C.3       9 UNK         0.0839 
     56 C          21.1177  -34.9063  -41.2263 C.2       9 UNK         0.5513 
     57 N          21.9445  -35.2095  -40.2316 N.am      9 UNK        -0.7519 
     58 O          20.5734  -35.8118  -41.8532 O.2       9 UNK        -0.4960 
     59 C59        19.4270  -33.1581  -42.1265 C.3       10 UNK        -0.0876 
     60 S60        19.1854  -31.4697  -42.7741 S.3       10 UNK        -0.2414 
     61 C61        19.5048  -31.7230  -44.5433 C.3       10 UNK         0.0169 
     62 H62        12.7565  -25.1987  -40.5395 H         1 UNK         0.0903 
     63 H63        13.0811  -26.9329  -40.5450 H         1 UNK         0.0903 
     64 H64        14.1772  -25.8337  -39.7057 H         1 UNK         0.0903 
     65 H65        13.9096  -27.6308  -42.5045 H         1 UNK         0.3096 
     66 H66        14.9843  -25.8334  -44.4637 H         1 UNK         0.1121 
     67 H67        15.1131  -28.8939  -44.5716 H         1 UNK         0.0849 
     68 H68        13.6329  -28.0241  -44.8565 H         1 UNK         0.0849 
     69 H69        15.3705  -30.0306  -46.7872 H         1 UNK         0.0865 
     70 H70        15.9923  -29.2457  -48.2101 H         1 UNK         0.0865 
     71 H71        17.0283  -31.0403  -45.4117 H         1 UNK         0.1346 
     72 H72        21.1171  -29.7598  -45.5621 H         1 UNK         0.1412 
     73 H73        18.1140  -27.6143  -47.7499 H         1 UNK         0.1426 
     74 H74        21.7719  -28.1361  -47.2711 H         1 UNK         0.0716 
     75 H75        20.5661  -27.5054  -48.3506 H         1 UNK         0.0716 
     76 H76        22.4558  -27.3217  -45.1925 H         1 UNK         0.0695 
     77 H77        22.9271  -25.6491  -45.3492 H         1 UNK         0.0695 
     78 H78        21.0817  -24.9828  -43.7489 H         1 UNK         0.0983 
     79 H79        20.2495  -27.6809  -44.0814 H         1 UNK         0.3095 
     80 H80        18.7624  -28.6938  -42.9796 H         1 UNK         0.0454 
     81 H81        19.5035  -28.8045  -40.5826 H         1 UNK         0.0851 
     82 H82        18.1630  -27.7629  -40.1225 H         1 UNK         0.0851 
     83 H83        17.8556  -29.3679  -40.7889 H         1 UNK         0.0851 
     84 H84        16.3924  -27.8706  -42.0319 H         1 UNK         0.2976 
     85 H85        22.9142  -24.1060  -42.7738 H         1 UNK         0.3116 
     86 H86        23.8980  -25.2874  -40.4080 H         1 UNK         0.0646 
     87 H87        25.3962  -23.2851  -40.3518 H         1 UNK         0.0847 
     88 H88        23.7516  -22.8341  -40.7625 H         1 UNK         0.0847 
     89 H89        24.9874  -22.9145  -42.0201 H         1 UNK         0.0847 
     90 H90        25.0528  -25.6498  -43.6564 H         1 UNK         0.3040 
     91 H91        27.7430  -26.5409  -43.0170 H         1 UNK         0.1015 
     92 H92        27.1802  -25.5366  -45.2272 H         1 UNK         0.0786 
     93 H93        26.0465  -26.8480  -45.5580 H         1 UNK         0.0786 
     94 H94        27.7686  -27.1774  -45.4308 H         1 UNK         0.0786 
     95 H95        24.6164  -28.0525  -42.7804 H         1 UNK         0.3172 
     96 H96        25.6982  -30.8088  -43.0780 H         1 UNK         0.0595 
     97 H97        23.3297  -31.4773  -43.0017 H         1 UNK         0.0839 
     98 H98        23.5192  -30.2275  -44.2174 H         1 UNK         0.0839 
     99 H99        22.8167  -29.8333  -42.6506 H         1 UNK         0.0839 
    100 H100       25.5858  -32.2542  -41.3330 H         1 UNK         0.2998 
    101 H101       25.7409  -31.1489  -38.6260 H         1 UNK         0.0822 
    102 H102       27.3319  -32.9021  -39.3712 H         1 UNK         0.0787 
    103 H103       26.3460  -33.4945  -38.0450 H         1 UNK         0.0787 
    104 H104       26.0008  -34.0148  -39.6887 H         1 UNK         0.0787 
    105 H105       23.4380  -30.3499  -39.0953 H         1 UNK         0.3055 
    106 H106       21.2402  -30.2813  -38.7097 H         1 UNK         0.1106 
    107 H107       20.3343  -31.4458  -36.7299 H         1 UNK         0.0828 
    108 H108       21.6950  -32.5571  -36.7051 H         1 UNK         0.0828 
    109 H109       21.9416  -30.8447  -36.3643 H         1 UNK         0.0828 
    110 H110       22.1735  -31.9319  -40.8665 H         1 UNK         0.2931 
    111 H111       21.5333  -33.2646  -42.4808 H         1 UNK         0.0412 
    112 H112       22.0944  -36.1787  -40.0006 H         1 UNK         0.3472 
    113 H113       22.4150  -34.4895  -39.6932 H         1 UNK         0.3472 
    114 H114       18.7107  -33.3190  -41.3197 H         1 UNK         0.0970 
    115 H115       19.1546  -33.8728  -42.9049 H         1 UNK         0.0970 
    116 H116       20.5611  -31.9575  -44.6841 H         1 UNK         0.0612 
    117 H117       18.9468  -32.5927  -44.8936 H         1 UNK         0.0612 
@<TRIPOS>BOND
     1    1    2 1    
     2    1   62 1    
     3    1   63 1    
     4    1   64 1    
     5    2    3 2    
     6    2    4 am   BACKBONE|DICT|INTERRES
     7    4    5 1    
     8    4   65 1    
     9    5    6 1    
    10    5   25 1    
    11    5   66 1    
    12    6    7 1    
    13    6   67 1    
    14    6   68 1    
    15    7    8 1    
    16    8    9 1    
    17    8   69 1    
    18    8   70 1    
    19    9   10 ar   
    20    9   14 ar   
    21   10   11 ar   
    22   10   71 1    
    23   11   12 ar   
    24   11   61 1    
    25   12   13 ar   
    26   12   72 1    
    27   13   14 ar   
    28   13   15 1    
    29   14   73 1    
    30   15   16 1    
    31   15   74 1    
    32   15   75 1    
    33   16   17 1    
    34   17   18 1    
    35   17   76 1    
    36   17   77 1    
    37   18   19 1    
    38   18   27 1    
    39   18   78 1    
    40   19   20 am   BACKBONE|DICT|INTERRES
    41   19   79 1    
    42   20   21 2    
    43   20   22 1    
    44   22   23 1    
    45   22   24 1    
    46   22   80 1    
    47   23   81 1    
    48   23   82 1    
    49   23   83 1    
    50   24   25 am   BACKBONE|DICT|INTERRES
    51   24   84 1    
    52   25   26 2    
    53   27   28 2    
    54   27   29 am   BACKBONE|DICT|INTERRES
    55   29   30 1    
    56   29   85 1    
    57   30   31 1    
    58   30   32 1    
    59   30   86 1    
    60   31   87 1    
    61   31   88 1    
    62   31   89 1    
    63   32   33 2    
    64   32   34 am   BACKBONE|DICT|INTERRES
    65   34   35 1    
    66   34   90 1    
    67   35   36 1    
    68   35   37 1    
    69   35   91 1    
    70   36   92 1    
    71   36   93 1    
    72   36   94 1    
    73   37   38 2    
    74   37   39 am   BACKBONE|DICT|INTERRES
    75   39   40 1    
    76   39   95 1    
    77   40   41 1    
    78   40   42 1    
    79   40   96 1    
    80   41   97 1    
    81   41   98 1    
    82   41   99 1    
    83   42   43 2    
    84   42   44 am   BACKBONE|DICT|INTERRES
    85   44   45 1    
    86   44  100 1    
    87   45   46 1    
    88   45   47 1    
    89   45  101 1    
    90   46  102 1    
    91   46  103 1    
    92   46  104 1    
    93   47   48 2    
    94   47   49 am   BACKBONE|DICT|INTERRES
    95   49   50 1    
    96   49  105 1    
    97   50   51 1    
    98   50   52 1    
    99   50  106 1    
   100   51  107 1    
   101   51  108 1    
   102   51  109 1    
   103   52   53 2    
   104   52   54 am   BACKBONE|DICT|INTERRES
   105   54   55 1    
   106   54  110 1    
   107   55   56 1    
   108   55   59 1    
   109   55  111 1    
   110   56   57 am   BACKBONE|DICT|INTERRES
   111   56   58 2    
   112   57  112 1    
   113   57  113 1    
   114   59   60 1    
   115   59  114 1    
   116   59  115 1    
   117   60   61 1    
   118   61  116 1    
   119   61  117 1    
@<TRIPOS>SUBSTRUCTURE
     1 UNK         1 GROUP             0       ****    0 ROOT    
