@<TRIPOS>MOLECULE
3R8
117   119    1
SMALL
USER_CHARGES


@<TRIPOS>ATOM
      1 CA         16.0090  -22.0857  -45.1974 C.3       0 UNK        -0.2013 
      2 C          16.6322  -23.3777  -45.7051 C.2       0 UNK         0.4866 
      3 O          17.4053  -23.3480  -46.6635 O.2       0 UNK        -0.5176 
      4 N          16.2954  -24.5107  -45.0754 N.am      1 UNK        -0.4884 
      5 CA         16.8544  -25.8333  -45.3779 C.3       1 UNK         0.0853 
      6 C6         15.8486  -26.9583  -45.0189 C.3       10 UNK        -0.0849 
      7 S7         16.0264  -28.4181  -46.1041 S.3       10 UNK        -0.2776 
      8 C8         15.5417  -29.7823  -44.9994 C.3       10 UNK         0.0316 
      9 C9         16.6198  -30.0848  -43.9703 C.ar      10 UNK        -0.0863 
     10 C10        17.7189  -30.8761  -44.3120 C.ar      10 UNK        -0.1009 
     11 C11        18.7129  -31.1552  -43.3690 C.ar      10 UNK        -0.0712 
     12 C12        18.6075  -30.6264  -42.0783 C.ar      10 UNK        -0.0894 
     13 C13        17.5131  -29.8308  -41.7251 C.ar      10 UNK        -0.0745 
     14 C14        16.5143  -29.5833  -42.6718 C.ar      10 UNK        -0.0972 
     15 C15        17.3844  -29.2588  -40.3188 C.3       10 UNK         0.0209 
     16 S16        17.0792  -27.4593  -40.3390 S.3       10 UNK        -0.2568 
     17 C17        18.7016  -26.7111  -39.9719 C.3       10 UNK        -0.0983 
     18 CA         19.9184  -27.2369  -40.7753 C.3       3 UNK         0.0876 
     19 N          19.6992  -27.2390  -42.2269 N.am      3 UNK        -0.4424 
     20 C          20.5500  -27.7482  -43.1290 C.2       2 UNK         0.4918 
     21 O          21.5740  -28.3528  -42.8064 O.2       2 UNK        -0.4875 
     22 CA         20.2661  -27.5010  -44.6285 C.3       2 UNK         0.0481 
     23 CB         20.7344  -28.6757  -45.5062 C.3       2 UNK        -0.1831 
     24 N          18.8826  -27.1622  -44.9883 N.am      2 UNK        -0.4498 
     25 C          18.2378  -26.0218  -44.7101 C.2       1 UNK         0.5027 
     26 O          18.6963  -25.1558  -43.9593 O.2       1 UNK        -0.4969 
     27 C          21.1674  -26.4131  -40.3954 C.2       3 UNK         0.5005 
     28 O          21.8958  -26.7973  -39.4802 O.2       3 UNK        -0.5279 
     29 N          21.4051  -25.3156  -41.1329 N.am      4 UNK        -0.4463 
     30 CA         22.5420  -24.4034  -40.9743 C.3       4 UNK         0.0283 
     31 CB         22.3531  -23.1960  -41.9063 C.3       4 UNK        -0.1875 
     32 C          23.9133  -25.0579  -41.2196 C.2       4 UNK         0.4949 
     33 O          24.9061  -24.5995  -40.6558 O.2       4 UNK        -0.5039 
     34 N          23.9487  -26.1409  -42.0080 N.am      5 UNK        -0.4663 
     35 CA         25.1336  -26.9646  -42.2636 C.3       5 UNK         0.0242 
     36 CB         25.0203  -27.5635  -43.6788 C.3       5 UNK        -0.1982 
     37 C          25.3118  -28.0490  -41.1810 C.2       5 UNK         0.5017 
     38 O          25.6221  -29.1938  -41.5099 O.2       5 UNK        -0.5012 
     39 N          25.0565  -27.6893  -39.9124 N.am      6 UNK        -0.4439 
     40 CA         25.0674  -28.5421  -38.7127 C.3       6 UNK         0.0297 
     41 CB         26.5127  -28.9569  -38.3654 C.3       6 UNK        -0.2006 
     42 C          24.1149  -29.7556  -38.8002 C.2       6 UNK         0.4892 
     43 O          24.3584  -30.7721  -38.1478 O.2       6 UNK        -0.5089 
     44 N          23.0676  -29.6291  -39.6296 N.am      7 UNK        -0.4243 
     45 CA         22.1160  -30.6638  -40.0454 C.3       7 UNK         0.0196 
     46 CB         21.1644  -31.0248  -38.8861 C.3       7 UNK        -0.2007 
     47 C          22.7754  -31.9001  -40.6947 C.2       7 UNK         0.5020 
     48 O          22.2269  -33.0000  -40.6072 O.2       7 UNK        -0.5147 
     49 N          23.9319  -31.7150  -41.3488 N.am      8 UNK        -0.4734 
     50 CA         24.6765  -32.7680  -42.0425 C.3       8 UNK         0.0238 
     51 CB         26.1589  -32.3618  -42.1361 C.3       8 UNK        -0.1912 
     52 C          24.0572  -33.0616  -43.4203 C.2       8 UNK         0.5038 
     53 O          24.6285  -32.6888  -44.4472 O.2       8 UNK        -0.5046 
     54 N          22.8791  -33.6955  -43.4079 N.am      9 UNK        -0.4200 
     55 CA         22.1228  -34.1220  -44.5927 C.3       9 UNK         0.0839 
     56 C          22.9108  -35.1156  -45.4918 C.2       9 UNK         0.5513 
     57 N          22.7560  -35.0214  -46.8053 N.am      9 UNK        -0.7519 
     58 O          23.6178  -35.9972  -45.0072 O.2       9 UNK        -0.4960 
     59 C59        20.7530  -34.7387  -44.1993 C.3       10 UNK        -0.0876 
     60 S60        19.6684  -33.7251  -43.1299 S.3       10 UNK        -0.2414 
     61 C61        19.8953  -32.0309  -43.7509 C.3       10 UNK         0.0169 
     62 H62        16.7878  -21.3993  -44.8662 H         1 UNK         0.0903 
     63 H63        15.4447  -21.6024  -45.9945 H         1 UNK         0.0903 
     64 H64        15.3325  -22.2596  -44.3608 H         1 UNK         0.0903 
     65 H65        15.6869  -24.4650  -44.2703 H         1 UNK         0.3096 
     66 H66        17.0281  -25.8677  -46.4564 H         1 UNK         0.1121 
     67 H67        15.9260  -27.2323  -43.9667 H         1 UNK         0.0849 
     68 H68        14.8247  -26.6050  -45.1537 H         1 UNK         0.0849 
     69 H69        15.3542  -30.6732  -45.6007 H         1 UNK         0.0865 
     70 H70        14.5948  -29.5420  -44.5130 H         1 UNK         0.0865 
     71 H71        17.7976  -31.2769  -45.3135 H         1 UNK         0.1346 
     72 H72        19.3714  -30.8487  -41.3489 H         1 UNK         0.1412 
     73 H73        15.6566  -28.9853  -42.3957 H         1 UNK         0.1426 
     74 H74        18.2585  -29.4874  -39.7080 H         1 UNK         0.0716 
     75 H75        16.5391  -29.7448  -39.8299 H         1 UNK         0.0716 
     76 H76        18.8818  -26.8404  -38.9027 H         1 UNK         0.0695 
     77 H77        18.5849  -25.6361  -40.1250 H         1 UNK         0.0695 
     78 H78        20.1141  -28.2664  -40.4742 H         1 UNK         0.0983 
     79 H79        18.9039  -26.7146  -42.5670 H         1 UNK         0.3095 
     80 H80        20.8807  -26.6401  -44.8982 H         1 UNK         0.0454 
     81 H81        20.6519  -28.4355  -46.5661 H         1 UNK         0.0851 
     82 H82        20.1467  -29.5731  -45.3215 H         1 UNK         0.0851 
     83 H83        21.7798  -28.9253  -45.3191 H         1 UNK         0.0851 
     84 H84        18.3890  -27.8496  -45.5431 H         1 UNK         0.2976 
     85 H85        20.7453  -25.0890  -41.8646 H         1 UNK         0.3116 
     86 H86        22.5335  -24.0450  -39.9428 H         1 UNK         0.0646 
     87 H87        23.1715  -22.4834  -41.7929 H         1 UNK         0.0847 
     88 H88        21.4294  -22.6615  -41.6838 H         1 UNK         0.0847 
     89 H89        22.3250  -23.4948  -42.9550 H         1 UNK         0.0847 
     90 H90        23.0773  -26.4896  -42.3834 H         1 UNK         0.3040 
     91 H91        26.0269  -26.3364  -42.2360 H         1 UNK         0.1015 
     92 H92        24.8983  -26.7846  -44.4316 H         1 UNK         0.0786 
     93 H93        24.1734  -28.2462  -43.7613 H         1 UNK         0.0786 
     94 H94        25.9180  -28.1255  -43.9401 H         1 UNK         0.0786 
     95 H95        24.7889  -26.7249  -39.7585 H         1 UNK         0.3172 
     96 H96        24.6921  -27.9227  -37.8969 H         1 UNK         0.0595 
     97 H97        26.9287  -29.6321  -39.1141 H         1 UNK         0.0839 
     98 H98        26.5542  -29.4719  -37.4049 H         1 UNK         0.0839 
     99 H99        27.1691  -28.0898  -38.2936 H         1 UNK         0.0839 
    100 H100       22.9449  -28.7231  -40.0645 H         1 UNK         0.2998 
    101 H101       21.5204  -30.2110  -40.8370 H         1 UNK         0.0822 
    102 H102       21.6947  -31.5178  -38.0709 H         1 UNK         0.0787 
    103 H103       20.6782  -30.1370  -38.4816 H         1 UNK         0.0787 
    104 H104       20.3767  -31.7026  -39.2172 H         1 UNK         0.0787 
    105 H105       24.3368  -30.7840  -41.3853 H         1 UNK         0.3055 
    106 H106       24.6255  -33.6871  -41.4539 H         1 UNK         0.1106 
    107 H107       26.7508  -33.1533  -42.5973 H         1 UNK         0.0828 
    108 H108       26.2965  -31.4618  -42.7366 H         1 UNK         0.0828 
    109 H109       26.5815  -32.1714  -41.1494 H         1 UNK         0.0828 
    110 H110       22.4566  -33.8947  -42.5084 H         1 UNK         0.2931 
    111 H111       21.9456  -33.2241  -45.1862 H         1 UNK         0.0412 
    112 H112       22.1701  -34.3091  -47.2130 H         1 UNK         0.3472 
    113 H113       23.2453  -35.6688  -47.4040 H         1 UNK         0.3472 
    114 H114       20.1830  -34.9756  -45.0999 H         1 UNK         0.0970 
    115 H115       20.9058  -35.6920  -43.6893 H         1 UNK         0.0970 
    116 H116       20.8189  -31.6094  -43.3511 H         1 UNK         0.0612 
    117 H117       20.0002  -32.0523  -44.8362 H         1 UNK         0.0612 
@<TRIPOS>BOND
     1    1    2 1    
     2    1   62 1    
     3    1   63 1    
     4    1   64 1    
     5    2    3 2    
     6    2    4 am   BACKBONE|DICT|INTERRES
     7    4    5 1    
     8    4   65 1    
     9    5    6 1    
    10    5   25 1    
    11    5   66 1    
    12    6    7 1    
    13    6   67 1    
    14    6   68 1    
    15    7    8 1    
    16    8    9 1    
    17    8   69 1    
    18    8   70 1    
    19    9   10 ar   
    20    9   14 ar   
    21   10   11 ar   
    22   10   71 1    
    23   11   12 ar   
    24   11   61 1    
    25   12   13 ar   
    26   12   72 1    
    27   13   14 ar   
    28   13   15 1    
    29   14   73 1    
    30   15   16 1    
    31   15   74 1    
    32   15   75 1    
    33   16   17 1    
    34   17   18 1    
    35   17   76 1    
    36   17   77 1    
    37   18   19 1    
    38   18   27 1    
    39   18   78 1    
    40   19   20 am   BACKBONE|DICT|INTERRES
    41   19   79 1    
    42   20   21 2    
    43   20   22 1    
    44   22   23 1    
    45   22   24 1    
    46   22   80 1    
    47   23   81 1    
    48   23   82 1    
    49   23   83 1    
    50   24   25 am   BACKBONE|DICT|INTERRES
    51   24   84 1    
    52   25   26 2    
    53   27   28 2    
    54   27   29 am   BACKBONE|DICT|INTERRES
    55   29   30 1    
    56   29   85 1    
    57   30   31 1    
    58   30   32 1    
    59   30   86 1    
    60   31   87 1    
    61   31   88 1    
    62   31   89 1    
    63   32   33 2    
    64   32   34 am   BACKBONE|DICT|INTERRES
    65   34   35 1    
    66   34   90 1    
    67   35   36 1    
    68   35   37 1    
    69   35   91 1    
    70   36   92 1    
    71   36   93 1    
    72   36   94 1    
    73   37   38 2    
    74   37   39 am   BACKBONE|DICT|INTERRES
    75   39   40 1    
    76   39   95 1    
    77   40   41 1    
    78   40   42 1    
    79   40   96 1    
    80   41   97 1    
    81   41   98 1    
    82   41   99 1    
    83   42   43 2    
    84   42   44 am   BACKBONE|DICT|INTERRES
    85   44   45 1    
    86   44  100 1    
    87   45   46 1    
    88   45   47 1    
    89   45  101 1    
    90   46  102 1    
    91   46  103 1    
    92   46  104 1    
    93   47   48 2    
    94   47   49 am   BACKBONE|DICT|INTERRES
    95   49   50 1    
    96   49  105 1    
    97   50   51 1    
    98   50   52 1    
    99   50  106 1    
   100   51  107 1    
   101   51  108 1    
   102   51  109 1    
   103   52   53 2    
   104   52   54 am   BACKBONE|DICT|INTERRES
   105   54   55 1    
   106   54  110 1    
   107   55   56 1    
   108   55   59 1    
   109   55  111 1    
   110   56   57 am   BACKBONE|DICT|INTERRES
   111   56   58 2    
   112   57  112 1    
   113   57  113 1    
   114   59   60 1    
   115   59  114 1    
   116   59  115 1    
   117   60   61 1    
   118   61  116 1    
   119   61  117 1    
@<TRIPOS>SUBSTRUCTURE
     1 UNK         1 GROUP             0       ****    0 ROOT    
