@<TRIPOS>MOLECULE
3R8
117   119    1
SMALL
USER_CHARGES


@<TRIPOS>ATOM
      1 CA         13.8105  -22.9924  -44.7796 C.3       0 UNK        -0.2013 
      2 C          15.0073  -23.9061  -44.9934 C.2       0 UNK         0.4866 
      3 O          15.4129  -24.1318  -46.1340 O.2       0 UNK        -0.5176 
      4 N          15.5931  -24.4233  -43.9065 N.am      1 UNK        -0.4884 
      5 CA         16.7270  -25.3595  -43.8954 C.3       1 UNK         0.0853 
      6 C6         16.7685  -26.1827  -42.5797 C.3       10 UNK        -0.0849 
      7 S7         15.2411  -27.1305  -42.2325 S.3       10 UNK        -0.2776 
      8 C8         15.3091  -28.5296  -43.4079 C.3       10 UNK         0.0316 
      9 C9         16.6953  -29.1501  -43.5104 C.ar      10 UNK        -0.0863 
     10 C10        17.2280  -29.8823  -42.4450 C.ar      10 UNK        -0.1009 
     11 C11        18.5305  -30.3833  -42.5177 C.ar      10 UNK        -0.0712 
     12 C12        19.2919  -30.1504  -43.6662 C.ar      10 UNK        -0.0894 
     13 C13        18.7745  -29.4292  -44.7448 C.ar      10 UNK        -0.0745 
     14 C14        17.4610  -28.9499  -44.6629 C.ar      10 UNK        -0.0972 
     15 C15        19.6674  -29.1907  -45.9649 C.3       10 UNK         0.0209 
     16 S16        19.1925  -27.7438  -46.9721 S.3       10 UNK        -0.2568 
     17 C17        20.8022  -27.1405  -47.5973 C.3       10 UNK        -0.0983 
     18 CA         21.3768  -25.9391  -46.7964 C.3       3 UNK         0.0876 
     19 N          20.3370  -24.9574  -46.4750 N.am      3 UNK        -0.4424 
     20 C          20.5290  -23.7252  -45.9912 C.2       2 UNK         0.4918 
     21 O          21.6365  -23.2057  -45.8539 O.2       2 UNK        -0.4875 
     22 CA         19.2675  -22.9459  -45.5721 C.3       2 UNK         0.0481 
     23 CB         18.8375  -21.9829  -46.6897 C.3       2 UNK        -0.1831 
     24 N          18.1226  -23.7883  -45.1971 N.am      2 UNK        -0.4498 
     25 C          18.0800  -24.6558  -44.1749 C.2       1 UNK         0.5027 
     26 O          19.0590  -24.9015  -43.4680 O.2       1 UNK        -0.4969 
     27 C          22.1685  -26.4121  -45.5569 C.2       3 UNK         0.5005 
     28 O          23.3517  -26.7303  -45.6927 O.2       3 UNK        -0.5279 
     29 N          21.5143  -26.4436  -44.3844 N.am      4 UNK        -0.4463 
     30 CA         22.0044  -26.8353  -43.0560 C.3       4 UNK         0.0283 
     31 CB         23.0956  -25.8691  -42.5549 C.3       4 UNK        -0.1875 
     32 C          22.4560  -28.3024  -42.9281 C.2       4 UNK         0.4949 
     33 O          21.9326  -29.0115  -42.0731 O.2       4 UNK        -0.5039 
     34 N          23.4261  -28.7176  -43.7554 N.am      5 UNK        -0.4663 
     35 CA         24.0725  -30.0393  -43.8125 C.3       5 UNK         0.0242 
     36 CB         23.0877  -31.1036  -44.3374 C.3       5 UNK        -0.1982 
     37 C          24.7557  -30.4708  -42.4953 C.2       5 UNK         0.5017 
     38 O          24.8607  -31.6705  -42.2291 O.2       5 UNK        -0.5012 
     39 N          25.2162  -29.4835  -41.7105 N.am      6 UNK        -0.4439 
     40 CA         25.8099  -29.5908  -40.3697 C.3       6 UNK         0.0297 
     41 CB         27.0915  -30.4534  -40.4003 C.3       6 UNK        -0.2006 
     42 C          24.8128  -30.0823  -39.2993 C.2       6 UNK         0.4892 
     43 O          23.6702  -30.4255  -39.6066 O.2       6 UNK        -0.5089 
     44 N          25.2681  -30.1151  -38.0385 N.am      7 UNK        -0.4243 
     45 CA         24.4815  -30.5421  -36.8719 C.3       7 UNK         0.0196 
     46 CB         25.3067  -30.3123  -35.5952 C.3       7 UNK        -0.2007 
     47 C          23.9884  -32.0011  -36.9375 C.2       7 UNK         0.5020 
     48 O          22.9820  -32.3284  -36.3086 O.2       7 UNK        -0.5147 
     49 N          24.6928  -32.8441  -37.7037 N.am      8 UNK        -0.4734 
     50 CA         24.3230  -34.2334  -37.9765 C.3       8 UNK         0.0238 
     51 CB         25.5692  -34.9885  -38.4688 C.3       8 UNK        -0.1912 
     52 C          23.1749  -34.3832  -38.9935 C.2       8 UNK         0.5038 
     53 O          22.5786  -35.4597  -39.0429 O.2       8 UNK        -0.5046 
     54 N          22.8949  -33.3365  -39.7869 N.am      9 UNK        -0.4200 
     55 CA         21.9503  -33.3389  -40.9144 C.3       9 UNK         0.0839 
     56 C          22.3683  -34.3553  -42.0185 C.2       9 UNK         0.5513 
     57 N          23.5380  -34.1710  -42.6154 N.am      9 UNK        -0.7519 
     58 O          21.6634  -35.3148  -42.3228 O.2       9 UNK        -0.4960 
     59 C59        20.4697  -33.4548  -40.4485 C.3       10 UNK        -0.0876 
     60 S60        19.2842  -32.9185  -41.7294 S.3       10 UNK        -0.2414 
     61 C61        19.1403  -31.1467  -41.3514 C.3       10 UNK         0.0169 
     62 H62        12.9362  -23.3950  -45.2904 H         1 UNK         0.0903 
     63 H63        13.5650  -22.8821  -43.7235 H         1 UNK         0.0903 
     64 H64        14.0169  -22.0025  -45.1856 H         1 UNK         0.0903 
     65 H65        15.2246  -24.1908  -42.9947 H         1 UNK         0.3096 
     66 H66        16.5867  -26.0642  -44.7172 H         1 UNK         0.1121 
     67 H67        17.6182  -26.8673  -42.5709 H         1 UNK         0.0849 
     68 H68        16.9344  -25.5147  -41.7325 H         1 UNK         0.0849 
     69 H69        14.5936  -29.2912  -43.0948 H         1 UNK         0.0865 
     70 H70        14.9695  -28.1815  -44.3847 H         1 UNK         0.0865 
     71 H71        16.6380  -30.0358  -41.5517 H         1 UNK         0.1346 
     72 H72        20.3016  -30.5286  -43.7108 H         1 UNK         0.1412 
     73 H73        17.0322  -28.3968  -45.4859 H         1 UNK         0.1426 
     74 H74        19.6547  -30.0800  -46.5962 H         1 UNK         0.0716 
     75 H75        20.6970  -29.0631  -45.6287 H         1 UNK         0.0716 
     76 H76        20.6369  -26.8246  -48.6284 H         1 UNK         0.0695 
     77 H77        21.5160  -27.9644  -47.6630 H         1 UNK         0.0695 
     78 H78        22.1026  -25.4338  -47.4377 H         1 UNK         0.0983 
     79 H79        19.3884  -25.2914  -46.5687 H         1 UNK         0.3095 
     80 H80        19.5333  -22.3515  -44.6957 H         1 UNK         0.0454 
     81 H81        19.6575  -21.3218  -46.9741 H         1 UNK         0.0851 
     82 H82        18.0093  -21.3495  -46.3717 H         1 UNK         0.0851 
     83 H83        18.5250  -22.5194  -47.5865 H         1 UNK         0.0851 
     84 H84        17.2677  -23.6760  -45.7352 H         1 UNK         0.2976 
     85 H85        20.5508  -26.1283  -44.3866 H         1 UNK         0.3116 
     86 H86        21.1454  -26.7193  -42.3925 H         1 UNK         0.0646 
     87 H87        23.9883  -25.8944  -43.1801 H         1 UNK         0.0847 
     88 H88        22.7315  -24.8418  -42.5368 H         1 UNK         0.0847 
     89 H89        23.4021  -26.1211  -41.5389 H         1 UNK         0.0847 
     90 H90        23.7283  -28.0426  -44.4569 H         1 UNK         0.3040 
     91 H91        24.8746  -29.9471  -44.5464 H         1 UNK         0.1015 
     92 H92        23.6147  -32.0179  -44.6122 H         1 UNK         0.0786 
     93 H93        22.5569  -30.7594  -45.2246 H         1 UNK         0.0786 
     94 H94        22.3525  -31.3735  -43.5805 H         1 UNK         0.0786 
     95 H95        25.0396  -28.5420  -42.0296 H         1 UNK         0.3172 
     96 H96        26.0938  -28.5754  -40.0895 H         1 UNK         0.0595 
     97 H97        26.8700  -31.5107  -40.5495 H         1 UNK         0.0839 
     98 H98        27.6517  -30.3700  -39.4688 H         1 UNK         0.0839 
     99 H99        27.7609  -30.1384  -41.2009 H         1 UNK         0.0839 
    100 H100       26.2139  -29.8112  -37.8559 H         1 UNK         0.2998 
    101 H101       23.5942  -29.9070  -36.8253 H         1 UNK         0.0822 
    102 H102       24.7389  -30.5943  -34.7072 H         1 UNK         0.0787 
    103 H103       25.5803  -29.2631  -35.4814 H         1 UNK         0.0787 
    104 H104       26.2242  -30.9023  -35.5958 H         1 UNK         0.0787 
    105 H105       25.5101  -32.4867  -38.1763 H         1 UNK         0.3055 
    106 H106       23.9893  -34.6931  -37.0432 H         1 UNK         0.1106 
    107 H107       26.3724  -34.9543  -37.7324 H         1 UNK         0.0828 
    108 H108       25.3428  -36.0405  -38.6485 H         1 UNK         0.0828 
    109 H109       25.9497  -34.5742  -39.4035 H         1 UNK         0.0828 
    110 H110       23.4150  -32.4739  -39.6680 H         1 UNK         0.2931 
    111 H111       22.0632  -32.3506  -41.3622 H         1 UNK         0.0412 
    112 H112       24.1008  -33.3509  -42.3979 H         1 UNK         0.3472 
    113 H113       23.8424  -34.8193  -43.3235 H         1 UNK         0.3472 
    114 H114       20.2351  -34.4803  -40.1582 H         1 UNK         0.0970 
    115 H115       20.3090  -32.8498  -39.5548 H         1 UNK         0.0970 
    116 H116       18.5448  -31.0188  -40.4463 H         1 UNK         0.0612 
    117 H117       20.1280  -30.7388  -41.1331 H         1 UNK         0.0612 
@<TRIPOS>BOND
     1    1    2 1    
     2    1   62 1    
     3    1   63 1    
     4    1   64 1    
     5    2    3 2    
     6    2    4 am   BACKBONE|DICT|INTERRES
     7    4    5 1    
     8    4   65 1    
     9    5    6 1    
    10    5   25 1    
    11    5   66 1    
    12    6    7 1    
    13    6   67 1    
    14    6   68 1    
    15    7    8 1    
    16    8    9 1    
    17    8   69 1    
    18    8   70 1    
    19    9   10 ar   
    20    9   14 ar   
    21   10   11 ar   
    22   10   71 1    
    23   11   12 ar   
    24   11   61 1    
    25   12   13 ar   
    26   12   72 1    
    27   13   14 ar   
    28   13   15 1    
    29   14   73 1    
    30   15   16 1    
    31   15   74 1    
    32   15   75 1    
    33   16   17 1    
    34   17   18 1    
    35   17   76 1    
    36   17   77 1    
    37   18   19 1    
    38   18   27 1    
    39   18   78 1    
    40   19   20 am   BACKBONE|DICT|INTERRES
    41   19   79 1    
    42   20   21 2    
    43   20   22 1    
    44   22   23 1    
    45   22   24 1    
    46   22   80 1    
    47   23   81 1    
    48   23   82 1    
    49   23   83 1    
    50   24   25 am   BACKBONE|DICT|INTERRES
    51   24   84 1    
    52   25   26 2    
    53   27   28 2    
    54   27   29 am   BACKBONE|DICT|INTERRES
    55   29   30 1    
    56   29   85 1    
    57   30   31 1    
    58   30   32 1    
    59   30   86 1    
    60   31   87 1    
    61   31   88 1    
    62   31   89 1    
    63   32   33 2    
    64   32   34 am   BACKBONE|DICT|INTERRES
    65   34   35 1    
    66   34   90 1    
    67   35   36 1    
    68   35   37 1    
    69   35   91 1    
    70   36   92 1    
    71   36   93 1    
    72   36   94 1    
    73   37   38 2    
    74   37   39 am   BACKBONE|DICT|INTERRES
    75   39   40 1    
    76   39   95 1    
    77   40   41 1    
    78   40   42 1    
    79   40   96 1    
    80   41   97 1    
    81   41   98 1    
    82   41   99 1    
    83   42   43 2    
    84   42   44 am   BACKBONE|DICT|INTERRES
    85   44   45 1    
    86   44  100 1    
    87   45   46 1    
    88   45   47 1    
    89   45  101 1    
    90   46  102 1    
    91   46  103 1    
    92   46  104 1    
    93   47   48 2    
    94   47   49 am   BACKBONE|DICT|INTERRES
    95   49   50 1    
    96   49  105 1    
    97   50   51 1    
    98   50   52 1    
    99   50  106 1    
   100   51  107 1    
   101   51  108 1    
   102   51  109 1    
   103   52   53 2    
   104   52   54 am   BACKBONE|DICT|INTERRES
   105   54   55 1    
   106   54  110 1    
   107   55   56 1    
   108   55   59 1    
   109   55  111 1    
   110   56   57 am   BACKBONE|DICT|INTERRES
   111   56   58 2    
   112   57  112 1    
   113   57  113 1    
   114   59   60 1    
   115   59  114 1    
   116   59  115 1    
   117   60   61 1    
   118   61  116 1    
   119   61  117 1    
@<TRIPOS>SUBSTRUCTURE
     1 UNK         1 GROUP             0       ****    0 ROOT    
