@<TRIPOS>MOLECULE
3R8
117   119    1
SMALL
USER_CHARGES


@<TRIPOS>ATOM
      1 CA         13.8012  -23.4287  -43.7522 C.3       0 UNK        -0.2013 
      2 C          14.7633  -24.1555  -44.6800 C.2       0 UNK         0.4866 
      3 O          15.6262  -23.5202  -45.2858 O.2       0 UNK        -0.5176 
      4 N          14.6204  -25.4827  -44.7980 N.am      1 UNK        -0.4884 
      5 CA         15.4722  -26.3444  -45.6303 C.3       1 UNK         0.0853 
      6 C6         14.7948  -27.7193  -45.8790 C.3       10 UNK        -0.0849 
      7 S7         15.3612  -28.5291  -47.4148 S.3       10 UNK        -0.2776 
      8 C8         15.8684  -30.1816  -46.8297 C.3       10 UNK         0.0316 
      9 C9         17.1731  -30.1534  -46.0434 C.ar      10 UNK        -0.0863 
     10 C10        17.1770  -30.3883  -44.6652 C.ar      10 UNK        -0.1009 
     11 C11        18.3748  -30.3712  -43.9428 C.ar      10 UNK        -0.0712 
     12 C12        19.5773  -30.1171  -44.6116 C.ar      10 UNK        -0.0894 
     13 C13        19.5884  -29.8933  -45.9914 C.ar      10 UNK        -0.0745 
     14 C14        18.3836  -29.9149  -46.7008 C.ar      10 UNK        -0.0972 
     15 C15        20.8981  -29.6484  -46.7274 C.3       10 UNK         0.0209 
     16 S16        21.3397  -27.8814  -46.7767 S.3       10 UNK        -0.2568 
     17 C17        22.3207  -27.6827  -45.2509 C.3       10 UNK        -0.0983 
     18 CA         21.7582  -26.5963  -44.2981 C.3       3 UNK         0.0876 
     19 N          20.4196  -26.9524  -43.8229 N.am      3 UNK        -0.4424 
     20 C          19.4841  -26.1118  -43.3710 C.2       2 UNK         0.4918 
     21 O          19.6347  -24.8914  -43.2829 O.2       2 UNK        -0.4875 
     22 CA         18.1760  -26.7629  -42.8937 C.3       2 UNK         0.0481 
     23 CB         17.8945  -26.4082  -41.4245 C.3       2 UNK        -0.1831 
     24 N          16.9976  -26.4541  -43.7074 N.am      2 UNK        -0.4498 
     25 C          16.8926  -26.5128  -45.0462 C.2       1 UNK         0.5027 
     26 O          17.8362  -26.6973  -45.8134 O.2       1 UNK        -0.4969 
     27 C          22.7103  -26.3204  -43.1109 C.2       3 UNK         0.5005 
     28 O          23.7666  -26.9486  -43.0084 O.2       3 UNK        -0.5279 
     29 N          22.3141  -25.3954  -42.2230 N.am      4 UNK        -0.4463 
     30 CA         22.9656  -25.0314  -40.9609 C.3       4 UNK         0.0283 
     31 CB         24.3061  -24.3048  -41.2135 C.3       4 UNK        -0.1875 
     32 C          23.0854  -26.2476  -40.0242 C.2       4 UNK         0.4949 
     33 O          22.1291  -26.5460  -39.3075 O.2       4 UNK        -0.5039 
     34 N          24.2371  -26.9271  -40.0648 N.am      5 UNK        -0.4663 
     35 CA         24.5259  -28.1560  -39.3276 C.3       5 UNK         0.0242 
     36 CB         25.3220  -27.8106  -38.0549 C.3       5 UNK        -0.1982 
     37 C          25.2474  -29.1937  -40.2076 C.2       5 UNK         0.5017 
     38 O          25.9036  -30.0824  -39.6598 O.2       5 UNK        -0.5012 
     39 N          25.1417  -29.0807  -41.5430 N.am      6 UNK        -0.4439 
     40 CA         25.7610  -30.0027  -42.5028 C.3       6 UNK         0.0297 
     41 CB         25.5502  -29.4912  -43.9355 C.3       6 UNK        -0.2006 
     42 C          25.2044  -31.4266  -42.3470 C.2       6 UNK         0.4892 
     43 O          23.9891  -31.6148  -42.4257 O.2       6 UNK        -0.5089 
     44 N          26.0999  -32.3861  -42.0688 N.am      7 UNK        -0.4243 
     45 CA         25.8052  -33.7850  -41.7180 C.3       7 UNK         0.0196 
     46 CB         25.2615  -34.5492  -42.9443 C.3       7 UNK        -0.2007 
     47 C          24.8904  -33.9181  -40.4792 C.2       7 UNK         0.5020 
     48 O          24.0964  -34.8558  -40.4007 O.2       7 UNK        -0.5147 
     49 N          24.9981  -32.9483  -39.5565 N.am      8 UNK        -0.4734 
     50 CA         24.1642  -32.7215  -38.3684 C.3       8 UNK         0.0238 
     51 CB         24.1982  -33.9300  -37.4084 C.3       8 UNK        -0.1912 
     52 C          22.7240  -32.2609  -38.6780 C.2       8 UNK         0.5038 
     53 O          21.9372  -32.1193  -37.7404 O.2       8 UNK        -0.5046 
     54 N          22.4002  -32.0058  -39.9535 N.am      9 UNK        -0.4200 
     55 CA         21.1203  -31.4533  -40.4029 C.3       9 UNK         0.0839 
     56 C          21.2362  -29.9079  -40.4410 C.2       9 UNK         0.5513 
     57 N          20.9313  -29.2366  -39.3401 N.am      9 UNK        -0.7519 
     58 O          21.6068  -29.3153  -41.4506 O.2       9 UNK        -0.4960 
     59 C59        20.6800  -32.0836  -41.7557 C.3       10 UNK        -0.0876 
     60 S60        18.8662  -32.2377  -41.9184 S.3       10 UNK        -0.2414 
     61 C61        18.3499  -30.5696  -42.4331 C.3       10 UNK         0.0169 
     62 H62        13.2403  -22.6775  -44.3076 H         1 UNK         0.0903 
     63 H63        13.0877  -24.1092  -43.2879 H         1 UNK         0.0903 
     64 H64        14.3535  -22.9243  -42.9598 H         1 UNK         0.0903 
     65 H65        13.8824  -25.9482  -44.2874 H         1 UNK         0.3096 
     66 H66        15.5860  -25.8416  -46.5940 H         1 UNK         0.1121 
     67 H67        14.9210  -28.3848  -45.0228 H         1 UNK         0.0849 
     68 H68        13.7171  -27.5872  -45.9892 H         1 UNK         0.0849 
     69 H69        15.0632  -30.6203  -46.2380 H         1 UNK         0.0865 
     70 H70        15.9933  -30.8340  -47.6951 H         1 UNK         0.0865 
     71 H71        16.2443  -30.5763  -44.1511 H         1 UNK         0.1346 
     72 H72        20.5065  -30.0859  -44.0623 H         1 UNK         0.1412 
     73 H73        18.3848  -29.7345  -47.7673 H         1 UNK         0.1426 
     74 H74        20.8106  -30.0071  -47.7541 H         1 UNK         0.0716 
     75 H75        21.7051  -30.2307  -46.2800 H         1 UNK         0.0716 
     76 H76        22.3901  -28.6374  -44.7278 H         1 UNK         0.0695 
     77 H77        23.3369  -27.4311  -45.5606 H         1 UNK         0.0695 
     78 H78        21.6863  -25.6637  -44.8621 H         1 UNK         0.0983 
     79 H79        20.1961  -27.9351  -43.8673 H         1 UNK         0.3095 
     80 H80        18.3007  -27.8410  -42.9463 H         1 UNK         0.0454 
     81 H81        17.6812  -25.3457  -41.3005 H         1 UNK         0.0851 
     82 H82        17.0469  -26.9706  -41.0329 H         1 UNK         0.0851 
     83 H83        18.7544  -26.6436  -40.7950 H         1 UNK         0.0851 
     84 H84        16.1534  -26.2430  -43.1966 H         1 UNK         0.2976 
     85 H85        21.4103  -24.9637  -42.3934 H         1 UNK         0.3116 
     86 H86        22.3008  -24.3237  -40.4631 H         1 UNK         0.0646 
     87 H87        24.7962  -24.0509  -40.2725 H         1 UNK         0.0847 
     88 H88        24.1454  -23.3707  -41.7516 H         1 UNK         0.0847 
     89 H89        25.0064  -24.9004  -41.7991 H         1 UNK         0.0847 
     90 H90        24.9401  -26.6275  -40.7270 H         1 UNK         0.3040 
     91 H91        23.5920  -28.6292  -39.0217 H         1 UNK         0.1015 
     92 H92        24.7802  -27.1002  -37.4304 H         1 UNK         0.0786 
     93 H93        26.2925  -27.3749  -38.2951 H         1 UNK         0.0786 
     94 H94        25.5015  -28.6986  -37.4474 H         1 UNK         0.0786 
     95 H95        24.5390  -28.3602  -41.9364 H         1 UNK         0.3172 
     96 H96        26.8345  -30.0125  -42.3031 H         1 UNK         0.0595 
     97 H97        25.9411  -28.4814  -44.0616 H         1 UNK         0.0839 
     98 H98        24.4936  -29.4770  -44.2006 H         1 UNK         0.0839 
     99 H99        26.0581  -30.1311  -44.6580 H         1 UNK         0.0839 
    100 H100       27.0738  -32.1204  -42.0083 H         1 UNK         0.2998 
    101 H101       26.7566  -34.2406  -41.4392 H         1 UNK         0.0822 
    102 H102       25.1689  -35.6152  -42.7326 H         1 UNK         0.0787 
    103 H103       24.2751  -34.1903  -43.2404 H         1 UNK         0.0787 
    104 H104       25.9264  -34.4479  -43.8020 H         1 UNK         0.0787 
    105 H105       25.6532  -32.1959  -39.7461 H         1 UNK         0.3055 
    106 H106       24.6269  -31.8822  -37.8462 H         1 UNK         0.1106 
    107 H107       23.6660  -34.7901  -37.8151 H         1 UNK         0.0828 
    108 H108       25.2211  -34.2377  -37.1920 H         1 UNK         0.0828 
    109 H109       23.7278  -33.6842  -36.4556 H         1 UNK         0.0828 
    110 H110       23.1120  -32.0810  -40.6729 H         1 UNK         0.2931 
    111 H111       20.3593  -31.7128  -39.6639 H         1 UNK         0.0412 
    112 H112       20.6486  -29.7181  -38.5004 H         1 UNK         0.3472 
    113 H113       21.0730  -28.2323  -39.3301 H         1 UNK         0.3472 
    114 H114       21.1185  -31.5760  -42.6132 H         1 UNK         0.0970 
    115 H115       21.0634  -33.1034  -41.8195 H         1 UNK         0.0970 
    116 H116       18.9652  -29.8148  -41.9499 H         1 UNK         0.0612 
    117 H117       17.3397  -30.4023  -42.0563 H         1 UNK         0.0612 
@<TRIPOS>BOND
     1    1    2 1    
     2    1   62 1    
     3    1   63 1    
     4    1   64 1    
     5    2    3 2    
     6    2    4 am   BACKBONE|DICT|INTERRES
     7    4    5 1    
     8    4   65 1    
     9    5    6 1    
    10    5   25 1    
    11    5   66 1    
    12    6    7 1    
    13    6   67 1    
    14    6   68 1    
    15    7    8 1    
    16    8    9 1    
    17    8   69 1    
    18    8   70 1    
    19    9   10 ar   
    20    9   14 ar   
    21   10   11 ar   
    22   10   71 1    
    23   11   12 ar   
    24   11   61 1    
    25   12   13 ar   
    26   12   72 1    
    27   13   14 ar   
    28   13   15 1    
    29   14   73 1    
    30   15   16 1    
    31   15   74 1    
    32   15   75 1    
    33   16   17 1    
    34   17   18 1    
    35   17   76 1    
    36   17   77 1    
    37   18   19 1    
    38   18   27 1    
    39   18   78 1    
    40   19   20 am   BACKBONE|DICT|INTERRES
    41   19   79 1    
    42   20   21 2    
    43   20   22 1    
    44   22   23 1    
    45   22   24 1    
    46   22   80 1    
    47   23   81 1    
    48   23   82 1    
    49   23   83 1    
    50   24   25 am   BACKBONE|DICT|INTERRES
    51   24   84 1    
    52   25   26 2    
    53   27   28 2    
    54   27   29 am   BACKBONE|DICT|INTERRES
    55   29   30 1    
    56   29   85 1    
    57   30   31 1    
    58   30   32 1    
    59   30   86 1    
    60   31   87 1    
    61   31   88 1    
    62   31   89 1    
    63   32   33 2    
    64   32   34 am   BACKBONE|DICT|INTERRES
    65   34   35 1    
    66   34   90 1    
    67   35   36 1    
    68   35   37 1    
    69   35   91 1    
    70   36   92 1    
    71   36   93 1    
    72   36   94 1    
    73   37   38 2    
    74   37   39 am   BACKBONE|DICT|INTERRES
    75   39   40 1    
    76   39   95 1    
    77   40   41 1    
    78   40   42 1    
    79   40   96 1    
    80   41   97 1    
    81   41   98 1    
    82   41   99 1    
    83   42   43 2    
    84   42   44 am   BACKBONE|DICT|INTERRES
    85   44   45 1    
    86   44  100 1    
    87   45   46 1    
    88   45   47 1    
    89   45  101 1    
    90   46  102 1    
    91   46  103 1    
    92   46  104 1    
    93   47   48 2    
    94   47   49 am   BACKBONE|DICT|INTERRES
    95   49   50 1    
    96   49  105 1    
    97   50   51 1    
    98   50   52 1    
    99   50  106 1    
   100   51  107 1    
   101   51  108 1    
   102   51  109 1    
   103   52   53 2    
   104   52   54 am   BACKBONE|DICT|INTERRES
   105   54   55 1    
   106   54  110 1    
   107   55   56 1    
   108   55   59 1    
   109   55  111 1    
   110   56   57 am   BACKBONE|DICT|INTERRES
   111   56   58 2    
   112   57  112 1    
   113   57  113 1    
   114   59   60 1    
   115   59  114 1    
   116   59  115 1    
   117   60   61 1    
   118   61  116 1    
   119   61  117 1    
@<TRIPOS>SUBSTRUCTURE
     1 UNK         1 GROUP             0       ****    0 ROOT    
