@<TRIPOS>MOLECULE
3R8
117   119    1
SMALL
USER_CHARGES


@<TRIPOS>ATOM
      1 CA         15.2927  -23.5020  -42.1437 C.3       0 UNK        -0.2013 
      2 C          15.9958  -23.6862  -43.4803 C.2       0 UNK         0.4866 
      3 O          16.1383  -22.7239  -44.2358 O.2       0 UNK        -0.5176 
      4 N          16.4256  -24.9176  -43.7814 N.am      1 UNK        -0.4884 
      5 CA         17.1643  -25.2806  -44.9973 C.3       1 UNK         0.0853 
      6 C6         17.2489  -26.8164  -45.1968 C.3       10 UNK        -0.0849 
      7 S7         15.6620  -27.6926  -44.9750 S.3       10 UNK        -0.2776 
      8 C8         16.0435  -29.3366  -45.6665 C.3       10 UNK         0.0316 
      9 C9         17.3532  -29.9031  -45.1327 C.ar      10 UNK        -0.0863 
     10 C10        17.4394  -30.3914  -43.8256 C.ar      10 UNK        -0.1009 
     11 C11        18.6453  -30.8998  -43.3297 C.ar      10 UNK        -0.0712 
     12 C12        19.7715  -30.9137  -44.1649 C.ar      10 UNK        -0.0894 
     13 C13        19.6993  -30.4267  -45.4727 C.ar      10 UNK        -0.0745 
     14 C14        18.4839  -29.9322  -45.9520 C.ar      10 UNK        -0.0972 
     15 C15        20.9151  -30.4811  -46.3881 C.3       10 UNK         0.0209 
     16 S16        21.3425  -28.8481  -47.0754 S.3       10 UNK        -0.2568 
     17 C17        22.6896  -28.2616  -45.9854 C.3       10 UNK        -0.0983 
     18 CA         22.2916  -27.1606  -44.9622 C.3       3 UNK         0.0876 
     19 N          21.3983  -26.1570  -45.5475 N.am      3 UNK        -0.4424 
     20 C          21.6572  -24.8502  -45.6735 C.2       2 UNK         0.4918 
     21 O          22.6994  -24.3137  -45.2971 O.2       2 UNK        -0.4875 
     22 CA         20.5582  -23.9845  -46.3246 C.3       2 UNK         0.0481 
     23 CB         20.8479  -23.7994  -47.8227 C.3       2 UNK        -0.1831 
     24 N          19.1914  -24.4999  -46.1555 N.am      2 UNK        -0.4498 
     25 C          18.5910  -24.6919  -44.9720 C.2       1 UNK         0.5027 
     26 O          19.1520  -24.4943  -43.8913 O.2       1 UNK        -0.4969 
     27 C          21.7541  -27.7318  -43.6309 C.2       3 UNK         0.5005 
     28 O          22.3395  -28.6911  -43.1153 O.2       3 UNK        -0.5279 
     29 N          20.6939  -27.1267  -43.0642 N.am      4 UNK        -0.4463 
     30 CA         20.1004  -27.5200  -41.7818 C.3       4 UNK         0.0283 
     31 CB         18.8351  -26.6973  -41.4924 C.3       4 UNK        -0.1875 
     32 C          21.1079  -27.3841  -40.6299 C.2       4 UNK         0.4949 
     33 O          21.6109  -26.2864  -40.3870 O.2       4 UNK        -0.5039 
     34 N          21.4067  -28.5203  -39.9879 N.am      5 UNK        -0.4663 
     35 CA         22.4085  -28.7394  -38.9356 C.3       5 UNK         0.0242 
     36 CB         22.1026  -27.8863  -37.6867 C.3       5 UNK        -0.1982 
     37 C          23.8721  -28.5866  -39.3999 C.2       5 UNK         0.5017 
     38 O          24.7718  -28.7131  -38.5680 O.2       5 UNK        -0.5012 
     39 N          24.0998  -28.3456  -40.6990 N.am      6 UNK        -0.4439 
     40 CA         25.4278  -28.2624  -41.3067 C.3       6 UNK         0.0297 
     41 CB         25.4425  -27.1734  -42.3906 C.3       6 UNK        -0.2006 
     42 C          25.8385  -29.6170  -41.8969 C.2       6 UNK         0.4892 
     43 O          26.9984  -30.0038  -41.7512 O.2       6 UNK        -0.5089 
     44 N          24.8892  -30.3133  -42.5428 N.am      7 UNK        -0.4243 
     45 CA         25.0928  -31.6535  -43.0978 C.3       7 UNK         0.0196 
     46 CB         23.9498  -31.9959  -44.0671 C.3       7 UNK        -0.2007 
     47 C          25.2275  -32.7134  -41.9931 C.2       7 UNK         0.5020 
     48 O          26.2401  -33.4112  -41.9386 O.2       7 UNK        -0.5147 
     49 N          24.2108  -32.7876  -41.1268 N.am      8 UNK        -0.4734 
     50 CA         24.1253  -33.6554  -39.9529 C.3       8 UNK         0.0238 
     51 CB         24.1786  -35.1555  -40.3285 C.3       8 UNK        -0.1912 
     52 C          22.8371  -33.2865  -39.2132 C.2       8 UNK         0.5038 
     53 O          22.8884  -32.5264  -38.2467 O.2       8 UNK        -0.5046 
     54 N          21.7073  -33.7908  -39.7274 N.am      9 UNK        -0.4200 
     55 CA         20.3315  -33.5079  -39.2792 C.3       9 UNK         0.0839 
     56 C          19.9654  -34.0826  -37.8770 C.2       9 UNK         0.5513 
     57 N          20.7293  -35.0186  -37.3268 N.am      9 UNK        -0.7519 
     58 O          18.9565  -33.6999  -37.2897 O.2       9 UNK        -0.4960 
     59 C59        19.9319  -32.0117  -39.4349 C.3       10 UNK        -0.0876 
     60 S60        20.3080  -31.3434  -41.0921 S.3       10 UNK        -0.2414 
     61 C61        18.6813  -31.4595  -41.9071 C.3       10 UNK         0.0169 
     62 H62        15.2298  -24.4350  -41.5838 H         1 UNK         0.0903 
     63 H63        15.8315  -22.7770  -41.5341 H         1 UNK         0.0903 
     64 H64        14.2800  -23.1312  -42.2999 H         1 UNK         0.0903 
     65 H65        16.2652  -25.6744  -43.1329 H         1 UNK         0.3096 
     66 H66        16.6304  -24.8480  -45.8467 H         1 UNK         0.1121 
     67 H67        17.9661  -27.2598  -44.5037 H         1 UNK         0.0849 
     68 H68        17.6230  -27.0394  -46.1979 H         1 UNK         0.0849 
     69 H69        15.2272  -30.0206  -45.4299 H         1 UNK         0.0865 
     70 H70        16.0712  -29.2642  -46.7549 H         1 UNK         0.0865 
     71 H71        16.5615  -30.3737  -43.1940 H         1 UNK         0.1346 
     72 H72        20.7076  -31.3131  -43.8045 H         1 UNK         0.1412 
     73 H73        18.4233  -29.5638  -46.9672 H         1 UNK         0.1426 
     74 H74        20.6888  -31.1533  -47.2167 H         1 UNK         0.0716 
     75 H75        21.7759  -30.9120  -45.8776 H         1 UNK         0.0716 
     76 H76        23.4479  -27.8449  -46.6498 H         1 UNK         0.0695 
     77 H77        23.1838  -29.1062  -45.5039 H         1 UNK         0.0695 
     78 H78        23.2197  -26.6659  -44.6729 H         1 UNK         0.0983 
     79 H79        20.5332  -26.5155  -45.9241 H         1 UNK         0.3095 
     80 H80        20.5966  -23.0026  -45.8486 H         1 UNK         0.0454 
     81 H81        21.8467  -23.3892  -47.9794 H         1 UNK         0.0851 
     82 H82        20.1421  -23.1079  -48.2829 H         1 UNK         0.0851 
     83 H83        20.7967  -24.7448  -48.3645 H         1 UNK         0.0851 
     84 H84        18.6780  -24.6960  -47.0036 H         1 UNK         0.2976 
     85 H85        20.3298  -26.2815  -43.4869 H         1 UNK         0.3116 
     86 H86        19.7986  -28.5639  -41.8744 H         1 UNK         0.0646 
     87 H87        18.4058  -26.9723  -40.5281 H         1 UNK         0.0847 
     88 H88        19.0459  -25.6278  -41.4592 H         1 UNK         0.0847 
     89 H89        18.0660  -26.8702  -42.2421 H         1 UNK         0.0847 
     90 H90        20.9561  -29.3658  -40.3206 H         1 UNK         0.3040 
     91 H91        22.3090  -29.7863  -38.6452 H         1 UNK         0.1015 
     92 H92        22.7486  -28.1675  -36.8540 H         1 UNK         0.0786 
     93 H93        21.0732  -28.0228  -37.3554 H         1 UNK         0.0786 
     94 H94        22.2595  -26.8233  -37.8707 H         1 UNK         0.0786 
     95 H95        23.3043  -28.2901  -41.3260 H         1 UNK         0.3172 
     96 H96        26.1630  -27.9829  -40.5490 H         1 UNK         0.0595 
     97 H97        24.8379  -27.4523  -43.2516 H         1 UNK         0.0839 
     98 H98        26.4574  -27.0053  -42.7532 H         1 UNK         0.0839 
     99 H99        25.0718  -26.2221  -42.0083 H         1 UNK         0.0839 
    100 H100       23.9693  -29.9000  -42.6550 H         1 UNK         0.2998 
    101 H101       26.0247  -31.6500  -43.6678 H         1 UNK         0.0822 
    102 H102       24.0498  -33.0136  -44.4471 H         1 UNK         0.0787 
    103 H103       22.9730  -31.9183  -43.5898 H         1 UNK         0.0787 
    104 H104       23.9582  -31.3294  -44.9287 H         1 UNK         0.0787 
    105 H105       23.4341  -32.1507  -41.2465 H         1 UNK         0.3055 
    106 H106       24.9637  -33.4289  -39.2906 H         1 UNK         0.1106 
    107 H107       23.4940  -35.4043  -41.1397 H         1 UNK         0.0828 
    108 H108       25.1791  -35.4501  -40.6443 H         1 UNK         0.0828 
    109 H109       23.9246  -35.7846  -39.4742 H         1 UNK         0.0828 
    110 H110       21.7815  -34.4047  -40.5250 H         1 UNK         0.2931 
    111 H111       19.6993  -34.0687  -39.9685 H         1 UNK         0.0412 
    112 H112       20.4799  -35.3929  -36.4245 H         1 UNK         0.3472 
    113 H113       21.5528  -35.3512  -37.8019 H         1 UNK         0.3472 
    114 H114       18.8683  -31.8767  -39.2305 H         1 UNK         0.0970 
    115 H115       20.4522  -31.4040  -38.6936 H         1 UNK         0.0970 
    116 H116       17.9524  -30.9323  -41.2895 H         1 UNK         0.0612 
    117 H117       18.3747  -32.5058  -41.9355 H         1 UNK         0.0612 
@<TRIPOS>BOND
     1    1    2 1    
     2    1   62 1    
     3    1   63 1    
     4    1   64 1    
     5    2    3 2    
     6    2    4 am   BACKBONE|DICT|INTERRES
     7    4    5 1    
     8    4   65 1    
     9    5    6 1    
    10    5   25 1    
    11    5   66 1    
    12    6    7 1    
    13    6   67 1    
    14    6   68 1    
    15    7    8 1    
    16    8    9 1    
    17    8   69 1    
    18    8   70 1    
    19    9   10 ar   
    20    9   14 ar   
    21   10   11 ar   
    22   10   71 1    
    23   11   12 ar   
    24   11   61 1    
    25   12   13 ar   
    26   12   72 1    
    27   13   14 ar   
    28   13   15 1    
    29   14   73 1    
    30   15   16 1    
    31   15   74 1    
    32   15   75 1    
    33   16   17 1    
    34   17   18 1    
    35   17   76 1    
    36   17   77 1    
    37   18   19 1    
    38   18   27 1    
    39   18   78 1    
    40   19   20 am   BACKBONE|DICT|INTERRES
    41   19   79 1    
    42   20   21 2    
    43   20   22 1    
    44   22   23 1    
    45   22   24 1    
    46   22   80 1    
    47   23   81 1    
    48   23   82 1    
    49   23   83 1    
    50   24   25 am   BACKBONE|DICT|INTERRES
    51   24   84 1    
    52   25   26 2    
    53   27   28 2    
    54   27   29 am   BACKBONE|DICT|INTERRES
    55   29   30 1    
    56   29   85 1    
    57   30   31 1    
    58   30   32 1    
    59   30   86 1    
    60   31   87 1    
    61   31   88 1    
    62   31   89 1    
    63   32   33 2    
    64   32   34 am   BACKBONE|DICT|INTERRES
    65   34   35 1    
    66   34   90 1    
    67   35   36 1    
    68   35   37 1    
    69   35   91 1    
    70   36   92 1    
    71   36   93 1    
    72   36   94 1    
    73   37   38 2    
    74   37   39 am   BACKBONE|DICT|INTERRES
    75   39   40 1    
    76   39   95 1    
    77   40   41 1    
    78   40   42 1    
    79   40   96 1    
    80   41   97 1    
    81   41   98 1    
    82   41   99 1    
    83   42   43 2    
    84   42   44 am   BACKBONE|DICT|INTERRES
    85   44   45 1    
    86   44  100 1    
    87   45   46 1    
    88   45   47 1    
    89   45  101 1    
    90   46  102 1    
    91   46  103 1    
    92   46  104 1    
    93   47   48 2    
    94   47   49 am   BACKBONE|DICT|INTERRES
    95   49   50 1    
    96   49  105 1    
    97   50   51 1    
    98   50   52 1    
    99   50  106 1    
   100   51  107 1    
   101   51  108 1    
   102   51  109 1    
   103   52   53 2    
   104   52   54 am   BACKBONE|DICT|INTERRES
   105   54   55 1    
   106   54  110 1    
   107   55   56 1    
   108   55   59 1    
   109   55  111 1    
   110   56   57 am   BACKBONE|DICT|INTERRES
   111   56   58 2    
   112   57  112 1    
   113   57  113 1    
   114   59   60 1    
   115   59  114 1    
   116   59  115 1    
   117   60   61 1    
   118   61  116 1    
   119   61  117 1    
@<TRIPOS>SUBSTRUCTURE
     1 UNK         1 GROUP             0       ****    0 ROOT    
