@<TRIPOS>MOLECULE
3R8
117   119    1
SMALL
USER_CHARGES


@<TRIPOS>ATOM
      1 CA         17.9154  -26.3389  -46.8857 C.3       0 UNK        -0.2013 
      2 C          18.9256  -27.3800  -47.3395 C.2       0 UNK         0.4866 
      3 O          19.2957  -27.3920  -48.5135 O.2       0 UNK        -0.5176 
      4 N          19.3830  -28.2445  -46.4240 N.am      1 UNK        -0.4884 
      5 CA         20.3736  -29.2868  -46.7053 C.3       1 UNK         0.0853 
      6 C6         19.6995  -30.5850  -47.2385 C.3       10 UNK        -0.0849 
      7 S7         18.7027  -31.5589  -46.0492 S.3       10 UNK        -0.2776 
      8 C8         17.1648  -30.5929  -45.8435 C.3       10 UNK         0.0316 
      9 C9         17.0590  -29.9160  -44.4756 C.ar      10 UNK        -0.0863 
     10 C10        17.4083  -30.6072  -43.3090 C.ar      10 UNK        -0.1009 
     11 C11        17.2657  -30.0093  -42.0555 C.ar      10 UNK        -0.0712 
     12 C12        16.7454  -28.7190  -41.9648 C.ar      10 UNK        -0.0894 
     13 C13        16.4250  -27.9959  -43.1169 C.ar      10 UNK        -0.0745 
     14 C14        16.5640  -28.6098  -44.3683 C.ar      10 UNK        -0.0972 
     15 C15        15.9170  -26.5607  -43.0036 C.3       10 UNK         0.0209 
     16 S16        16.9145  -25.5314  -41.8638 S.3       10 UNK        -0.2568 
     17 C17        18.4931  -25.3823  -42.7640 C.3       10 UNK        -0.0983 
     18 CA         19.5407  -26.4560  -42.3474 C.3       3 UNK         0.0876 
     19 N          20.3556  -26.9477  -43.4605 N.am      3 UNK        -0.4424 
     20 C          21.0611  -26.2291  -44.3468 C.2       2 UNK         0.4918 
     21 O          21.0103  -25.0031  -44.4467 O.2       2 UNK        -0.4875 
     22 CA         21.9744  -27.0268  -45.2987 C.3       2 UNK         0.0481 
     23 CB         23.4183  -26.5005  -45.2471 C.3       2 UNK        -0.1831 
     24 N          21.9928  -28.4524  -44.9564 N.am      2 UNK        -0.4498 
     25 C          21.3652  -29.4895  -45.5304 C.2       1 UNK         0.5027 
     26 O          21.5912  -30.6210  -45.1136 O.2       1 UNK        -0.4969 
     27 C          20.4299  -26.0349  -41.1594 C.2       3 UNK         0.5005 
     28 O          21.6578  -26.0691  -41.2633 O.2       3 UNK        -0.5279 
     29 N          19.7977  -25.7060  -40.0229 N.am      4 UNK        -0.4463 
     30 CA         20.4246  -25.2670  -38.7641 C.3       4 UNK         0.0283 
     31 CB         20.9579  -23.8268  -38.9167 C.3       4 UNK        -0.1875 
     32 C          21.4995  -26.2361  -38.2183 C.2       4 UNK         0.4949 
     33 O          22.4822  -25.7909  -37.6237 O.2       4 UNK        -0.5039 
     34 N          21.2931  -27.5417  -38.4495 N.am      5 UNK        -0.4663 
     35 CA         22.1894  -28.6581  -38.1220 C.3       5 UNK         0.0242 
     36 CB         22.3484  -28.8098  -36.5935 C.3       5 UNK        -0.1982 
     37 C          23.5426  -28.6325  -38.8689 C.2       5 UNK         0.5017 
     38 O          24.5163  -29.1917  -38.3602 O.2       5 UNK        -0.5012 
     39 N          23.5918  -28.0066  -40.0544 N.am      6 UNK        -0.4439 
     40 CA         24.7538  -28.0094  -40.9444 C.3       6 UNK         0.0297 
     41 CB         24.9951  -26.5831  -41.4633 C.3       6 UNK        -0.2006 
     42 C          24.5370  -28.9829  -42.1140 C.2       6 UNK         0.4892 
     43 O          23.4047  -29.1575  -42.5745 O.2       6 UNK        -0.5089 
     44 N          25.6479  -29.5558  -42.5981 N.am      7 UNK        -0.4243 
     45 CA         25.7502  -30.5461  -43.6760 C.3       7 UNK         0.0196 
     46 CB         25.3707  -29.9371  -45.0432 C.3       7 UNK        -0.2007 
     47 C          25.0167  -31.8543  -43.3225 C.2       7 UNK         0.5020 
     48 O          25.4137  -32.5053  -42.3554 O.2       7 UNK        -0.5147 
     49 N          24.0004  -32.2439  -44.1053 N.am      8 UNK        -0.4734 
     50 CA         23.2334  -33.4780  -43.8989 C.3       8 UNK         0.0238 
     51 CB         22.5363  -33.8820  -45.2092 C.3       8 UNK        -0.1912 
     52 C          22.2180  -33.3763  -42.7471 C.2       8 UNK         0.5038 
     53 O          21.8275  -34.4125  -42.2070 O.2       8 UNK        -0.5046 
     54 N          21.8140  -32.1505  -42.3886 N.am      9 UNK        -0.4200 
     55 CA         20.9777  -31.8531  -41.2204 C.3       9 UNK         0.0839 
     56 C          21.7184  -32.1709  -39.8909 C.2       9 UNK         0.5513 
     57 N          21.0353  -32.7612  -38.9197 N.am      9 UNK        -0.7519 
     58 O          22.8931  -31.8570  -39.7227 O.2       9 UNK        -0.4960 
     59 C59        20.4634  -30.3915  -41.2845 C.3       10 UNK        -0.0876 
     60 S60        19.1740  -30.0031  -40.0500 S.3       10 UNK        -0.2414 
     61 C61        17.6851  -30.7440  -40.7941 C.3       10 UNK         0.0169 
     62 H62        16.9546  -26.5100  -47.3702 H         1 UNK         0.0903 
     63 H63        17.7655  -26.3612  -45.8097 H         1 UNK         0.0903 
     64 H64        18.2601  -25.3406  -47.1542 H         1 UNK         0.0903 
     65 H65        19.0375  -28.2181  -45.4748 H         1 UNK         0.3096 
     66 H66        21.0183  -28.9303  -47.5120 H         1 UNK         0.1121 
     67 H67        19.0745  -30.3508  -48.1015 H         1 UNK         0.0849 
     68 H68        20.4723  -31.2527  -47.6234 H         1 UNK         0.0849 
     69 H69        17.0725  -29.8666  -46.6519 H         1 UNK         0.0865 
     70 H70        16.3179  -31.2715  -45.9508 H         1 UNK         0.0865 
     71 H71        17.7933  -31.6156  -43.3750 H         1 UNK         0.1346 
     72 H72        16.6287  -28.2626  -40.9913 H         1 UNK         0.1412 
     73 H73        16.2704  -28.0758  -45.2607 H         1 UNK         0.1426 
     74 H74        14.8893  -26.5865  -42.6393 H         1 UNK         0.0716 
     75 H75        15.8844  -26.0790  -43.9819 H         1 UNK         0.0716 
     76 H76        18.8859  -24.3730  -42.6259 H         1 UNK         0.0695 
     77 H77        18.2695  -25.4544  -43.8266 H         1 UNK         0.0695 
     78 H78        19.0148  -27.3442  -42.0024 H         1 UNK         0.0983 
     79 H79        20.5460  -27.9381  -43.4419 H         1 UNK         0.3095 
     80 H80        21.6185  -26.8757  -46.3170 H         1 UNK         0.0454 
     81 H81        23.8579  -26.6259  -44.2589 H         1 UNK         0.0851 
     82 H82        23.4623  -25.4389  -45.4935 H         1 UNK         0.0851 
     83 H83        24.0545  -27.0227  -45.9616 H         1 UNK         0.0851 
     84 H84        22.5814  -28.6784  -44.1559 H         1 UNK         0.2976 
     85 H85        18.7853  -25.7216  -40.0270 H         1 UNK         0.3116 
     86 H86        19.6303  -25.2476  -38.0166 H         1 UNK         0.0646 
     87 H87        21.7934  -23.7802  -39.6163 H         1 UNK         0.0847 
     88 H88        21.3100  -23.4336  -37.9623 H         1 UNK         0.0847 
     89 H89        20.1818  -23.1511  -39.2758 H         1 UNK         0.0847 
     90 H90        20.4497  -27.7962  -38.9453 H         1 UNK         0.3040 
     91 H91        21.6853  -29.5574  -38.4746 H         1 UNK         0.1015 
     92 H92        21.3797  -28.8428  -36.0949 H         1 UNK         0.0786 
     93 H93        22.9225  -27.9900  -36.1612 H         1 UNK         0.0786 
     94 H94        22.8686  -29.7357  -36.3450 H         1 UNK         0.0786 
     95 H95        22.7661  -27.5346  -40.4117 H         1 UNK         0.3172 
     96 H96        25.6474  -28.3200  -40.3991 H         1 UNK         0.0595 
     97 H97        24.1337  -26.1971  -42.0068 H         1 UNK         0.0839 
     98 H98        25.8508  -26.5478  -42.1387 H         1 UNK         0.0839 
     99 H99        25.2008  -25.8961  -40.6424 H         1 UNK         0.0839 
    100 H100       26.5200  -29.3483  -42.1314 H         1 UNK         0.2998 
    101 H101       26.8067  -30.8129  -43.7339 H         1 UNK         0.0822 
    102 H102       25.9699  -29.0521  -45.2570 H         1 UNK         0.0787 
    103 H103       25.5490  -30.6466  -45.8522 H         1 UNK         0.0787 
    104 H104       24.3265  -29.6432  -45.0890 H         1 UNK         0.0787 
    105 H105       23.6754  -31.6280  -44.8395 H         1 UNK         0.3055 
    106 H106       23.9335  -34.2744  -43.6357 H         1 UNK         0.1106 
    107 H107       22.0311  -34.8424  -45.0980 H         1 UNK         0.0828 
    108 H108       21.7811  -33.1569  -45.5123 H         1 UNK         0.0828 
    109 H109       23.2508  -33.9861  -46.0257 H         1 UNK         0.0828 
    110 H110       22.1951  -31.3589  -42.8903 H         1 UNK         0.2931 
    111 H111       20.1113  -32.5132  -41.2912 H         1 UNK         0.0412 
    112 H112       21.4984  -32.9667  -38.0486 H         1 UNK         0.3472 
    113 H113       20.0640  -33.0021  -39.0403 H         1 UNK         0.3472 
    114 H114       21.2894  -29.6941  -41.1411 H         1 UNK         0.0970 
    115 H115       20.0683  -30.1787  -42.2785 H         1 UNK         0.0970 
    116 H116       16.8721  -30.7013  -40.0681 H         1 UNK         0.0612 
    117 H117       17.8601  -31.8015  -40.9948 H         1 UNK         0.0612 
@<TRIPOS>BOND
     1    1    2 1    
     2    1   62 1    
     3    1   63 1    
     4    1   64 1    
     5    2    3 2    
     6    2    4 am   BACKBONE|DICT|INTERRES
     7    4    5 1    
     8    4   65 1    
     9    5    6 1    
    10    5   25 1    
    11    5   66 1    
    12    6    7 1    
    13    6   67 1    
    14    6   68 1    
    15    7    8 1    
    16    8    9 1    
    17    8   69 1    
    18    8   70 1    
    19    9   10 ar   
    20    9   14 ar   
    21   10   11 ar   
    22   10   71 1    
    23   11   12 ar   
    24   11   61 1    
    25   12   13 ar   
    26   12   72 1    
    27   13   14 ar   
    28   13   15 1    
    29   14   73 1    
    30   15   16 1    
    31   15   74 1    
    32   15   75 1    
    33   16   17 1    
    34   17   18 1    
    35   17   76 1    
    36   17   77 1    
    37   18   19 1    
    38   18   27 1    
    39   18   78 1    
    40   19   20 am   BACKBONE|DICT|INTERRES
    41   19   79 1    
    42   20   21 2    
    43   20   22 1    
    44   22   23 1    
    45   22   24 1    
    46   22   80 1    
    47   23   81 1    
    48   23   82 1    
    49   23   83 1    
    50   24   25 am   BACKBONE|DICT|INTERRES
    51   24   84 1    
    52   25   26 2    
    53   27   28 2    
    54   27   29 am   BACKBONE|DICT|INTERRES
    55   29   30 1    
    56   29   85 1    
    57   30   31 1    
    58   30   32 1    
    59   30   86 1    
    60   31   87 1    
    61   31   88 1    
    62   31   89 1    
    63   32   33 2    
    64   32   34 am   BACKBONE|DICT|INTERRES
    65   34   35 1    
    66   34   90 1    
    67   35   36 1    
    68   35   37 1    
    69   35   91 1    
    70   36   92 1    
    71   36   93 1    
    72   36   94 1    
    73   37   38 2    
    74   37   39 am   BACKBONE|DICT|INTERRES
    75   39   40 1    
    76   39   95 1    
    77   40   41 1    
    78   40   42 1    
    79   40   96 1    
    80   41   97 1    
    81   41   98 1    
    82   41   99 1    
    83   42   43 2    
    84   42   44 am   BACKBONE|DICT|INTERRES
    85   44   45 1    
    86   44  100 1    
    87   45   46 1    
    88   45   47 1    
    89   45  101 1    
    90   46  102 1    
    91   46  103 1    
    92   46  104 1    
    93   47   48 2    
    94   47   49 am   BACKBONE|DICT|INTERRES
    95   49   50 1    
    96   49  105 1    
    97   50   51 1    
    98   50   52 1    
    99   50  106 1    
   100   51  107 1    
   101   51  108 1    
   102   51  109 1    
   103   52   53 2    
   104   52   54 am   BACKBONE|DICT|INTERRES
   105   54   55 1    
   106   54  110 1    
   107   55   56 1    
   108   55   59 1    
   109   55  111 1    
   110   56   57 am   BACKBONE|DICT|INTERRES
   111   56   58 2    
   112   57  112 1    
   113   57  113 1    
   114   59   60 1    
   115   59  114 1    
   116   59  115 1    
   117   60   61 1    
   118   61  116 1    
   119   61  117 1    
@<TRIPOS>SUBSTRUCTURE
     1 UNK         1 GROUP             0       ****    0 ROOT    
