@<TRIPOS>MOLECULE
3R8
117   119    1
SMALL
USER_CHARGES


@<TRIPOS>ATOM
      1 CA         14.3671  -22.3813  -44.5940 C.3       0 UNK        -0.2013 
      2 C          14.6539  -23.7733  -45.1369 C.2       0 UNK         0.4866 
      3 O          13.8009  -24.3583  -45.8048 O.2       0 UNK        -0.5176 
      4 N          15.8476  -24.3061  -44.8590 N.am      1 UNK        -0.4884 
      5 CA         16.3333  -25.6034  -45.3261 C.3       1 UNK         0.0853 
      6 C6         15.6908  -26.7971  -44.5625 C.3       10 UNK        -0.0849 
      7 S7         15.7096  -28.3363  -45.5461 S.3       10 UNK        -0.2776 
      8 C8         15.3911  -29.5996  -44.2755 C.3       10 UNK         0.0316 
      9 C9         16.5842  -29.8194  -43.3542 C.ar      10 UNK        -0.0863 
     10 C10        17.6972  -30.5403  -43.7991 C.ar      10 UNK        -0.1009 
     11 C11        18.7673  -30.7992  -42.9359 C.ar      10 UNK        -0.0712 
     12 C12        18.7146  -30.3372  -41.6177 C.ar      10 UNK        -0.0894 
     13 C13        17.6249  -29.5832  -41.1720 C.ar      10 UNK        -0.0745 
     14 C14        16.5595  -29.3351  -42.0432 C.ar      10 UNK        -0.0972 
     15 C15        17.5908  -29.0321  -39.7513 C.3       10 UNK         0.0209 
     16 S16        19.0080  -27.9477  -39.3654 S.3       10 UNK        -0.2568 
     17 C17        19.0238  -26.7837  -40.7732 C.3       10 UNK        -0.0983 
     18 CA         20.2198  -27.0573  -41.7274 C.3       3 UNK         0.0876 
     19 N          19.8361  -26.8851  -43.1368 N.am      3 UNK        -0.4424 
     20 C          20.6101  -27.0305  -44.2240 C.2       2 UNK         0.4918 
     21 O          21.8282  -27.1978  -44.1780 O.2       2 UNK        -0.4875 
     22 CA         19.9296  -26.9854  -45.6071 C.3       2 UNK         0.0481 
     23 CB         20.1873  -28.2971  -46.3688 C.3       2 UNK        -0.1831 
     24 N          18.4842  -26.7425  -45.5799 N.am      2 UNK        -0.4498 
     25 C          17.8735  -25.5965  -45.2574 C.2       1 UNK         0.5027 
     26 O          18.4749  -24.5805  -44.8963 O.2       1 UNK        -0.4969 
     27 C          21.4859  -26.2947  -41.2725 C.2       3 UNK         0.5005 
     28 O          22.1301  -26.7229  -40.3150 O.2       3 UNK        -0.5279 
     29 N          21.8662  -25.2233  -41.9852 N.am      4 UNK        -0.4463 
     30 CA         23.1385  -24.5070  -41.8296 C.3       4 UNK         0.0283 
     31 CB         23.1673  -23.3167  -42.8013 C.3       4 UNK        -0.1875 
     32 C          24.3920  -25.3889  -42.0241 C.2       4 UNK         0.4949 
     33 O          25.4439  -25.0598  -41.4760 O.2       4 UNK        -0.5039 
     34 N          24.2611  -26.4998  -42.7659 N.am      5 UNK        -0.4663 
     35 CA         25.2895  -27.5347  -42.9186 C.3       5 UNK         0.0242 
     36 CB         24.9560  -28.3873  -44.1535 C.3       5 UNK        -0.1982 
     37 C          25.4667  -28.4275  -41.6711 C.2       5 UNK         0.5017 
     38 O          26.4771  -29.1271  -41.5936 O.2       5 UNK        -0.5012 
     39 N          24.5108  -28.3637  -40.7292 N.am      6 UNK        -0.4439 
     40 CA         24.4127  -29.0634  -39.4429 C.3       6 UNK         0.0297 
     41 CB         25.6627  -28.8307  -38.5703 C.3       6 UNK        -0.2006 
     42 C          24.0885  -30.5629  -39.5592 C.2       6 UNK         0.4892 
     43 O          24.5359  -31.2407  -40.4866 O.2       6 UNK        -0.5089 
     44 N          23.3394  -31.0557  -38.5610 N.am      7 UNK        -0.4243 
     45 CA         22.9510  -32.4535  -38.3417 C.3       7 UNK         0.0196 
     46 CB         24.1682  -33.2649  -37.8383 C.3       7 UNK        -0.2007 
     47 C          22.2445  -33.0660  -39.5675 C.2       7 UNK         0.5020 
     48 O          21.1741  -32.5900  -39.9453 O.2       7 UNK        -0.5147 
     49 N          22.8509  -34.1002  -40.1634 N.am      8 UNK        -0.4734 
     50 CA         22.3646  -34.7931  -41.3588 C.3       8 UNK         0.0238 
     51 CB         22.9645  -36.2101  -41.3828 C.3       8 UNK        -0.1912 
     52 C          22.6639  -34.0516  -42.6767 C.2       8 UNK         0.5038 
     53 O          22.2429  -34.5354  -43.7283 O.2       8 UNK        -0.5046 
     54 N          23.3805  -32.9195  -42.6133 N.am      9 UNK        -0.4200 
     55 CA         23.7836  -32.0765  -43.7521 C.3       9 UNK         0.0839 
     56 C          24.8650  -32.7128  -44.6768 C.2       9 UNK         0.5513 
     57 N          25.5670  -33.7574  -44.2533 N.am      9 UNK        -0.7519 
     58 O          25.0978  -32.2369  -45.7851 O.2       9 UNK        -0.4960 
     59 C59        22.5788  -31.4962  -44.5492 C.3       10 UNK        -0.0876 
     60 S60        21.4490  -30.5087  -43.5124 S.3       10 UNK        -0.2414 
     61 C61        19.9803  -31.5779  -43.4218 C.3       10 UNK         0.0169 
     62 H62        15.2053  -21.9866  -44.0200 H         1 UNK         0.0903 
     63 H63        14.1637  -21.6931  -45.4141 H         1 UNK         0.0903 
     64 H64        13.4928  -22.4050  -43.9440 H         1 UNK         0.0903 
     65 H65        16.5517  -23.7675  -44.3669 H         1 UNK         0.3096 
     66 H66        16.0747  -25.6769  -46.3854 H         1 UNK         0.1121 
     67 H67        14.6447  -26.5855  -44.3365 H         1 UNK         0.0849 
     68 H68        16.1748  -26.9515  -43.5969 H         1 UNK         0.0849 
     69 H69        14.5029  -29.3231  -43.7051 H         1 UNK         0.0865 
     70 H70        15.1474  -30.5402  -44.7717 H         1 UNK         0.0865 
     71 H71        17.7234  -30.9069  -44.8163 H         1 UNK         0.1346 
     72 H72        19.5404  -30.5389  -40.9479 H         1 UNK         0.1412 
     73 H73        15.7044  -28.7699  -41.6978 H         1 UNK         0.1426 
     74 H74        17.5825  -29.8652  -39.0473 H         1 UNK         0.0716 
     75 H75        16.6709  -28.4723  -39.5752 H         1 UNK         0.0716 
     76 H76        18.0731  -26.8703  -41.3006 H         1 UNK         0.0695 
     77 H77        19.0391  -25.7619  -40.3885 H         1 UNK         0.0695 
     78 H78        20.4852  -28.1140  -41.6575 H         1 UNK         0.0983 
     79 H79        18.8527  -26.7422  -43.3026 H         1 UNK         0.3095 
     80 H80        20.3964  -26.1709  -46.1643 H         1 UNK         0.0454 
     81 H81        19.7867  -28.2562  -47.3816 H         1 UNK         0.0851 
     82 H82        21.2558  -28.5008  -46.4543 H         1 UNK         0.0851 
     83 H83        19.7362  -29.1509  -45.8613 H         1 UNK         0.0851 
     84 H84        17.8940  -27.5307  -45.8182 H         1 UNK         0.2976 
     85 H85        21.2859  -24.9516  -42.7661 H         1 UNK         0.3116 
     86 H86        23.1713  -24.1188  -40.8096 H         1 UNK         0.0646 
     87 H87        24.0898  -22.7448  -42.6905 H         1 UNK         0.0847 
     88 H88        22.3403  -22.6310  -42.6168 H         1 UNK         0.0847 
     89 H89        23.1100  -23.6432  -43.8405 H         1 UNK         0.0847 
     90 H90        23.3644  -26.6899  -43.2097 H         1 UNK         0.3040 
     91 H91        26.2477  -27.0410  -43.0955 H         1 UNK         0.1015 
     92 H92        23.9903  -28.8804  -44.0463 H         1 UNK         0.0786 
     93 H93        25.7054  -29.1641  -44.3125 H         1 UNK         0.0786 
     94 H94        24.9205  -27.7797  -45.0578 H         1 UNK         0.0786 
     95 H95        23.7312  -27.7371  -40.9056 H         1 UNK         0.3172 
     96 H96        23.5709  -28.5901  -38.9351 H         1 UNK         0.0595 
     97 H97        25.5127  -29.2201  -37.5627 H         1 UNK         0.0839 
     98 H98        26.5429  -29.3295  -38.9770 H         1 UNK         0.0839 
     99 H99        25.8904  -27.7688  -38.4765 H         1 UNK         0.0839 
    100 H100       22.9960  -30.4048  -37.8684 H         1 UNK         0.2998 
    101 H101       22.2083  -32.4467  -37.5423 H         1 UNK         0.0822 
    102 H102       23.8918  -34.2945  -37.6064 H         1 UNK         0.0787 
    103 H103       24.9797  -33.2889  -38.5669 H         1 UNK         0.0787 
    104 H104       24.5691  -32.8332  -36.9211 H         1 UNK         0.0787 
    105 H105       23.7379  -34.4077  -39.7904 H         1 UNK         0.3055 
    106 H106       21.2779  -34.8837  -41.2899 H         1 UNK         0.1106 
    107 H107       22.7047  -36.7668  -40.4822 H         1 UNK         0.0828 
    108 H108       22.5873  -36.7823  -42.2317 H         1 UNK         0.0828 
    109 H109       24.0519  -36.1880  -41.4634 H         1 UNK         0.0828 
    110 H110       23.6898  -32.5795  -41.7079 H         1 UNK         0.2931 
    111 H111       24.2946  -31.2295  -43.2939 H         1 UNK         0.0412 
    112 H112       26.2720  -34.1561  -44.8534 H         1 UNK         0.3472 
    113 H113       25.4005  -34.1465  -43.3394 H         1 UNK         0.3472 
    114 H114       22.0312  -32.2884  -45.0606 H         1 UNK         0.0970 
    115 H115       22.9340  -30.8313  -45.3383 H         1 UNK         0.0970 
    116 H116       19.7835  -32.0133  -44.4025 H         1 UNK         0.0612 
    117 H117       20.1772  -32.4073  -42.7419 H         1 UNK         0.0612 
@<TRIPOS>BOND
     1    1    2 1    
     2    1   62 1    
     3    1   63 1    
     4    1   64 1    
     5    2    3 2    
     6    2    4 am   BACKBONE|DICT|INTERRES
     7    4    5 1    
     8    4   65 1    
     9    5    6 1    
    10    5   25 1    
    11    5   66 1    
    12    6    7 1    
    13    6   67 1    
    14    6   68 1    
    15    7    8 1    
    16    8    9 1    
    17    8   69 1    
    18    8   70 1    
    19    9   10 ar   
    20    9   14 ar   
    21   10   11 ar   
    22   10   71 1    
    23   11   12 ar   
    24   11   61 1    
    25   12   13 ar   
    26   12   72 1    
    27   13   14 ar   
    28   13   15 1    
    29   14   73 1    
    30   15   16 1    
    31   15   74 1    
    32   15   75 1    
    33   16   17 1    
    34   17   18 1    
    35   17   76 1    
    36   17   77 1    
    37   18   19 1    
    38   18   27 1    
    39   18   78 1    
    40   19   20 am   BACKBONE|DICT|INTERRES
    41   19   79 1    
    42   20   21 2    
    43   20   22 1    
    44   22   23 1    
    45   22   24 1    
    46   22   80 1    
    47   23   81 1    
    48   23   82 1    
    49   23   83 1    
    50   24   25 am   BACKBONE|DICT|INTERRES
    51   24   84 1    
    52   25   26 2    
    53   27   28 2    
    54   27   29 am   BACKBONE|DICT|INTERRES
    55   29   30 1    
    56   29   85 1    
    57   30   31 1    
    58   30   32 1    
    59   30   86 1    
    60   31   87 1    
    61   31   88 1    
    62   31   89 1    
    63   32   33 2    
    64   32   34 am   BACKBONE|DICT|INTERRES
    65   34   35 1    
    66   34   90 1    
    67   35   36 1    
    68   35   37 1    
    69   35   91 1    
    70   36   92 1    
    71   36   93 1    
    72   36   94 1    
    73   37   38 2    
    74   37   39 am   BACKBONE|DICT|INTERRES
    75   39   40 1    
    76   39   95 1    
    77   40   41 1    
    78   40   42 1    
    79   40   96 1    
    80   41   97 1    
    81   41   98 1    
    82   41   99 1    
    83   42   43 2    
    84   42   44 am   BACKBONE|DICT|INTERRES
    85   44   45 1    
    86   44  100 1    
    87   45   46 1    
    88   45   47 1    
    89   45  101 1    
    90   46  102 1    
    91   46  103 1    
    92   46  104 1    
    93   47   48 2    
    94   47   49 am   BACKBONE|DICT|INTERRES
    95   49   50 1    
    96   49  105 1    
    97   50   51 1    
    98   50   52 1    
    99   50  106 1    
   100   51  107 1    
   101   51  108 1    
   102   51  109 1    
   103   52   53 2    
   104   52   54 am   BACKBONE|DICT|INTERRES
   105   54   55 1    
   106   54  110 1    
   107   55   56 1    
   108   55   59 1    
   109   55  111 1    
   110   56   57 am   BACKBONE|DICT|INTERRES
   111   56   58 2    
   112   57  112 1    
   113   57  113 1    
   114   59   60 1    
   115   59  114 1    
   116   59  115 1    
   117   60   61 1    
   118   61  116 1    
   119   61  117 1    
@<TRIPOS>SUBSTRUCTURE
     1 UNK         1 GROUP             0       ****    0 ROOT    
