@<TRIPOS>MOLECULE
3R8
117   119    1
SMALL
USER_CHARGES


@<TRIPOS>ATOM
      1 CA         21.4819  -27.5990  -49.9773 C.3       0 UNK        -0.2013 
      2 C          21.6310  -27.6910  -48.4661 C.2       0 UNK         0.4866 
      3 O          22.7003  -27.3859  -47.9371 O.2       0 UNK        -0.5176 
      4 N          20.5708  -28.1181  -47.7698 N.am      1 UNK        -0.4884 
      5 CA         20.5250  -28.2351  -46.3098 C.3       1 UNK         0.0853 
      6 C6         19.2993  -29.0475  -45.8345 C.3       10 UNK        -0.0849 
      7 S7         19.2865  -30.7780  -46.4106 S.3       10 UNK        -0.2776 
      8 C8         17.5667  -31.2671  -46.0470 C.3       10 UNK         0.0316 
      9 C9         17.1663  -30.8973  -44.6260 C.ar      10 UNK        -0.0863 
     10 C10        17.6124  -31.6591  -43.5439 C.ar      10 UNK        -0.1009 
     11 C11        17.3093  -31.2737  -42.2345 C.ar      10 UNK        -0.0712 
     12 C12        16.5407  -30.1263  -42.0111 C.ar      10 UNK        -0.0894 
     13 C13        16.1006  -29.3510  -43.0882 C.ar      10 UNK        -0.0745 
     14 C14        16.3977  -29.7543  -44.3920 C.ar      10 UNK        -0.0972 
     15 C15        15.3326  -28.0579  -42.8634 C.3       10 UNK         0.0209 
     16 S16        16.3958  -26.6060  -43.1619 S.3       10 UNK        -0.2568 
     17 C17        17.1669  -26.3456  -41.5296 C.3       10 UNK        -0.0983 
     18 CA         18.5202  -27.0857  -41.3467 C.3       3 UNK         0.0876 
     19 N          19.5524  -26.7521  -42.3382 N.am      3 UNK        -0.4424 
     20 C          20.0954  -25.5543  -42.6073 C.2       2 UNK         0.4918 
     21 O          19.7639  -24.4989  -42.0687 O.2       2 UNK        -0.4875 
     22 CA         21.2085  -25.5159  -43.6742 C.3       2 UNK         0.0481 
     23 CB         22.5823  -25.3155  -43.0189 C.3       2 UNK        -0.1831 
     24 N          21.2389  -26.7141  -44.5230 N.am      2 UNK        -0.4498 
     25 C          20.5028  -26.8509  -45.6351 C.2       1 UNK         0.5027 
     26 O          19.7814  -25.9633  -46.0979 O.2       1 UNK        -0.4969 
     27 C          19.0528  -26.9288  -39.9068 C.2       3 UNK         0.5005 
     28 O          19.0952  -25.8152  -39.3811 O.2       3 UNK        -0.5279 
     29 N          19.4397  -28.0588  -39.2932 N.am      4 UNK        -0.4463 
     30 CA         19.9541  -28.1930  -37.9213 C.3       4 UNK         0.0283 
     31 CB         18.8576  -27.8582  -36.8874 C.3       4 UNK        -0.1875 
     32 C          21.2679  -27.4237  -37.6718 C.2       4 UNK         0.4949 
     33 O          21.5071  -26.9552  -36.5578 O.2       4 UNK        -0.5039 
     34 N          22.1032  -27.3238  -38.7125 N.am      5 UNK        -0.4663 
     35 CA         23.3917  -26.6311  -38.6990 C.3       5 UNK         0.0242 
     36 CB         23.2073  -25.1774  -39.1728 C.3       5 UNK        -0.1982 
     37 C          24.4243  -27.4258  -39.5123 C.2       5 UNK         0.5017 
     38 O          25.1360  -26.8575  -40.3417 O.2       5 UNK        -0.5012 
     39 N          24.4669  -28.7415  -39.2569 N.am      6 UNK        -0.4439 
     40 CA         25.3933  -29.7637  -39.7649 C.3       6 UNK         0.0297 
     41 CB         26.8462  -29.4559  -39.3531 C.3       6 UNK        -0.2006 
     42 C          25.3084  -30.0672  -41.2715 C.2       6 UNK         0.4892 
     43 O          25.2820  -31.2447  -41.6308 O.2       6 UNK        -0.5089 
     44 N          25.2888  -29.0307  -42.1199 N.am      7 UNK        -0.4243 
     45 CA         25.3086  -29.1234  -43.5827 C.3       7 UNK         0.0196 
     46 CB         25.3925  -27.7158  -44.1899 C.3       7 UNK        -0.2007 
     47 C          24.0958  -29.8926  -44.1287 C.2       7 UNK         0.5020 
     48 O          22.9707  -29.3888  -44.0548 O.2       7 UNK        -0.5147 
     49 N          24.3599  -31.1188  -44.6038 N.am      8 UNK        -0.4734 
     50 CA         23.4538  -32.1522  -45.1321 C.3       8 UNK         0.0238 
     51 CB         22.7924  -31.6930  -46.4419 C.3       8 UNK        -0.1912 
     52 C          22.4193  -32.7107  -44.1326 C.2       8 UNK         0.5038 
     53 O          22.0895  -33.8944  -44.2182 O.2       8 UNK        -0.5046 
     54 N          21.9506  -31.8785  -43.1980 N.am      9 UNK        -0.4200 
     55 CA         21.0861  -32.2477  -42.0706 C.3       9 UNK         0.0839 
     56 C          21.7893  -33.1455  -41.0085 C.2       9 UNK         0.5513 
     57 N          23.1040  -33.0686  -40.8363 N.am      9 UNK        -0.7519 
     58 O          21.1359  -33.9500  -40.3498 O.2       9 UNK        -0.4960 
     59 C59        20.4471  -30.9695  -41.4639 C.3       10 UNK        -0.0876 
     60 S60        19.1773  -31.2318  -40.1739 S.3       10 UNK        -0.2414 
     61 C61        17.8344  -32.0864  -41.0617 C.3       10 UNK         0.0169 
     62 H62        21.6429  -26.5733  -50.3081 H         1 UNK         0.0903 
     63 H63        22.2196  -28.2348  -50.4663 H         1 UNK         0.0903 
     64 H64        20.4920  -27.9112  -50.3097 H         1 UNK         0.0903 
     65 H65        19.7143  -28.3494  -48.2523 H         1 UNK         0.3096 
     66 H66        21.4325  -28.7465  -45.9918 H         1 UNK         0.1121 
     67 H67        19.2656  -29.0725  -44.7434 H         1 UNK         0.0849 
     68 H68        18.3769  -28.5617  -46.1597 H         1 UNK         0.0849 
     69 H69        16.8996  -30.7944  -46.7696 H         1 UNK         0.0865 
     70 H70        17.4612  -32.3431  -46.1927 H         1 UNK         0.0865 
     71 H71        18.2201  -32.5351  -43.7249 H         1 UNK         0.1346 
     72 H72        16.3148  -29.8222  -40.9980 H         1 UNK         0.1412 
     73 H73        16.0658  -29.1482  -45.2242 H         1 UNK         0.1426 
     74 H74        14.9050  -28.0206  -41.8605 H         1 UNK         0.0716 
     75 H75        14.4884  -28.0200  -43.5534 H         1 UNK         0.0716 
     76 H76        16.4591  -26.6516  -40.7573 H         1 UNK         0.0695 
     77 H77        17.2977  -25.2706  -41.3958 H         1 UNK         0.0695 
     78 H78        18.3195  -28.1455  -41.4972 H         1 UNK         0.0983 
     79 H79        19.9089  -27.5355  -42.8622 H         1 UNK         0.3095 
     80 H80        21.0205  -24.6392  -44.2978 H         1 UNK         0.0454 
     81 H81        22.8710  -26.1678  -42.4027 H         1 UNK         0.0851 
     82 H82        22.5824  -24.4301  -42.3823 H         1 UNK         0.0851 
     83 H83        23.3544  -25.1561  -43.7708 H         1 UNK         0.0851 
     84 H84        21.8339  -27.4816  -44.2280 H         1 UNK         0.2976 
     85 H85        19.3470  -28.9356  -39.7920 H         1 UNK         0.3116 
     86 H86        20.2028  -29.2480  -37.7966 H         1 UNK         0.0646 
     87 H87        17.9492  -28.4314  -37.0720 H         1 UNK         0.0847 
     88 H88        19.1873  -28.0959  -35.8753 H         1 UNK         0.0847 
     89 H89        18.5962  -26.7997  -36.9020 H         1 UNK         0.0847 
     90 H90        21.8306  -27.7451  -39.5890 H         1 UNK         0.3040 
     91 H91        23.7840  -26.6012  -37.6798 H         1 UNK         0.1015 
     92 H92        22.7589  -25.1339  -40.1632 H         1 UNK         0.0786 
     93 H93        24.1597  -24.6471  -39.2136 H         1 UNK         0.0786 
     94 H94        22.5584  -24.6237  -38.4939 H         1 UNK         0.0786 
     95 H95        23.7975  -29.0846  -38.5813 H         1 UNK         0.3172 
     96 H96        25.1060  -30.6845  -39.2542 H         1 UNK         0.0595 
     97 H97        27.2173  -28.5398  -39.8138 H         1 UNK         0.0839 
     98 H98        27.5155  -30.2628  -39.6551 H         1 UNK         0.0839 
     99 H99        26.9381  -29.3483  -38.2724 H         1 UNK         0.0839 
    100 H100       25.2929  -28.0998  -41.7098 H         1 UNK         0.2998 
    101 H101       26.2196  -29.6569  -43.8618 H         1 UNK         0.0822 
    102 H102       25.4427  -27.7621  -45.2787 H         1 UNK         0.0787 
    103 H103       24.5205  -27.1201  -43.9318 H         1 UNK         0.0787 
    104 H104       26.2787  -27.1833  -43.8441 H         1 UNK         0.0787 
    105 H105       25.3214  -31.4237  -44.5300 H         1 UNK         0.3055 
    106 H106       24.0972  -32.9980  -45.3815 H         1 UNK         0.1106 
    107 H107       23.5372  -31.4680  -47.2051 H         1 UNK         0.0828 
    108 H108       22.1366  -32.4661  -46.8445 H         1 UNK         0.0828 
    109 H109       22.1894  -30.8019  -46.2948 H         1 UNK         0.0828 
    110 H110       22.2642  -30.9142  -43.2478 H         1 UNK         0.2931 
    111 H111       20.2798  -32.8491  -42.4919 H         1 UNK         0.0412 
    112 H112       23.5384  -33.6717  -40.1563 H         1 UNK         0.3472 
    113 H113       23.6790  -32.4213  -41.3633 H         1 UNK         0.3472 
    114 H114       21.2290  -30.3397  -41.0359 H         1 UNK         0.0970 
    115 H115       19.9948  -30.3752  -42.2594 H         1 UNK         0.0970 
    116 H116       17.0187  -32.2751  -40.3625 H         1 UNK         0.0612 
    117 H117       18.1838  -33.0665  -41.3891 H         1 UNK         0.0612 
@<TRIPOS>BOND
     1    1    2 1    
     2    1   62 1    
     3    1   63 1    
     4    1   64 1    
     5    2    3 2    
     6    2    4 am   BACKBONE|DICT|INTERRES
     7    4    5 1    
     8    4   65 1    
     9    5    6 1    
    10    5   25 1    
    11    5   66 1    
    12    6    7 1    
    13    6   67 1    
    14    6   68 1    
    15    7    8 1    
    16    8    9 1    
    17    8   69 1    
    18    8   70 1    
    19    9   10 ar   
    20    9   14 ar   
    21   10   11 ar   
    22   10   71 1    
    23   11   12 ar   
    24   11   61 1    
    25   12   13 ar   
    26   12   72 1    
    27   13   14 ar   
    28   13   15 1    
    29   14   73 1    
    30   15   16 1    
    31   15   74 1    
    32   15   75 1    
    33   16   17 1    
    34   17   18 1    
    35   17   76 1    
    36   17   77 1    
    37   18   19 1    
    38   18   27 1    
    39   18   78 1    
    40   19   20 am   BACKBONE|DICT|INTERRES
    41   19   79 1    
    42   20   21 2    
    43   20   22 1    
    44   22   23 1    
    45   22   24 1    
    46   22   80 1    
    47   23   81 1    
    48   23   82 1    
    49   23   83 1    
    50   24   25 am   BACKBONE|DICT|INTERRES
    51   24   84 1    
    52   25   26 2    
    53   27   28 2    
    54   27   29 am   BACKBONE|DICT|INTERRES
    55   29   30 1    
    56   29   85 1    
    57   30   31 1    
    58   30   32 1    
    59   30   86 1    
    60   31   87 1    
    61   31   88 1    
    62   31   89 1    
    63   32   33 2    
    64   32   34 am   BACKBONE|DICT|INTERRES
    65   34   35 1    
    66   34   90 1    
    67   35   36 1    
    68   35   37 1    
    69   35   91 1    
    70   36   92 1    
    71   36   93 1    
    72   36   94 1    
    73   37   38 2    
    74   37   39 am   BACKBONE|DICT|INTERRES
    75   39   40 1    
    76   39   95 1    
    77   40   41 1    
    78   40   42 1    
    79   40   96 1    
    80   41   97 1    
    81   41   98 1    
    82   41   99 1    
    83   42   43 2    
    84   42   44 am   BACKBONE|DICT|INTERRES
    85   44   45 1    
    86   44  100 1    
    87   45   46 1    
    88   45   47 1    
    89   45  101 1    
    90   46  102 1    
    91   46  103 1    
    92   46  104 1    
    93   47   48 2    
    94   47   49 am   BACKBONE|DICT|INTERRES
    95   49   50 1    
    96   49  105 1    
    97   50   51 1    
    98   50   52 1    
    99   50  106 1    
   100   51  107 1    
   101   51  108 1    
   102   51  109 1    
   103   52   53 2    
   104   52   54 am   BACKBONE|DICT|INTERRES
   105   54   55 1    
   106   54  110 1    
   107   55   56 1    
   108   55   59 1    
   109   55  111 1    
   110   56   57 am   BACKBONE|DICT|INTERRES
   111   56   58 2    
   112   57  112 1    
   113   57  113 1    
   114   59   60 1    
   115   59  114 1    
   116   59  115 1    
   117   60   61 1    
   118   61  116 1    
   119   61  117 1    
@<TRIPOS>SUBSTRUCTURE
     1 UNK         1 GROUP             0       ****    0 ROOT    
