@<TRIPOS>MOLECULE
3R8
117   119    1
SMALL
USER_CHARGES


@<TRIPOS>ATOM
      1 CA         13.8419  -25.2857  -45.9580 C.3       0 UNK        -0.2013 
      2 C          15.1410  -25.9428  -45.5181 C.2       0 UNK         0.4866 
      3 O          16.2096  -25.3507  -45.6724 O.2       0 UNK        -0.5176 
      4 N          15.0600  -27.1599  -44.9650 N.am      1 UNK        -0.4884 
      5 CA         16.1906  -27.9599  -44.4769 C.3       1 UNK         0.0853 
      6 C6         15.8263  -29.4670  -44.4025 C.3       10 UNK        -0.0849 
      7 S7         15.8676  -30.2190  -46.0675 S.3       10 UNK        -0.2776 
      8 C8         17.4297  -31.1705  -46.0410 C.3       10 UNK         0.0316 
      9 C9         18.6088  -30.3547  -45.5230 C.ar      10 UNK        -0.0863 
     10 C10        19.1304  -30.6118  -44.2518 C.ar      10 UNK        -0.1009 
     11 C11        20.1614  -29.8255  -43.7336 C.ar      10 UNK        -0.0712 
     12 C12        20.6866  -28.7837  -44.5048 C.ar      10 UNK        -0.0894 
     13 C13        20.1897  -28.5282  -45.7871 C.ar      10 UNK        -0.0745 
     14 C14        19.1588  -29.3271  -46.2955 C.ar      10 UNK        -0.0972 
     15 C15        20.7504  -27.3824  -46.6196 C.3       10 UNK         0.0209 
     16 S16        19.4954  -26.0843  -46.8497 S.3       10 UNK        -0.2568 
     17 C17        20.3978  -24.5461  -46.4315 C.3       10 UNK        -0.0983 
     18 CA         20.5887  -24.2391  -44.9104 C.3       3 UNK         0.0876 
     19 N          19.6443  -24.9819  -44.0678 N.am      3 UNK        -0.4424 
     20 C          19.2699  -24.6832  -42.8168 C.2       2 UNK         0.4918 
     21 O          19.7440  -23.7470  -42.1731 O.2       2 UNK        -0.4875 
     22 CA         18.1633  -25.5624  -42.1987 C.3       2 UNK         0.0481 
     23 CB         17.2181  -24.7631  -41.2816 C.3       2 UNK        -0.1831 
     24 N          17.3962  -26.2363  -43.2478 N.am      2 UNK        -0.4498 
     25 C          16.7488  -27.4016  -43.1497 C.2       1 UNK         0.5027 
     26 O          16.5758  -28.0080  -42.0917 O.2       1 UNK        -0.4969 
     27 C          22.0644  -24.3984  -44.4854 C.2       3 UNK         0.5005 
     28 O          22.8977  -23.5901  -44.8993 O.2       3 UNK        -0.5279 
     29 N          22.3720  -25.4265  -43.6905 N.am      4 UNK        -0.4463 
     30 CA         23.6996  -25.7900  -43.2059 C.3       4 UNK         0.0283 
     31 CB         24.5232  -26.4226  -44.3477 C.3       4 UNK        -0.1875 
     32 C          23.5145  -26.7782  -42.0494 C.2       4 UNK         0.4949 
     33 O          22.3834  -27.1886  -41.7822 O.2       4 UNK        -0.5039 
     34 N          24.6201  -27.1713  -41.4040 N.am      5 UNK        -0.4663 
     35 CA         24.6378  -28.2760  -40.4395 C.3       5 UNK         0.0242 
     36 CB         25.9221  -28.2202  -39.5972 C.3       5 UNK        -0.1982 
     37 C          24.5041  -29.6365  -41.1437 C.2       5 UNK         0.5017 
     38 O          23.7379  -30.4868  -40.6891 O.2       5 UNK        -0.5012 
     39 N          25.2582  -29.8130  -42.2415 N.am      6 UNK        -0.4439 
     40 CA         25.2578  -30.9553  -43.1730 C.3       6 UNK         0.0297 
     41 CB         23.9596  -30.9440  -44.0066 C.3       6 UNK        -0.2006 
     42 C          25.5012  -32.3425  -42.5346 C.2       6 UNK         0.4892 
     43 O          25.2201  -33.3555  -43.1766 O.2       6 UNK        -0.5089 
     44 N          25.9875  -32.3637  -41.2832 N.am      7 UNK        -0.4243 
     45 CA         26.0886  -33.5183  -40.3813 C.3       7 UNK         0.0196 
     46 CB         27.1532  -34.5169  -40.8843 C.3       7 UNK        -0.2007 
     47 C          24.7255  -34.1883  -40.0903 C.2       7 UNK         0.5020 
     48 O          24.6869  -35.3926  -39.8312 O.2       7 UNK        -0.5147 
     49 N          23.6334  -33.4100  -40.1386 N.am      8 UNK        -0.4734 
     50 CA         22.2610  -33.9042  -39.9799 C.3       8 UNK         0.0238 
     51 CB         21.6699  -34.2432  -41.3599 C.3       8 UNK        -0.1912 
     52 C          21.3531  -32.9309  -39.2145 C.2       8 UNK         0.5038 
     53 O          20.5075  -33.3912  -38.4461 O.2       8 UNK        -0.5046 
     54 N          21.5375  -31.6205  -39.4170 N.am      9 UNK        -0.4200 
     55 CA         20.8067  -30.5528  -38.7153 C.3       9 UNK         0.0839 
     56 C          21.4524  -30.1539  -37.3563 C.2       9 UNK         0.5513 
     57 N          22.6274  -30.6591  -36.9978 N.am      9 UNK        -0.7519 
     58 O          20.8686  -29.3768  -36.6053 O.2       9 UNK        -0.4960 
     59 C59        20.6099  -29.3087  -39.6211 C.3       10 UNK        -0.0876 
     60 S60        19.5183  -29.6111  -41.0512 S.3       10 UNK        -0.2414 
     61 C61        20.7029  -30.1040  -42.3402 C.3       10 UNK         0.0169 
     62 H62        13.8748  -25.0700  -47.0256 H         1 UNK         0.0903 
     63 H63        12.9772  -25.9209  -45.7668 H         1 UNK         0.0903 
     64 H64        13.6980  -24.3463  -45.4249 H         1 UNK         0.0903 
     65 H65        14.1514  -27.5873  -44.8542 H         1 UNK         0.3096 
     66 H66        17.0066  -27.8554  -45.1960 H         1 UNK         0.1121 
     67 H67        14.8347  -29.6065  -43.9689 H         1 UNK         0.0849 
     68 H68        16.5045  -30.0185  -43.7503 H         1 UNK         0.0849 
     69 H69        17.6483  -31.5232  -47.0499 H         1 UNK         0.0865 
     70 H70        17.2861  -32.0652  -45.4329 H         1 UNK         0.0865 
     71 H71        18.7151  -31.4063  -43.6466 H         1 UNK         0.1346 
     72 H72        21.4841  -28.1752  -44.1041 H         1 UNK         0.1412 
     73 H73        18.7579  -29.1231  -47.2793 H         1 UNK         0.1426 
     74 H74        21.0601  -27.7575  -47.5959 H         1 UNK         0.0716 
     75 H75        21.6441  -26.9666  -46.1527 H         1 UNK         0.0716 
     76 H76        19.8138  -23.7350  -46.8691 H         1 UNK         0.0695 
     77 H77        21.3390  -24.5329  -46.9858 H         1 UNK         0.0695 
     78 H78        20.3690  -23.1789  -44.7639 H         1 UNK         0.0983 
     79 H79        19.2260  -25.7811  -44.5231 H         1 UNK         0.3095 
     80 H80        18.6716  -26.3212  -41.6000 H         1 UNK         0.0454 
     81 H81        16.6962  -23.9792  -41.8313 H         1 UNK         0.0851 
     82 H82        17.7674  -24.2852  -40.4696 H         1 UNK         0.0851 
     83 H83        16.4681  -25.4078  -40.8235 H         1 UNK         0.0851 
     84 H84        17.3323  -25.7543  -44.1421 H         1 UNK         0.2976 
     85 H85        21.6316  -26.0022  -43.3067 H         1 UNK         0.3116 
     86 H86        24.2023  -24.8983  -42.8259 H         1 UNK         0.0646 
     87 H87        25.5288  -26.6837  -44.0174 H         1 UNK         0.0847 
     88 H88        24.6371  -25.7376  -45.1877 H         1 UNK         0.0847 
     89 H89        24.0557  -27.3336  -44.7237 H         1 UNK         0.0847 
     90 H90        25.5080  -26.7579  -41.6518 H         1 UNK         0.3040 
     91 H91        23.7886  -28.1646  -39.7621 H         1 UNK         0.1015 
     92 H92        25.9880  -27.2846  -39.0413 H         1 UNK         0.0786 
     93 H93        25.9432  -29.0296  -38.8658 H         1 UNK         0.0786 
     94 H94        26.8203  -28.3089  -40.2094 H         1 UNK         0.0786 
     95 H95        25.8783  -29.0574  -42.4962 H         1 UNK         0.3172 
     96 H96        26.0921  -30.7872  -43.8554 H         1 UNK         0.0595 
     97 H97        23.0988  -31.2352  -43.4061 H         1 UNK         0.0839 
     98 H98        24.0214  -31.6449  -44.8399 H         1 UNK         0.0839 
     99 H99        23.7590  -29.9594  -44.4286 H         1 UNK         0.0839 
    100 H100       26.1840  -31.4676  -40.8610 H         1 UNK         0.2998 
    101 H101       26.4349  -33.1250  -39.4244 H         1 UNK         0.0822 
    102 H102       28.1045  -34.0203  -41.0752 H         1 UNK         0.0787 
    103 H103       27.3398  -35.2967  -40.1449 H         1 UNK         0.0787 
    104 H104       26.8419  -35.0114  -41.8050 H         1 UNK         0.0787 
    105 H105       23.7516  -32.4241  -40.3509 H         1 UNK         0.3055 
    106 H106       22.2755  -34.8217  -39.3865 H         1 UNK         0.1106 
    107 H107       20.6291  -34.5592  -41.2771 H         1 UNK         0.0828 
    108 H108       22.2188  -35.0579  -41.8325 H         1 UNK         0.0828 
    109 H109       21.7030  -33.3882  -42.0348 H         1 UNK         0.0828 
    110 H110       22.2784  -31.2976  -40.0327 H         1 UNK         0.2931 
    111 H111       19.8112  -30.9253  -38.4660 H         1 UNK         0.0412 
    112 H112       23.0284  -30.3959  -36.1113 H         1 UNK         0.3472 
    113 H113       23.1132  -31.3011  -37.6024 H         1 UNK         0.3472 
    114 H114       20.1517  -28.4949  -39.0559 H         1 UNK         0.0970 
    115 H115       21.5688  -28.9220  -39.9624 H         1 UNK         0.0970 
    116 H116       20.9150  -31.1674  -42.2359 H         1 UNK         0.0612 
    117 H117       21.6499  -29.5877  -42.1979 H         1 UNK         0.0612 
@<TRIPOS>BOND
     1    1    2 1    
     2    1   62 1    
     3    1   63 1    
     4    1   64 1    
     5    2    3 2    
     6    2    4 am   BACKBONE|DICT|INTERRES
     7    4    5 1    
     8    4   65 1    
     9    5    6 1    
    10    5   25 1    
    11    5   66 1    
    12    6    7 1    
    13    6   67 1    
    14    6   68 1    
    15    7    8 1    
    16    8    9 1    
    17    8   69 1    
    18    8   70 1    
    19    9   10 ar   
    20    9   14 ar   
    21   10   11 ar   
    22   10   71 1    
    23   11   12 ar   
    24   11   61 1    
    25   12   13 ar   
    26   12   72 1    
    27   13   14 ar   
    28   13   15 1    
    29   14   73 1    
    30   15   16 1    
    31   15   74 1    
    32   15   75 1    
    33   16   17 1    
    34   17   18 1    
    35   17   76 1    
    36   17   77 1    
    37   18   19 1    
    38   18   27 1    
    39   18   78 1    
    40   19   20 am   BACKBONE|DICT|INTERRES
    41   19   79 1    
    42   20   21 2    
    43   20   22 1    
    44   22   23 1    
    45   22   24 1    
    46   22   80 1    
    47   23   81 1    
    48   23   82 1    
    49   23   83 1    
    50   24   25 am   BACKBONE|DICT|INTERRES
    51   24   84 1    
    52   25   26 2    
    53   27   28 2    
    54   27   29 am   BACKBONE|DICT|INTERRES
    55   29   30 1    
    56   29   85 1    
    57   30   31 1    
    58   30   32 1    
    59   30   86 1    
    60   31   87 1    
    61   31   88 1    
    62   31   89 1    
    63   32   33 2    
    64   32   34 am   BACKBONE|DICT|INTERRES
    65   34   35 1    
    66   34   90 1    
    67   35   36 1    
    68   35   37 1    
    69   35   91 1    
    70   36   92 1    
    71   36   93 1    
    72   36   94 1    
    73   37   38 2    
    74   37   39 am   BACKBONE|DICT|INTERRES
    75   39   40 1    
    76   39   95 1    
    77   40   41 1    
    78   40   42 1    
    79   40   96 1    
    80   41   97 1    
    81   41   98 1    
    82   41   99 1    
    83   42   43 2    
    84   42   44 am   BACKBONE|DICT|INTERRES
    85   44   45 1    
    86   44  100 1    
    87   45   46 1    
    88   45   47 1    
    89   45  101 1    
    90   46  102 1    
    91   46  103 1    
    92   46  104 1    
    93   47   48 2    
    94   47   49 am   BACKBONE|DICT|INTERRES
    95   49   50 1    
    96   49  105 1    
    97   50   51 1    
    98   50   52 1    
    99   50  106 1    
   100   51  107 1    
   101   51  108 1    
   102   51  109 1    
   103   52   53 2    
   104   52   54 am   BACKBONE|DICT|INTERRES
   105   54   55 1    
   106   54  110 1    
   107   55   56 1    
   108   55   59 1    
   109   55  111 1    
   110   56   57 am   BACKBONE|DICT|INTERRES
   111   56   58 2    
   112   57  112 1    
   113   57  113 1    
   114   59   60 1    
   115   59  114 1    
   116   59  115 1    
   117   60   61 1    
   118   61  116 1    
   119   61  117 1    
@<TRIPOS>SUBSTRUCTURE
     1 UNK         1 GROUP             0       ****    0 ROOT    
