@<TRIPOS>MOLECULE
3R8
117   119    1
SMALL
USER_CHARGES


@<TRIPOS>ATOM
      1 CA         17.4260  -23.2365  -49.4041 C.3       0 UNK        -0.2013 
      2 C          18.4865  -23.7906  -48.4643 C.2       0 UNK         0.4866 
      3 O          19.6155  -23.2982  -48.4561 O.2       0 UNK        -0.5176 
      4 N          18.1368  -24.8170  -47.6798 N.am      1 UNK        -0.4884 
      5 CA         19.0122  -25.4440  -46.6850 C.3       1 UNK         0.0853 
      6 C6         18.4123  -26.7618  -46.1364 C.3       10 UNK        -0.0849 
      7 S7         18.1503  -28.0564  -47.3937 S.3       10 UNK        -0.2776 
      8 C8         18.9972  -29.4969  -46.6405 C.3       10 UNK         0.0316 
      9 C9         18.6244  -29.7891  -45.1828 C.ar      10 UNK        -0.0863 
     10 C10        19.5918  -30.3333  -44.3308 C.ar      10 UNK        -0.1009 
     11 C11        19.3041  -30.5930  -42.9869 C.ar      10 UNK        -0.0712 
     12 C12        18.0231  -30.3147  -42.4990 C.ar      10 UNK        -0.0894 
     13 C13        17.0546  -29.7369  -43.3249 C.ar      10 UNK        -0.0745 
     14 C14        17.3513  -29.5068  -44.6708 C.ar      10 UNK        -0.0972 
     15 C15        15.7001  -29.3268  -42.7587 C.3       10 UNK         0.0209 
     16 S16        15.8463  -28.2630  -41.2795 S.3       10 UNK        -0.2568 
     17 C17        16.7120  -26.7770  -41.9090 C.3       10 UNK        -0.0983 
     18 CA         18.2591  -26.8294  -41.7927 C.3       3 UNK         0.0876 
     19 N          18.8912  -25.6599  -42.4121 N.am      3 UNK        -0.4424 
     20 C          20.2123  -25.5123  -42.5879 C.2       2 UNK         0.4918 
     21 O          21.0487  -26.3262  -42.1938 O.2       2 UNK        -0.4875 
     22 CA         20.6582  -24.3186  -43.4493 C.3       2 UNK         0.0481 
     23 CB         22.1474  -23.9763  -43.2581 C.3       2 UNK        -0.1831 
     24 N          20.4251  -24.6906  -44.8435 N.am      2 UNK        -0.4498 
     25 C          19.2618  -24.5143  -45.4819 C.2       1 UNK         0.5027 
     26 O          18.3629  -23.7712  -45.0777 O.2       1 UNK        -0.4969 
     27 C          18.7681  -27.0594  -40.3518 C.2       3 UNK         0.5005 
     28 O          18.9173  -26.1008  -39.5905 O.2       3 UNK        -0.5279 
     29 N          19.0836  -28.3258  -40.0451 N.am      4 UNK        -0.4463 
     30 CA         19.7079  -28.8682  -38.8298 C.3       4 UNK         0.0283 
     31 CB         18.8982  -28.5241  -37.5649 C.3       4 UNK        -0.1875 
     32 C          21.1958  -28.5058  -38.6582 C.2       4 UNK         0.4949 
     33 O          21.9404  -29.3138  -38.1042 O.2       4 UNK        -0.5039 
     34 N          21.6122  -27.3250  -39.1321 N.am      5 UNK        -0.4663 
     35 CA         22.9972  -26.8508  -39.0978 C.3       5 UNK         0.0242 
     36 CB         23.0119  -25.3237  -39.2695 C.3       5 UNK        -0.1982 
     37 C          23.8897  -27.5236  -40.1550 C.2       5 UNK         0.5017 
     38 O          25.0745  -27.7332  -39.8904 O.2       5 UNK        -0.5012 
     39 N          23.3171  -27.8273  -41.3291 N.am      6 UNK        -0.4439 
     40 CA         23.9811  -28.4781  -42.4606 C.3       6 UNK         0.0297 
     41 CB         23.0057  -28.5496  -43.6466 C.3       6 UNK        -0.2006 
     42 C          24.5180  -29.8793  -42.1204 C.2       6 UNK         0.4892 
     43 O          23.8557  -30.6393  -41.4092 O.2       6 UNK        -0.5089 
     44 N          25.6925  -30.2004  -42.6826 N.am      7 UNK        -0.4243 
     45 CA         26.4714  -31.4212  -42.4352 C.3       7 UNK         0.0196 
     46 CB         27.7870  -31.3470  -43.2271 C.3       7 UNK        -0.2007 
     47 C          25.7429  -32.7428  -42.7355 C.2       7 UNK         0.5020 
     48 O          26.0948  -33.7655  -42.1476 O.2       7 UNK        -0.5147 
     49 N          24.7196  -32.7021  -43.6008 N.am      8 UNK        -0.4734 
     50 CA         23.8205  -33.8236  -43.8981 C.3       8 UNK         0.0238 
     51 CB         22.8477  -33.4059  -45.0134 C.3       8 UNK        -0.1912 
     52 C          23.0406  -34.3425  -42.6728 C.2       8 UNK         0.5038 
     53 O          22.6511  -35.5109  -42.6647 O.2       8 UNK        -0.5046 
     54 N          22.8460  -33.4788  -41.6682 N.am      9 UNK        -0.4200 
     55 CA         22.2374  -33.8038  -40.3716 C.3       9 UNK         0.0839 
     56 C          23.2814  -34.1953  -39.2845 C.2       9 UNK         0.5513 
     57 N          24.5735  -34.2771  -39.5830 N.am      9 UNK        -0.7519 
     58 O          22.9091  -34.4536  -38.1428 O.2       9 UNK        -0.4960 
     59 C59        21.3043  -32.6606  -39.8938 C.3       10 UNK        -0.0876 
     60 S60        19.8520  -32.4622  -40.9806 S.3       10 UNK        -0.2414 
     61 C61        20.4019  -31.1022  -42.0584 C.3       10 UNK         0.0169 
     62 H62        17.2391  -22.1864  -49.1809 H         1 UNK         0.0903 
     63 H63        17.7643  -23.3107  -50.4373 H         1 UNK         0.0903 
     64 H64        16.4823  -23.7748  -49.3172 H         1 UNK         0.0903 
     65 H65        17.1958  -25.1818  -47.7229 H         1 UNK         0.3096 
     66 H66        19.9693  -25.6607  -47.1652 H         1 UNK         0.1121 
     67 H67        17.4521  -26.5736  -45.6507 H         1 UNK         0.0849 
     68 H68        19.0627  -27.1638  -45.3570 H         1 UNK         0.0849 
     69 H69        18.7788  -30.3821  -47.2391 H         1 UNK         0.0865 
     70 H70        20.0726  -29.3302  -46.7216 H         1 UNK         0.0865 
     71 H71        20.5815  -30.5404  -44.7141 H         1 UNK         0.1346 
     72 H72        17.7838  -30.5120  -41.4630 H         1 UNK         0.1412 
     73 H73        16.5951  -29.0783  -45.3137 H         1 UNK         0.1426 
     74 H74        15.1440  -30.2264  -42.4920 H         1 UNK         0.0716 
     75 H75        15.1033  -28.8051  -43.5085 H         1 UNK         0.0716 
     76 H76        16.3284  -25.9127  -41.3640 H         1 UNK         0.0695 
     77 H77        16.4224  -26.6270  -42.9505 H         1 UNK         0.0695 
     78 H78        18.6036  -27.6688  -42.3964 H         1 UNK         0.0983 
     79 H79        18.2727  -24.9460  -42.7706 H         1 UNK         0.3095 
     80 H80        20.0672  -23.4422  -43.1752 H         1 UNK         0.0454 
     81 H81        22.7980  -24.8204  -43.4909 H         1 UNK         0.0851 
     82 H82        22.3484  -23.6836  -42.2275 H         1 UNK         0.0851 
     83 H83        22.4446  -23.1419  -43.8933 H         1 UNK         0.0851 
     84 H84        21.0971  -25.3339  -45.2380 H         1 UNK         0.2976 
     85 H85        18.9285  -29.0130  -40.7688 H         1 UNK         0.3116 
     86 H86        19.6711  -29.9523  -38.9493 H         1 UNK         0.0646 
     87 H87        18.9254  -27.4582  -37.3376 H         1 UNK         0.0847 
     88 H88        19.2986  -29.0474  -36.6957 H         1 UNK         0.0847 
     89 H89        17.8542  -28.8196  -37.6689 H         1 UNK         0.0847 
     90 H90        20.9192  -26.7095  -39.5434 H         1 UNK         0.3040 
     91 H91        23.4175  -27.0869  -38.1174 H         1 UNK         0.1015 
     92 H92        22.5757  -25.0222  -40.2217 H         1 UNK         0.0786 
     93 H93        24.0313  -24.9363  -39.2389 H         1 UNK         0.0786 
     94 H94        22.4535  -24.8300  -38.4740 H         1 UNK         0.0786 
     95 H95        22.3582  -27.5269  -41.4797 H         1 UNK         0.3172 
     96 H96        24.8234  -27.8450  -42.7469 H         1 UNK         0.0595 
     97 H97        23.4483  -29.0706  -44.4965 H         1 UNK         0.0839 
     98 H98        22.7282  -27.5532  -43.9903 H         1 UNK         0.0839 
     99 H99        22.0898  -29.0745  -43.3787 H         1 UNK         0.0839 
    100 H100       26.1354  -29.5118  -43.2743 H         1 UNK         0.2998 
    101 H101       26.7143  -31.4324  -41.3706 H         1 UNK         0.0822 
    102 H102       28.4049  -32.2273  -43.0430 H         1 UNK         0.0787 
    103 H103       27.6084  -31.2937  -44.3018 H         1 UNK         0.0787 
    104 H104       28.3766  -30.4762  -42.9394 H         1 UNK         0.0787 
    105 H105       24.5064  -31.8172  -44.0370 H         1 UNK         0.3055 
    106 H106       24.4324  -34.6516  -44.2629 H         1 UNK         0.1106 
    107 H107       22.1794  -34.2274  -45.2759 H         1 UNK         0.0828 
    108 H108       22.2237  -32.5641  -44.7120 H         1 UNK         0.0828 
    109 H109       23.3805  -33.1230  -45.9214 H         1 UNK         0.0828 
    110 H110       23.2319  -32.5429  -41.7425 H         1 UNK         0.2931 
    111 H111       21.6148  -34.6922  -40.4924 H         1 UNK         0.0412 
    112 H112       24.9119  -34.0980  -40.5212 H         1 UNK         0.3472 
    113 H113       25.2251  -34.5413  -38.8612 H         1 UNK         0.3472 
    114 H114       21.8514  -31.7191  -39.8135 H         1 UNK         0.0970 
    115 H115       20.9216  -32.8683  -38.8928 H         1 UNK         0.0970 
    116 H116       21.2588  -31.4449  -42.6385 H         1 UNK         0.0612 
    117 H117       20.7582  -30.2730  -41.4464 H         1 UNK         0.0612 
@<TRIPOS>BOND
     1    1    2 1    
     2    1   62 1    
     3    1   63 1    
     4    1   64 1    
     5    2    3 2    
     6    2    4 am   BACKBONE|DICT|INTERRES
     7    4    5 1    
     8    4   65 1    
     9    5    6 1    
    10    5   25 1    
    11    5   66 1    
    12    6    7 1    
    13    6   67 1    
    14    6   68 1    
    15    7    8 1    
    16    8    9 1    
    17    8   69 1    
    18    8   70 1    
    19    9   10 ar   
    20    9   14 ar   
    21   10   11 ar   
    22   10   71 1    
    23   11   12 ar   
    24   11   61 1    
    25   12   13 ar   
    26   12   72 1    
    27   13   14 ar   
    28   13   15 1    
    29   14   73 1    
    30   15   16 1    
    31   15   74 1    
    32   15   75 1    
    33   16   17 1    
    34   17   18 1    
    35   17   76 1    
    36   17   77 1    
    37   18   19 1    
    38   18   27 1    
    39   18   78 1    
    40   19   20 am   BACKBONE|DICT|INTERRES
    41   19   79 1    
    42   20   21 2    
    43   20   22 1    
    44   22   23 1    
    45   22   24 1    
    46   22   80 1    
    47   23   81 1    
    48   23   82 1    
    49   23   83 1    
    50   24   25 am   BACKBONE|DICT|INTERRES
    51   24   84 1    
    52   25   26 2    
    53   27   28 2    
    54   27   29 am   BACKBONE|DICT|INTERRES
    55   29   30 1    
    56   29   85 1    
    57   30   31 1    
    58   30   32 1    
    59   30   86 1    
    60   31   87 1    
    61   31   88 1    
    62   31   89 1    
    63   32   33 2    
    64   32   34 am   BACKBONE|DICT|INTERRES
    65   34   35 1    
    66   34   90 1    
    67   35   36 1    
    68   35   37 1    
    69   35   91 1    
    70   36   92 1    
    71   36   93 1    
    72   36   94 1    
    73   37   38 2    
    74   37   39 am   BACKBONE|DICT|INTERRES
    75   39   40 1    
    76   39   95 1    
    77   40   41 1    
    78   40   42 1    
    79   40   96 1    
    80   41   97 1    
    81   41   98 1    
    82   41   99 1    
    83   42   43 2    
    84   42   44 am   BACKBONE|DICT|INTERRES
    85   44   45 1    
    86   44  100 1    
    87   45   46 1    
    88   45   47 1    
    89   45  101 1    
    90   46  102 1    
    91   46  103 1    
    92   46  104 1    
    93   47   48 2    
    94   47   49 am   BACKBONE|DICT|INTERRES
    95   49   50 1    
    96   49  105 1    
    97   50   51 1    
    98   50   52 1    
    99   50  106 1    
   100   51  107 1    
   101   51  108 1    
   102   51  109 1    
   103   52   53 2    
   104   52   54 am   BACKBONE|DICT|INTERRES
   105   54   55 1    
   106   54  110 1    
   107   55   56 1    
   108   55   59 1    
   109   55  111 1    
   110   56   57 am   BACKBONE|DICT|INTERRES
   111   56   58 2    
   112   57  112 1    
   113   57  113 1    
   114   59   60 1    
   115   59  114 1    
   116   59  115 1    
   117   60   61 1    
   118   61  116 1    
   119   61  117 1    
@<TRIPOS>SUBSTRUCTURE
     1 UNK         1 GROUP             0       ****    0 ROOT    
