@<TRIPOS>MOLECULE
3R8
117   119    1
SMALL
USER_CHARGES


@<TRIPOS>ATOM
      1 CA         13.8591  -25.8242  -41.4002 C.3       0 UNK        -0.2013 
      2 C          14.8456  -25.9698  -42.5494 C.2       0 UNK         0.4866 
      3 O          14.6873  -25.3135  -43.5795 O.2       0 UNK        -0.5176 
      4 N          15.8565  -26.8319  -42.3857 N.am      1 UNK        -0.4884 
      5 CA         16.9219  -27.0695  -43.3649 C.3       1 UNK         0.0853 
      6 C6         17.7595  -28.3219  -43.0113 C.3       10 UNK        -0.0849 
      7 S7         16.7859  -29.8622  -42.9362 S.3       10 UNK        -0.2776 
      8 C8         16.9538  -30.4992  -44.6349 C.3       10 UNK         0.0316 
      9 C9         18.3060  -31.1565  -44.8824 C.ar      10 UNK        -0.0863 
     10 C10        18.5235  -32.4786  -44.4840 C.ar      10 UNK        -0.1009 
     11 C11        19.7403  -33.1131  -44.7538 C.ar      10 UNK        -0.0712 
     12 C12        20.7447  -32.4069  -45.4224 C.ar      10 UNK        -0.0894 
     13 C13        20.5415  -31.0880  -45.8420 C.ar      10 UNK        -0.0745 
     14 C14        19.3139  -30.4708  -45.5680 C.ar      10 UNK        -0.0972 
     15 C15        21.6353  -30.3978  -46.6608 C.3       10 UNK         0.0209 
     16 S16        21.6988  -28.5800  -46.5079 S.3       10 UNK        -0.2568 
     17 C17        22.2468  -28.4013  -44.7814 C.3       10 UNK        -0.0983 
     18 CA         22.2873  -26.9251  -44.3040 C.3       3 UNK         0.0876 
     19 N          20.9924  -26.2653  -44.5191 N.am      3 UNK        -0.4424 
     20 C          20.7571  -24.9498  -44.6105 C.2       2 UNK         0.4918 
     21 O          21.6187  -24.0906  -44.4235 O.2       2 UNK        -0.4875 
     22 CA         19.3225  -24.5162  -44.9698 C.3       2 UNK         0.0481 
     23 CB         19.2455  -24.1222  -46.4535 C.3       2 UNK        -0.1831 
     24 N          18.3196  -25.5519  -44.6947 N.am      2 UNK        -0.4498 
     25 C          17.8601  -25.8495  -43.4711 C.2       1 UNK         0.5027 
     26 O          18.1974  -25.2482  -42.4482 O.2       1 UNK        -0.4969 
     27 C          22.7865  -26.8215  -42.8424 C.2       3 UNK         0.5005 
     28 O          23.2683  -27.8155  -42.2934 O.2       3 UNK        -0.5279 
     29 N          22.6528  -25.6395  -42.2246 N.am      4 UNK        -0.4463 
     30 CA         23.0326  -25.3419  -40.8409 C.3       4 UNK         0.0283 
     31 CB         22.7273  -23.8675  -40.5346 C.3       4 UNK        -0.1875 
     32 C          24.5117  -25.6607  -40.5718 C.2       4 UNK         0.4949 
     33 O          25.3745  -25.2138  -41.3295 O.2       4 UNK        -0.5039 
     34 N          24.7607  -26.4776  -39.5397 N.am      5 UNK        -0.4663 
     35 CA         26.0439  -27.0629  -39.1148 C.3       5 UNK         0.0242 
     36 CB         27.0730  -25.9718  -38.7575 C.3       5 UNK        -0.1982 
     37 C          26.6474  -28.0975  -40.0885 C.2       5 UNK         0.5017 
     38 O          27.3506  -28.9986  -39.6300 O.2       5 UNK        -0.5012 
     39 N          26.3700  -27.9707  -41.3926 N.am      6 UNK        -0.4439 
     40 CA         26.8046  -28.8859  -42.4487 C.3       6 UNK         0.0297 
     41 CB         26.5846  -28.2289  -43.8213 C.3       6 UNK        -0.2006 
     42 C          26.1003  -30.2510  -42.3791 C.2       6 UNK         0.4892 
     43 O          26.7624  -31.2769  -42.5418 O.2       6 UNK        -0.5089 
     44 N          24.7852  -30.2404  -42.1314 N.am      7 UNK        -0.4243 
     45 CA         23.9536  -31.4296  -41.9791 C.3       7 UNK         0.0196 
     46 CB         23.5889  -32.0217  -43.3572 C.3       7 UNK        -0.2007 
     47 C          22.7368  -31.0598  -41.1260 C.2       7 UNK         0.5020 
     48 O          22.8016  -31.1922  -39.9041 O.2       7 UNK        -0.5147 
     49 N          21.6708  -30.5873  -41.7882 N.am      8 UNK        -0.4734 
     50 CA         20.3811  -30.1657  -41.2285 C.3       8 UNK         0.0238 
     51 CB         20.5303  -28.8904  -40.3705 C.3       8 UNK        -0.1912 
     52 C          19.6680  -31.3088  -40.4887 C.2       8 UNK         0.5038 
     53 O          19.4448  -31.2294  -39.2790 O.2       8 UNK        -0.5046 
     54 N          19.3632  -32.3702  -41.2430 N.am      9 UNK        -0.4200 
     55 CA         18.7964  -33.6309  -40.7420 C.3       9 UNK         0.0839 
     56 C          17.3525  -33.5329  -40.1693 C.2       9 UNK         0.5513 
     57 N          16.5851  -32.4932  -40.4740 N.am      9 UNK        -0.7519 
     58 O          16.9227  -34.4222  -39.4392 O.2       9 UNK        -0.4960 
     59 C59        18.8813  -34.7705  -41.7930 C.3       10 UNK        -0.0876 
     60 S60        20.4769  -34.8486  -42.6841 S.3       10 UNK        -0.2414 
     61 C61        19.9480  -34.5838  -44.4074 C.3       10 UNK         0.0169 
     62 H62        12.8535  -26.0779  -41.7345 H         1 UNK         0.0903 
     63 H63        14.1111  -26.4729  -40.5615 H         1 UNK         0.0903 
     64 H64        13.8501  -24.7951  -41.0421 H         1 UNK         0.0903 
     65 H65        15.9404  -27.3440  -41.5193 H         1 UNK         0.3096 
     66 H66        16.4489  -27.2285  -44.3367 H         1 UNK         0.1121 
     67 H67        18.2234  -28.1801  -42.0341 H         1 UNK         0.0849 
     68 H68        18.5800  -28.4565  -43.7170 H         1 UNK         0.0849 
     69 H69        16.1627  -31.2299  -44.8104 H         1 UNK         0.0865 
     70 H70        16.7768  -29.6937  -45.3492 H         1 UNK         0.0865 
     71 H71        17.7273  -33.0191  -43.9924 H         1 UNK         0.1346 
     72 H72        21.6773  -32.9032  -45.6549 H         1 UNK         0.1412 
     73 H73        19.1275  -29.4650  -45.9162 H         1 UNK         0.1426 
     74 H74        21.4762  -30.6445  -47.7111 H         1 UNK         0.0716 
     75 H75        22.6157  -30.7985  -46.3987 H         1 UNK         0.0716 
     76 H76        23.2338  -28.8605  -44.6985 H         1 UNK         0.0695 
     77 H77        21.5756  -28.9827  -44.1483 H         1 UNK         0.0695 
     78 H78        23.0293  -26.4030  -44.9121 H         1 UNK         0.0983 
     79 H79        20.2212  -26.8870  -44.7003 H         1 UNK         0.3095 
     80 H80        19.0857  -23.6328  -44.3729 H         1 UNK         0.0454 
     81 H81        19.4741  -24.9633  -47.1094 H         1 UNK         0.0851 
     82 H82        19.9575  -23.3283  -46.6836 H         1 UNK         0.0851 
     83 H83        18.2549  -23.7502  -46.7152 H         1 UNK         0.0851 
     84 H84        17.9822  -26.0747  -45.4910 H         1 UNK         0.2976 
     85 H85        22.2917  -24.8695  -42.7792 H         1 UNK         0.3116 
     86 H86        22.4104  -25.9632  -40.1935 H         1 UNK         0.0646 
     87 H87        21.6684  -23.6444  -40.6677 H         1 UNK         0.0847 
     88 H88        23.2958  -23.1962  -41.1797 H         1 UNK         0.0847 
     89 H89        22.9826  -23.6218  -39.5029 H         1 UNK         0.0847 
     90 H90        23.9610  -26.8095  -39.0172 H         1 UNK         0.3040 
     91 H91        25.8224  -27.6115  -38.1974 H         1 UNK         0.1015 
     92 H92        27.3867  -25.4014  -39.6321 H         1 UNK         0.0786 
     93 H93        27.9712  -26.4137  -38.3240 H         1 UNK         0.0786 
     94 H94        26.6714  -25.2713  -38.0253 H         1 UNK         0.0786 
     95 H95        25.8077  -27.1733  -41.6692 H         1 UNK         0.3172 
     96 H96        27.8760  -29.0567  -42.3242 H         1 UNK         0.0595 
     97 H97        25.5331  -28.0033  -43.9998 H         1 UNK         0.0839 
     98 H98        26.9177  -28.8862  -44.6256 H         1 UNK         0.0839 
     99 H99        27.1461  -27.2987  -43.9101 H         1 UNK         0.0839 
    100 H100       24.3077  -29.3460  -42.0185 H         1 UNK         0.2998 
    101 H101       24.5116  -32.1844  -41.4203 H         1 UNK         0.0822 
    102 H102       24.4693  -32.4309  -43.8526 H         1 UNK         0.0787 
    103 H103       22.8717  -32.8374  -43.2561 H         1 UNK         0.0787 
    104 H104       23.1582  -31.2753  -44.0232 H         1 UNK         0.0787 
    105 H105       21.7457  -30.5389  -42.7935 H         1 UNK         0.3055 
    106 H106       19.7537  -29.9238  -42.0839 H         1 UNK         0.1106 
    107 H107       21.2094  -29.0398  -39.5311 H         1 UNK         0.0828 
    108 H108       19.5696  -28.5821  -39.9565 H         1 UNK         0.0828 
    109 H109       20.9054  -28.0567  -40.9608 H         1 UNK         0.0828 
    110 H110       19.6011  -32.3607  -42.2245 H         1 UNK         0.2931 
    111 H111       19.4306  -33.9275  -39.9041 H         1 UNK         0.0412 
    112 H112       15.6524  -32.4417  -40.0959 H         1 UNK         0.3472 
    113 H113       16.9245  -31.7613  -41.0793 H         1 UNK         0.3472 
    114 H114       18.0656  -34.6913  -42.5119 H         1 UNK         0.0970 
    115 H115       18.7335  -35.7332  -41.3001 H         1 UNK         0.0970 
    116 H116       19.0376  -35.1500  -44.6091 H         1 UNK         0.0612 
    117 H117       20.7090  -35.0110  -45.0622 H         1 UNK         0.0612 
@<TRIPOS>BOND
     1    1    2 1    
     2    1   62 1    
     3    1   63 1    
     4    1   64 1    
     5    2    3 2    
     6    2    4 am   BACKBONE|DICT|INTERRES
     7    4    5 1    
     8    4   65 1    
     9    5    6 1    
    10    5   25 1    
    11    5   66 1    
    12    6    7 1    
    13    6   67 1    
    14    6   68 1    
    15    7    8 1    
    16    8    9 1    
    17    8   69 1    
    18    8   70 1    
    19    9   10 ar   
    20    9   14 ar   
    21   10   11 ar   
    22   10   71 1    
    23   11   12 ar   
    24   11   61 1    
    25   12   13 ar   
    26   12   72 1    
    27   13   14 ar   
    28   13   15 1    
    29   14   73 1    
    30   15   16 1    
    31   15   74 1    
    32   15   75 1    
    33   16   17 1    
    34   17   18 1    
    35   17   76 1    
    36   17   77 1    
    37   18   19 1    
    38   18   27 1    
    39   18   78 1    
    40   19   20 am   BACKBONE|DICT|INTERRES
    41   19   79 1    
    42   20   21 2    
    43   20   22 1    
    44   22   23 1    
    45   22   24 1    
    46   22   80 1    
    47   23   81 1    
    48   23   82 1    
    49   23   83 1    
    50   24   25 am   BACKBONE|DICT|INTERRES
    51   24   84 1    
    52   25   26 2    
    53   27   28 2    
    54   27   29 am   BACKBONE|DICT|INTERRES
    55   29   30 1    
    56   29   85 1    
    57   30   31 1    
    58   30   32 1    
    59   30   86 1    
    60   31   87 1    
    61   31   88 1    
    62   31   89 1    
    63   32   33 2    
    64   32   34 am   BACKBONE|DICT|INTERRES
    65   34   35 1    
    66   34   90 1    
    67   35   36 1    
    68   35   37 1    
    69   35   91 1    
    70   36   92 1    
    71   36   93 1    
    72   36   94 1    
    73   37   38 2    
    74   37   39 am   BACKBONE|DICT|INTERRES
    75   39   40 1    
    76   39   95 1    
    77   40   41 1    
    78   40   42 1    
    79   40   96 1    
    80   41   97 1    
    81   41   98 1    
    82   41   99 1    
    83   42   43 2    
    84   42   44 am   BACKBONE|DICT|INTERRES
    85   44   45 1    
    86   44  100 1    
    87   45   46 1    
    88   45   47 1    
    89   45  101 1    
    90   46  102 1    
    91   46  103 1    
    92   46  104 1    
    93   47   48 2    
    94   47   49 am   BACKBONE|DICT|INTERRES
    95   49   50 1    
    96   49  105 1    
    97   50   51 1    
    98   50   52 1    
    99   50  106 1    
   100   51  107 1    
   101   51  108 1    
   102   51  109 1    
   103   52   53 2    
   104   52   54 am   BACKBONE|DICT|INTERRES
   105   54   55 1    
   106   54  110 1    
   107   55   56 1    
   108   55   59 1    
   109   55  111 1    
   110   56   57 am   BACKBONE|DICT|INTERRES
   111   56   58 2    
   112   57  112 1    
   113   57  113 1    
   114   59   60 1    
   115   59  114 1    
   116   59  115 1    
   117   60   61 1    
   118   61  116 1    
   119   61  117 1    
@<TRIPOS>SUBSTRUCTURE
     1 UNK         1 GROUP             0       ****    0 ROOT    
