@<TRIPOS>MOLECULE
3R8
117   119    1
SMALL
USER_CHARGES


@<TRIPOS>ATOM
      1 CA         16.4860  -24.8021  -48.5894 C.3       0 UNK        -0.2013 
      2 C          17.2040  -25.6313  -47.5356 C.2       0 UNK         0.4866 
      3 O          16.9821  -25.4236  -46.3428 O.2       0 UNK        -0.5176 
      4 N          18.0781  -26.5512  -47.9691 N.am      1 UNK        -0.4884 
      5 CA         18.8603  -27.5273  -47.1852 C.3       1 UNK         0.0853 
      6 C6         18.0029  -28.4800  -46.3127 C.3       10 UNK        -0.0849 
      7 S7         16.6793  -29.3555  -47.2167 S.3       10 UNK        -0.2776 
      8 C8         16.4012  -30.8246  -46.1601 C.3       10 UNK         0.0316 
      9 C9         16.4526  -30.5187  -44.6649 C.ar      10 UNK        -0.0863 
     10 C10        17.3158  -31.2391  -43.8326 C.ar      10 UNK        -0.1009 
     11 C11        17.4175  -30.9254  -42.4741 C.ar      10 UNK        -0.0712 
     12 C12        16.6485  -29.8852  -41.9458 C.ar      10 UNK        -0.0894 
     13 C13        15.7938  -29.1502  -42.7696 C.ar      10 UNK        -0.0745 
     14 C14        15.6767  -29.4900  -44.1200 C.ar      10 UNK        -0.0972 
     15 C15        15.0305  -27.9584  -42.2184 C.3       10 UNK         0.0209 
     16 S16        15.9443  -26.4105  -42.5170 S.3       10 UNK        -0.2568 
     17 C17        17.1672  -26.3965  -41.1588 C.3       10 UNK        -0.0983 
     18 CA         18.6148  -26.7571  -41.5914 C.3       3 UNK         0.0876 
     19 N          19.0646  -25.9635  -42.7400 N.am      3 UNK        -0.4424 
     20 C          20.2792  -25.9808  -43.3080 C.2       2 UNK         0.4918 
     21 O          21.2237  -26.6670  -42.9116 O.2       2 UNK        -0.4875 
     22 CA         20.4120  -25.1206  -44.5779 C.3       2 UNK         0.0481 
     23 CB         21.8701  -24.7924  -44.9616 C.3       2 UNK        -0.1831 
     24 N          19.6822  -25.7590  -45.6772 N.am      2 UNK        -0.4498 
     25 C          19.9676  -26.9107  -46.3023 C.2       1 UNK         0.5027 
     26 O          21.0349  -27.5128  -46.1901 O.2       1 UNK        -0.4969 
     27 C          19.5747  -26.6259  -40.3881 C.2       3 UNK         0.5005 
     28 O          19.6975  -25.5344  -39.8274 O.2       3 UNK        -0.5279 
     29 N          20.2398  -27.7350  -40.0345 N.am      4 UNK        -0.4463 
     30 CA         21.2029  -27.8967  -38.9378 C.3       4 UNK         0.0283 
     31 CB         20.5102  -27.7082  -37.5714 C.3       4 UNK        -0.1875 
     32 C          22.4877  -27.0505  -39.0674 C.2       4 UNK         0.4949 
     33 O          23.1839  -26.8621  -38.0687 O.2       4 UNK        -0.5039 
     34 N          22.8119  -26.5759  -40.2799 N.am      5 UNK        -0.4663 
     35 CA         24.0246  -25.7936  -40.5557 C.3       5 UNK         0.0242 
     36 CB         23.8025  -24.9509  -41.8204 C.3       5 UNK        -0.1982 
     37 C          25.2908  -26.6579  -40.7070 C.2       5 UNK         0.5017 
     38 O          26.3932  -26.1088  -40.7309 O.2       5 UNK        -0.5012 
     39 N          25.1189  -27.9784  -40.8194 N.am      6 UNK        -0.4439 
     40 CA         26.1683  -28.9807  -40.9586 C.3       6 UNK         0.0297 
     41 CB         26.5193  -29.1521  -42.4482 C.3       6 UNK        -0.2006 
     42 C          25.6684  -30.2951  -40.3488 C.2       6 UNK         0.4892 
     43 O          24.4695  -30.4277  -40.0795 O.2       6 UNK        -0.5089 
     44 N          26.5912  -31.2488  -40.1612 N.am      7 UNK        -0.4243 
     45 CA         26.3151  -32.6049  -39.6780 C.3       7 UNK         0.0196 
     46 CB         27.6347  -33.3829  -39.5482 C.3       7 UNK        -0.2007 
     47 C          25.3364  -33.3369  -40.6104 C.2       7 UNK         0.5020 
     48 O          25.6052  -33.4402  -41.8096 O.2       7 UNK        -0.5147 
     49 N          24.1944  -33.7625  -40.0509 N.am      8 UNK        -0.4734 
     50 CA         23.0353  -34.3488  -40.7444 C.3       8 UNK         0.0238 
     51 CB         23.3841  -35.7501  -41.2908 C.3       8 UNK        -0.1912 
     52 C          22.4247  -33.4304  -41.8280 C.2       8 UNK         0.5038 
     53 O          21.7732  -33.9285  -42.7478 O.2       8 UNK        -0.5046 
     54 N          22.6569  -32.1149  -41.7049 N.am      9 UNK        -0.4200 
     55 CA         22.3041  -31.0674  -42.6761 C.3       9 UNK         0.0839 
     56 C          23.0928  -31.1633  -44.0178 C.2       9 UNK         0.5513 
     57 N          24.2310  -31.8486  -44.0689 N.am      9 UNK        -0.7519 
     58 O          22.6850  -30.5927  -45.0251 O.2       9 UNK        -0.4960 
     59 C59        20.7708  -30.8935  -42.8736 C.3       10 UNK        -0.0876 
     60 S60        19.8874  -30.7020  -41.2862 S.3       10 UNK        -0.2414 
     61 C61        18.3836  -31.6799  -41.5766 C.3       10 UNK         0.0169 
     62 H62        16.7119  -23.7448  -48.4531 H         1 UNK         0.0903 
     63 H63        16.7774  -25.0842  -49.6010 H         1 UNK         0.0903 
     64 H64        15.4083  -24.9349  -48.4981 H         1 UNK         0.0903 
     65 H65        18.2196  -26.6278  -48.9672 H         1 UNK         0.3096 
     66 H66        19.3753  -28.1428  -47.9251 H         1 UNK         0.1121 
     67 H67        17.5417  -27.9275  -45.4915 H         1 UNK         0.0849 
     68 H68        18.6467  -29.2296  -45.8467 H         1 UNK         0.0849 
     69 H69        15.4303  -31.2584  -46.4026 H         1 UNK         0.0865 
     70 H70        17.1462  -31.5778  -46.4216 H         1 UNK         0.0865 
     71 H71        17.9260  -32.0314  -44.2442 H         1 UNK         0.1346 
     72 H72        16.7439  -29.6269  -40.9001 H         1 UNK         0.1412 
     73 H73        15.0234  -28.9146  -44.7622 H         1 UNK         0.1426 
     74 H74        14.0573  -27.8904  -42.7071 H         1 UNK         0.0716 
     75 H75        14.8269  -28.0804  -41.1535 H         1 UNK         0.0716 
     76 H76        16.8320  -27.0679  -40.3664 H         1 UNK         0.0695 
     77 H77        17.1414  -25.3940  -40.7268 H         1 UNK         0.0695 
     78 H78        18.6154  -27.7969  -41.9239 H         1 UNK         0.0983 
     79 H79        18.3495  -25.3853  -43.1569 H         1 UNK         0.3095 
     80 H80        19.9073  -24.1726  -44.3856 H         1 UNK         0.0454 
     81 H81        22.4897  -25.6855  -45.0460 H         1 UNK         0.0851 
     82 H82        22.3283  -24.1506  -44.2097 H         1 UNK         0.0851 
     83 H83        21.9199  -24.2602  -45.9112 H         1 UNK         0.0851 
     84 H84        18.7413  -25.4051  -45.8421 H         1 UNK         0.2976 
     85 H85        20.0868  -28.5744  -40.5822 H         1 UNK         0.3116 
     86 H86        21.5345  -28.9350  -38.9918 H         1 UNK         0.0646 
     87 H87        19.6228  -28.3351  -37.4860 H         1 UNK         0.0847 
     88 H88        21.1757  -27.9820  -36.7518 H         1 UNK         0.0847 
     89 H89        20.2078  -26.6731  -37.4105 H         1 UNK         0.0847 
     90 H90        22.1921  -26.7504  -41.0654 H         1 UNK         0.3040 
     91 H91        24.1975  -25.1098  -39.7215 H         1 UNK         0.1015 
     92 H92        23.7015  -25.5809  -42.7046 H         1 UNK         0.0786 
     93 H93        24.6432  -24.2783  -41.9956 H         1 UNK         0.0786 
     94 H94        22.9063  -24.3358  -41.7362 H         1 UNK         0.0786 
     95 H95        24.1886  -28.3614  -40.7080 H         1 UNK         0.3172 
     96 H96        27.0536  -28.6638  -40.4031 H         1 UNK         0.0595 
     97 H97        25.6525  -29.4653  -43.0313 H         1 UNK         0.0839 
     98 H98        27.2968  -29.9034  -42.5909 H         1 UNK         0.0839 
     99 H99        26.8899  -28.2212  -42.8774 H         1 UNK         0.0839 
    100 H100       27.5440  -31.0578  -40.4354 H         1 UNK         0.2998 
    101 H101       25.8691  -32.5177  -38.6849 H         1 UNK         0.0822 
    102 H102       27.4563  -34.3923  -39.1750 H         1 UNK         0.0787 
    103 H103       28.1445  -33.4763  -40.5082 H         1 UNK         0.0787 
    104 H104       28.3169  -32.8964  -38.8507 H         1 UNK         0.0787 
    105 H105       24.0654  -33.6008  -39.0606 H         1 UNK         0.3055 
    106 H106       22.2552  -34.4727  -39.9913 H         1 UNK         0.1106 
    107 H107       22.4970  -36.2530  -41.6780 H         1 UNK         0.0828 
    108 H108       24.1079  -35.6983  -42.1047 H         1 UNK         0.0828 
    109 H109       23.8002  -36.3884  -40.5115 H         1 UNK         0.0828 
    110 H110       23.2229  -31.7926  -40.9276 H         1 UNK         0.2931 
    111 H111       22.6621  -30.1413  -42.2248 H         1 UNK         0.0412 
    112 H112       24.7330  -31.8990  -44.9408 H         1 UNK         0.3472 
    113 H113       24.5847  -32.3399  -43.2558 H         1 UNK         0.3472 
    114 H114       20.3645  -31.7423  -43.4251 H         1 UNK         0.0970 
    115 H115       20.5616  -30.0103  -43.4807 H         1 UNK         0.0970 
    116 H116       17.9053  -31.8841  -40.6176 H         1 UNK         0.0612 
    117 H117       18.6455  -32.6503  -42.0017 H         1 UNK         0.0612 
@<TRIPOS>BOND
     1    1    2 1    
     2    1   62 1    
     3    1   63 1    
     4    1   64 1    
     5    2    3 2    
     6    2    4 am   BACKBONE|DICT|INTERRES
     7    4    5 1    
     8    4   65 1    
     9    5    6 1    
    10    5   25 1    
    11    5   66 1    
    12    6    7 1    
    13    6   67 1    
    14    6   68 1    
    15    7    8 1    
    16    8    9 1    
    17    8   69 1    
    18    8   70 1    
    19    9   10 ar   
    20    9   14 ar   
    21   10   11 ar   
    22   10   71 1    
    23   11   12 ar   
    24   11   61 1    
    25   12   13 ar   
    26   12   72 1    
    27   13   14 ar   
    28   13   15 1    
    29   14   73 1    
    30   15   16 1    
    31   15   74 1    
    32   15   75 1    
    33   16   17 1    
    34   17   18 1    
    35   17   76 1    
    36   17   77 1    
    37   18   19 1    
    38   18   27 1    
    39   18   78 1    
    40   19   20 am   BACKBONE|DICT|INTERRES
    41   19   79 1    
    42   20   21 2    
    43   20   22 1    
    44   22   23 1    
    45   22   24 1    
    46   22   80 1    
    47   23   81 1    
    48   23   82 1    
    49   23   83 1    
    50   24   25 am   BACKBONE|DICT|INTERRES
    51   24   84 1    
    52   25   26 2    
    53   27   28 2    
    54   27   29 am   BACKBONE|DICT|INTERRES
    55   29   30 1    
    56   29   85 1    
    57   30   31 1    
    58   30   32 1    
    59   30   86 1    
    60   31   87 1    
    61   31   88 1    
    62   31   89 1    
    63   32   33 2    
    64   32   34 am   BACKBONE|DICT|INTERRES
    65   34   35 1    
    66   34   90 1    
    67   35   36 1    
    68   35   37 1    
    69   35   91 1    
    70   36   92 1    
    71   36   93 1    
    72   36   94 1    
    73   37   38 2    
    74   37   39 am   BACKBONE|DICT|INTERRES
    75   39   40 1    
    76   39   95 1    
    77   40   41 1    
    78   40   42 1    
    79   40   96 1    
    80   41   97 1    
    81   41   98 1    
    82   41   99 1    
    83   42   43 2    
    84   42   44 am   BACKBONE|DICT|INTERRES
    85   44   45 1    
    86   44  100 1    
    87   45   46 1    
    88   45   47 1    
    89   45  101 1    
    90   46  102 1    
    91   46  103 1    
    92   46  104 1    
    93   47   48 2    
    94   47   49 am   BACKBONE|DICT|INTERRES
    95   49   50 1    
    96   49  105 1    
    97   50   51 1    
    98   50   52 1    
    99   50  106 1    
   100   51  107 1    
   101   51  108 1    
   102   51  109 1    
   103   52   53 2    
   104   52   54 am   BACKBONE|DICT|INTERRES
   105   54   55 1    
   106   54  110 1    
   107   55   56 1    
   108   55   59 1    
   109   55  111 1    
   110   56   57 am   BACKBONE|DICT|INTERRES
   111   56   58 2    
   112   57  112 1    
   113   57  113 1    
   114   59   60 1    
   115   59  114 1    
   116   59  115 1    
   117   60   61 1    
   118   61  116 1    
   119   61  117 1    
@<TRIPOS>SUBSTRUCTURE
     1 UNK         1 GROUP             0       ****    0 ROOT    
