@<TRIPOS>MOLECULE
3R8
117   119    1
SMALL
USER_CHARGES


@<TRIPOS>ATOM
      1 CA         14.2880  -22.0950  -42.7506 C.3       0 UNK        -0.2013 
      2 C          15.0886  -22.6233  -43.9313 C.2       0 UNK         0.4866 
      3 O          15.5944  -21.8336  -44.7287 O.2       0 UNK        -0.5176 
      4 N          15.1973  -23.9525  -44.0511 N.am      1 UNK        -0.4884 
      5 CA         15.9768  -24.6597  -45.0739 C.3       1 UNK         0.0853 
      6 C6         15.6083  -26.1649  -45.1535 C.3       10 UNK        -0.0849 
      7 S7         15.4752  -27.0019  -43.5289 S.3       10 UNK        -0.2776 
      8 C8         15.3744  -28.7514  -44.0205 C.3       10 UNK         0.0316 
      9 C9         16.7587  -29.3476  -44.2182 C.ar      10 UNK        -0.0863 
     10 C10        17.4207  -29.9596  -43.1488 C.ar      10 UNK        -0.1009 
     11 C11        18.6985  -30.4995  -43.3224 C.ar      10 UNK        -0.0712 
     12 C12        19.3175  -30.4156  -44.5725 C.ar      10 UNK        -0.0894 
     13 C13        18.6744  -29.7829  -45.6406 C.ar      10 UNK        -0.0745 
     14 C14        17.3856  -29.2757  -45.4647 C.ar      10 UNK        -0.0972 
     15 C15        19.3749  -29.6154  -46.9800 C.3       10 UNK         0.0209 
     16 S16        20.0240  -27.9228  -47.1810 S.3       10 UNK        -0.2568 
     17 C17        21.4413  -27.9455  -46.0346 C.3       10 UNK        -0.0983 
     18 CA         21.7315  -26.5754  -45.3720 C.3       3 UNK         0.0876 
     19 N          20.5823  -26.0561  -44.6170 N.am      3 UNK        -0.4424 
     20 C          20.5172  -24.8114  -44.1247 C.2       2 UNK         0.4918 
     21 O          21.3479  -23.9366  -44.3828 O.2       2 UNK        -0.4875 
     22 CA         19.3386  -24.4977  -43.1781 C.3       2 UNK         0.0481 
     23 CB         19.3599  -23.0394  -42.6737 C.3       2 UNK        -0.1831 
     24 N          18.0100  -24.8047  -43.7209 N.am      2 UNK        -0.4498 
     25 C          17.4908  -24.4192  -44.8970 C.2       1 UNK         0.5027 
     26 O          18.1228  -23.8513  -45.7889 O.2       1 UNK        -0.4969 
     27 C          22.9631  -26.7156  -44.4515 C.2       3 UNK         0.5005 
     28 O          22.8054  -26.9085  -43.2436 O.2       3 UNK        -0.5279 
     29 N          24.1694  -26.7136  -45.0386 N.am      4 UNK        -0.4463 
     30 CA         25.4431  -26.9311  -44.3326 C.3       4 UNK         0.0283 
     31 CB         26.6076  -26.7721  -45.3231 C.3       4 UNK        -0.1875 
     32 C          25.5406  -28.2881  -43.6036 C.2       4 UNK         0.4949 
     33 O          26.2908  -28.4064  -42.6350 O.2       4 UNK        -0.5039 
     34 N          24.7554  -29.2734  -44.0606 N.am      5 UNK        -0.4663 
     35 CA         24.5946  -30.5898  -43.4441 C.3       5 UNK         0.0242 
     36 CB         23.8629  -31.5138  -44.4316 C.3       5 UNK        -0.1982 
     37 C          23.8523  -30.5738  -42.0953 C.2       5 UNK         0.5017 
     38 O          23.9481  -31.5641  -41.3705 O.2       5 UNK        -0.5012 
     39 N          23.1341  -29.4865  -41.7626 N.am      6 UNK        -0.4439 
     40 CA         22.2775  -29.3556  -40.5714 C.3       6 UNK         0.0297 
     41 CB         21.4371  -28.0722  -40.6734 C.3       6 UNK        -0.2006 
     42 C          22.9853  -29.4505  -39.2060 C.2       6 UNK         0.4892 
     43 O          22.2997  -29.5094  -38.1847 O.2       6 UNK        -0.5089 
     44 N          24.3230  -29.5219  -39.2001 N.am      7 UNK        -0.4243 
     45 CA         25.1325  -29.9153  -38.0448 C.3       7 UNK         0.0196 
     46 CB         26.6174  -29.7012  -38.3793 C.3       7 UNK        -0.2007 
     47 C          24.8862  -31.3715  -37.5939 C.2       7 UNK         0.5020 
     48 O          25.1305  -31.6794  -36.4268 O.2       7 UNK        -0.5147 
     49 N          24.4079  -32.2328  -38.5046 N.am      8 UNK        -0.4734 
     50 CA         24.0442  -33.6256  -38.2253 C.3       8 UNK         0.0238 
     51 CB         25.1950  -34.5559  -38.6452 C.3       8 UNK        -0.1912 
     52 C          22.7317  -34.0379  -38.9111 C.2       8 UNK         0.5038 
     53 O          21.9445  -34.7644  -38.3031 O.2       8 UNK        -0.5046 
     54 N          22.5141  -33.5713  -40.1484 N.am      9 UNK        -0.4200 
     55 CA         21.3900  -33.9152  -41.0313 C.3       9 UNK         0.0839 
     56 C          21.3412  -35.4262  -41.4206 C.2       9 UNK         0.5513 
     57 N          20.2127  -35.9208  -41.9100 N.am      9 UNK        -0.7519 
     58 O          22.3336  -36.1472  -41.3334 O.2       9 UNK        -0.4960 
     59 C59        20.0418  -33.3241  -40.5197 C.3       10 UNK        -0.0876 
     60 S60        18.9172  -32.8558  -41.8818 S.3       10 UNK        -0.2414 
     61 C61        19.4291  -31.1342  -42.1514 C.3       10 UNK         0.0169 
     62 H62        13.4510  -21.4931  -43.1036 H         1 UNK         0.0903 
     63 H63        13.8898  -22.9006  -42.1339 H         1 UNK         0.0903 
     64 H64        14.9184  -21.4668  -42.1216 H         1 UNK         0.0903 
     65 H65        14.7593  -24.5524  -43.3650 H         1 UNK         0.3096 
     66 H66        15.7137  -24.2169  -46.0378 H         1 UNK         0.1121 
     67 H67        16.3193  -26.6915  -45.7897 H         1 UNK         0.0849 
     68 H68        14.6418  -26.2674  -45.6497 H         1 UNK         0.0849 
     69 H69        14.8419  -29.3043  -43.2450 H         1 UNK         0.0865 
     70 H70        14.7767  -28.8535  -44.9277 H         1 UNK         0.0865 
     71 H71        16.9449  -30.0118  -42.1788 H         1 UNK         0.1346 
     72 H72        20.3104  -30.8217  -44.7064 H         1 UNK         0.1412 
     73 H73        16.8841  -28.8036  -46.2977 H         1 UNK         0.1426 
     74 H74        18.6712  -29.8229  -47.7875 H         1 UNK         0.0716 
     75 H75        20.1875  -30.3355  -47.0894 H         1 UNK         0.0716 
     76 H76        22.3059  -28.2861  -46.6076 H         1 UNK         0.0695 
     77 H77        21.2778  -28.6989  -45.2648 H         1 UNK         0.0695 
     78 H78        21.9716  -25.8525  -46.1550 H         1 UNK         0.0983 
     79 H79        19.8651  -26.7225  -44.3729 H         1 UNK         0.3095 
     80 H80        19.4700  -25.1455  -42.3100 H         1 UNK         0.0454 
     81 H81        19.2339  -22.3290  -43.4918 H         1 UNK         0.0851 
     82 H82        20.3049  -22.8069  -42.1812 H         1 UNK         0.0851 
     83 H83        18.5664  -22.8579  -41.9490 H         1 UNK         0.0851 
     84 H84        17.3894  -25.3039  -43.0972 H         1 UNK         0.2976 
     85 H85        24.2276  -26.5625  -46.0362 H         1 UNK         0.3116 
     86 H86        25.5323  -26.1521  -43.5726 H         1 UNK         0.0646 
     87 H87        26.5598  -27.5090  -46.1258 H         1 UNK         0.0847 
     88 H88        27.5675  -26.9012  -44.8206 H         1 UNK         0.0847 
     89 H89        26.6139  -25.7802  -45.7753 H         1 UNK         0.0847 
     90 H90        24.1886  -29.0824  -44.8729 H         1 UNK         0.3040 
     91 H91        25.5893  -31.0010  -43.2573 H         1 UNK         0.1015 
     92 H92        22.8645  -31.1439  -44.6682 H         1 UNK         0.0786 
     93 H93        23.7485  -32.5173  -44.0186 H         1 UNK         0.0786 
     94 H94        24.4153  -31.6134  -45.3663 H         1 UNK         0.0786 
     95 H95        23.1385  -28.6869  -42.3908 H         1 UNK         0.3172 
     96 H96        21.5909  -30.2009  -40.5840 H         1 UNK         0.0595 
     97 H97        22.0647  -27.1804  -40.6602 H         1 UNK         0.0839 
     98 H98        20.7378  -27.9903  -39.8402 H         1 UNK         0.0839 
     99 H99        20.8467  -28.0549  -41.5899 H         1 UNK         0.0839 
    100 H100       24.8009  -29.4518  -40.0873 H         1 UNK         0.2998 
    101 H101       24.8676  -29.2633  -37.2097 H         1 UNK         0.0822 
    102 H102       26.8222  -28.6603  -38.6306 H         1 UNK         0.0787 
    103 H103       27.2502  -29.9588  -37.5287 H         1 UNK         0.0787 
    104 H104       26.9344  -30.3189  -39.2208 H         1 UNK         0.0787 
    105 H105       24.2392  -31.8930  -39.4463 H         1 UNK         0.3055 
    106 H106       23.8793  -33.7514  -37.1525 H         1 UNK         0.1106 
    107 H107       25.4236  -34.4602  -39.7074 H         1 UNK         0.0828 
    108 H108       24.9421  -35.6004  -38.4576 H         1 UNK         0.0828 
    109 H109       26.1045  -34.3371  -38.0854 H         1 UNK         0.0828 
    110 H110       23.2132  -32.9745  -40.5826 H         1 UNK         0.2931 
    111 H111       21.6447  -33.4044  -41.9608 H         1 UNK         0.0412 
    112 H112       19.4045  -35.3260  -42.0213 H         1 UNK         0.3472 
    113 H113       20.1721  -36.8901  -42.1840 H         1 UNK         0.3472 
    114 H114       20.2215  -32.4353  -39.9124 H         1 UNK         0.0970 
    115 H115       19.5355  -34.0264  -39.8549 H         1 UNK         0.0970 
    116 H116       19.2509  -30.5526  -41.2457 H         1 UNK         0.0612 
    117 H117       20.5035  -31.1150  -42.3369 H         1 UNK         0.0612 
@<TRIPOS>BOND
     1    1    2 1    
     2    1   62 1    
     3    1   63 1    
     4    1   64 1    
     5    2    3 2    
     6    2    4 am   BACKBONE|DICT|INTERRES
     7    4    5 1    
     8    4   65 1    
     9    5    6 1    
    10    5   25 1    
    11    5   66 1    
    12    6    7 1    
    13    6   67 1    
    14    6   68 1    
    15    7    8 1    
    16    8    9 1    
    17    8   69 1    
    18    8   70 1    
    19    9   10 ar   
    20    9   14 ar   
    21   10   11 ar   
    22   10   71 1    
    23   11   12 ar   
    24   11   61 1    
    25   12   13 ar   
    26   12   72 1    
    27   13   14 ar   
    28   13   15 1    
    29   14   73 1    
    30   15   16 1    
    31   15   74 1    
    32   15   75 1    
    33   16   17 1    
    34   17   18 1    
    35   17   76 1    
    36   17   77 1    
    37   18   19 1    
    38   18   27 1    
    39   18   78 1    
    40   19   20 am   BACKBONE|DICT|INTERRES
    41   19   79 1    
    42   20   21 2    
    43   20   22 1    
    44   22   23 1    
    45   22   24 1    
    46   22   80 1    
    47   23   81 1    
    48   23   82 1    
    49   23   83 1    
    50   24   25 am   BACKBONE|DICT|INTERRES
    51   24   84 1    
    52   25   26 2    
    53   27   28 2    
    54   27   29 am   BACKBONE|DICT|INTERRES
    55   29   30 1    
    56   29   85 1    
    57   30   31 1    
    58   30   32 1    
    59   30   86 1    
    60   31   87 1    
    61   31   88 1    
    62   31   89 1    
    63   32   33 2    
    64   32   34 am   BACKBONE|DICT|INTERRES
    65   34   35 1    
    66   34   90 1    
    67   35   36 1    
    68   35   37 1    
    69   35   91 1    
    70   36   92 1    
    71   36   93 1    
    72   36   94 1    
    73   37   38 2    
    74   37   39 am   BACKBONE|DICT|INTERRES
    75   39   40 1    
    76   39   95 1    
    77   40   41 1    
    78   40   42 1    
    79   40   96 1    
    80   41   97 1    
    81   41   98 1    
    82   41   99 1    
    83   42   43 2    
    84   42   44 am   BACKBONE|DICT|INTERRES
    85   44   45 1    
    86   44  100 1    
    87   45   46 1    
    88   45   47 1    
    89   45  101 1    
    90   46  102 1    
    91   46  103 1    
    92   46  104 1    
    93   47   48 2    
    94   47   49 am   BACKBONE|DICT|INTERRES
    95   49   50 1    
    96   49  105 1    
    97   50   51 1    
    98   50   52 1    
    99   50  106 1    
   100   51  107 1    
   101   51  108 1    
   102   51  109 1    
   103   52   53 2    
   104   52   54 am   BACKBONE|DICT|INTERRES
   105   54   55 1    
   106   54  110 1    
   107   55   56 1    
   108   55   59 1    
   109   55  111 1    
   110   56   57 am   BACKBONE|DICT|INTERRES
   111   56   58 2    
   112   57  112 1    
   113   57  113 1    
   114   59   60 1    
   115   59  114 1    
   116   59  115 1    
   117   60   61 1    
   118   61  116 1    
   119   61  117 1    
@<TRIPOS>SUBSTRUCTURE
     1 UNK         1 GROUP             0       ****    0 ROOT    
