@<TRIPOS>MOLECULE
3R8
117   119    1
SMALL
USER_CHARGES


@<TRIPOS>ATOM
      1 CA         15.2659  -25.3977  -40.1447 C.3       0 UNK        -0.2013 
      2 C          15.3175  -25.5079  -41.6613 C.2       0 UNK         0.4866 
      3 O          14.2840  -25.3936  -42.3206 O.2       0 UNK        -0.5176 
      4 N          16.5118  -25.7263  -42.2184 N.am      1 UNK        -0.4884 
      5 CA         16.7835  -25.8290  -43.6505 C.3       1 UNK         0.0853 
      6 C6         16.3755  -27.2106  -44.2245 C.3       10 UNK        -0.0849 
      7 S7         16.0224  -27.1465  -46.0141 S.3       10 UNK        -0.2776 
      8 C8         15.4275  -28.8428  -46.3197 C.3       10 UNK         0.0316 
      9 C9         16.5026  -29.8701  -46.0011 C.ar      10 UNK        -0.0863 
     10 C10        16.4302  -30.6285  -44.8284 C.ar      10 UNK        -0.1009 
     11 C11        17.4620  -31.5084  -44.4896 C.ar      10 UNK        -0.0712 
     12 C12        18.5543  -31.6520  -45.3486 C.ar      10 UNK        -0.0894 
     13 C13        18.6396  -30.8918  -46.5195 C.ar      10 UNK        -0.0745 
     14 C14        17.6023  -30.0167  -46.8506 C.ar      10 UNK        -0.0972 
     15 C15        19.8866  -30.9601  -47.3887 C.3       10 UNK         0.0209 
     16 S16        20.9298  -29.4757  -47.1875 S.3       10 UNK        -0.2568 
     17 C17        21.3349  -29.5504  -45.4077 C.3       10 UNK        -0.0983 
     18 CA         21.7588  -28.1956  -44.7914 C.3       3 UNK         0.0876 
     19 N          20.8283  -27.1123  -45.1247 N.am      3 UNK        -0.4424 
     20 C          21.1428  -25.8111  -45.1202 C.2       2 UNK         0.4918 
     21 O          22.2503  -25.3771  -44.8021 O.2       2 UNK        -0.4875 
     22 CA         20.0249  -24.8231  -45.5035 C.3       2 UNK         0.0481 
     23 CB         20.0532  -24.5523  -47.0159 C.3       2 UNK        -0.1831 
     24 N          18.6713  -25.2385  -45.1105 N.am      2 UNK        -0.4498 
     25 C          18.2773  -25.5188  -43.8606 C.2       1 UNK         0.5027 
     26 O          19.0469  -25.5474  -42.8956 O.2       1 UNK        -0.4969 
     27 C          21.9851  -28.3558  -43.2697 C.2       3 UNK         0.5005 
     28 O          22.7934  -29.2010  -42.8813 O.2       3 UNK        -0.5279 
     29 N          21.2806  -27.5850  -42.4225 N.am      4 UNK        -0.4463 
     30 CA         21.4479  -27.6119  -40.9645 C.3       4 UNK         0.0283 
     31 CB         20.3139  -26.8305  -40.2854 C.3       4 UNK        -0.1875 
     32 C          22.8201  -27.0941  -40.5012 C.2       4 UNK         0.4949 
     33 O          23.3117  -27.5301  -39.4604 O.2       4 UNK        -0.5039 
     34 N          23.4461  -26.2197  -41.3018 N.am      5 UNK        -0.4663 
     35 CA         24.8136  -25.7229  -41.1211 C.3       5 UNK         0.0242 
     36 CB         24.9401  -24.3631  -41.8335 C.3       5 UNK        -0.1982 
     37 C          25.8646  -26.7480  -41.6023 C.2       5 UNK         0.5017 
     38 O          26.7581  -26.4025  -42.3776 O.2       5 UNK        -0.5012 
     39 N          25.7257  -27.9954  -41.1445 N.am      6 UNK        -0.4439 
     40 CA         26.5630  -29.1492  -41.4563 C.3       6 UNK         0.0297 
     41 CB         26.3043  -29.6453  -42.8980 C.3       6 UNK        -0.2006 
     42 C          26.3150  -30.2094  -40.3708 C.2       6 UNK         0.4892 
     43 O          26.1988  -29.8510  -39.1960 O.2       6 UNK        -0.5089 
     44 N          26.2266  -31.4882  -40.7595 N.am      7 UNK        -0.4243 
     45 CA         25.9756  -32.6354  -39.8823 C.3       7 UNK         0.0196 
     46 CB         26.4378  -33.9169  -40.6011 C.3       7 UNK        -0.2007 
     47 C          24.5032  -32.7119  -39.4293 C.2       7 UNK         0.5020 
     48 O          23.7893  -33.6441  -39.8025 O.2       7 UNK        -0.5147 
     49 N          24.0713  -31.7095  -38.6525 N.am      8 UNK        -0.4734 
     50 CA         22.7500  -31.4955  -38.0382 C.3       8 UNK         0.0238 
     51 CB         22.3852  -32.6408  -37.0735 C.3       8 UNK        -0.1912 
     52 C          21.6011  -31.2210  -39.0263 C.2       8 UNK         0.5038 
     53 O          20.7811  -30.3448  -38.7529 O.2       8 UNK        -0.5046 
     54 N          21.5598  -31.9553  -40.1401 N.am      9 UNK        -0.4200 
     55 CA         20.6334  -31.7958  -41.2616 C.3       9 UNK         0.0839 
     56 C          21.2159  -32.5592  -42.4756 C.2       9 UNK         0.5513 
     57 N          22.2027  -31.9900  -43.1521 N.am      9 UNK        -0.7519 
     58 O          20.8092  -33.6745  -42.7903 O.2       9 UNK        -0.4960 
     59 C59        19.1634  -32.1772  -40.9092 C.3       10 UNK        -0.0876 
     60 S60        17.9588  -31.1512  -41.8158 S.3       10 UNK        -0.2414 
     61 C61        17.4285  -32.2532  -43.1655 C.3       10 UNK         0.0169 
     62 H62        16.2499  -25.5233  -39.6931 H         1 UNK         0.0903 
     63 H63        14.8803  -24.4215  -39.8520 H         1 UNK         0.0903 
     64 H64        14.6056  -26.1619  -39.7356 H         1 UNK         0.0903 
     65 H65        17.3529  -25.7588  -41.6534 H         1 UNK         0.3096 
     66 H66        16.2129  -25.0411  -44.1483 H         1 UNK         0.1121 
     67 H67        17.1395  -27.9630  -44.0178 H         1 UNK         0.0849 
     68 H68        15.4678  -27.5695  -43.7368 H         1 UNK         0.0849 
     69 H69        14.5271  -29.0243  -45.7304 H         1 UNK         0.0865 
     70 H70        15.1326  -28.9358  -47.3660 H         1 UNK         0.0865 
     71 H71        15.5951  -30.5008  -44.1529 H         1 UNK         0.1346 
     72 H72        19.3655  -32.3141  -45.0766 H         1 UNK         0.1412 
     73 H73        17.6764  -29.4103  -47.7434 H         1 UNK         0.1426 
     74 H74        19.5961  -31.0526  -48.4361 H         1 UNK         0.0716 
     75 H75        20.4765  -31.8473  -47.1527 H         1 UNK         0.0716 
     76 H76        20.4828  -29.9388  -44.8527 H         1 UNK         0.0695 
     77 H77        22.1344  -30.2837  -45.2936 H         1 UNK         0.0695 
     78 H78        22.7316  -27.9381  -45.2166 H         1 UNK         0.0983 
     79 H79        19.9011  -27.3901  -45.4115 H         1 UNK         0.3095 
     80 H80        20.2346  -23.8839  -44.9876 H         1 UNK         0.0454 
     81 H81        21.0416  -24.2179  -47.3347 H         1 UNK         0.0851 
     82 H82        19.8114  -25.4471  -47.5911 H         1 UNK         0.0851 
     83 H83        19.3454  -23.7714  -47.2943 H         1 UNK         0.0851 
     84 H84        17.9804  -25.2798  -45.8477 H         1 UNK         0.2976 
     85 H85        20.6126  -26.9163  -42.7919 H         1 UNK         0.3116 
     86 H86        21.3740  -28.6515  -40.6475 H         1 UNK         0.0646 
     87 H87        20.3900  -26.9043  -39.1996 H         1 UNK         0.0847 
     88 H88        19.3374  -27.2244  -40.5670 H         1 UNK         0.0847 
     89 H89        20.3412  -25.7712  -40.5432 H         1 UNK         0.0847 
     90 H90        22.9827  -25.9516  -42.1593 H         1 UNK         0.3040 
     91 H91        24.9929  -25.5597  -40.0559 H         1 UNK         0.1015 
     92 H92        24.7805  -24.4555  -42.9089 H         1 UNK         0.0786 
     93 H93        25.9311  -23.9321  -41.6846 H         1 UNK         0.0786 
     94 H94        24.2164  -23.6447  -41.4479 H         1 UNK         0.0786 
     95 H95        24.9923  -28.1669  -40.4619 H         1 UNK         0.3172 
     96 H96        27.6085  -28.8468  -41.3719 H         1 UNK         0.0595 
     97 H97        26.9987  -30.4386  -43.1768 H         1 UNK         0.0839 
     98 H98        26.4402  -28.8457  -43.6261 H         1 UNK         0.0839 
     99 H99        25.2907  -30.0281  -43.0199 H         1 UNK         0.0839 
    100 H100       26.2958  -31.6890  -41.7467 H         1 UNK         0.2998 
    101 H101       26.5842  -32.5245  -38.9820 H         1 UNK         0.0822 
    102 H102       25.8840  -34.0847  -41.5259 H         1 UNK         0.0787 
    103 H103       27.4988  -33.8733  -40.8480 H         1 UNK         0.0787 
    104 H104       26.2903  -34.7938  -39.9691 H         1 UNK         0.0787 
    105 H105       24.7399  -30.9577  -38.5003 H         1 UNK         0.3055 
    106 H106       22.8546  -30.5880  -37.4404 H         1 UNK         0.1106 
    107 H107       22.2513  -33.5889  -37.5950 H         1 UNK         0.0828 
    108 H108       23.1552  -32.7808  -36.3149 H         1 UNK         0.0828 
    109 H109       21.4520  -32.4258  -36.5512 H         1 UNK         0.0828 
    110 H110       22.2829  -32.6616  -40.2629 H         1 UNK         0.2931 
    111 H111       20.6551  -30.7355  -41.5202 H         1 UNK         0.0412 
    112 H112       22.6131  -32.4842  -43.9274 H         1 UNK         0.3472 
    113 H113       22.5218  -31.0520  -42.9215 H         1 UNK         0.3472 
    114 H114       18.9674  -31.9973  -39.8519 H         1 UNK         0.0970 
    115 H115       18.9621  -33.2401  -41.0515 H         1 UNK         0.0970 
    116 H116       16.4188  -32.6121  -42.9614 H         1 UNK         0.0612 
    117 H117       18.0661  -33.1367  -43.2159 H         1 UNK         0.0612 
@<TRIPOS>BOND
     1    1    2 1    
     2    1   62 1    
     3    1   63 1    
     4    1   64 1    
     5    2    3 2    
     6    2    4 am   BACKBONE|DICT|INTERRES
     7    4    5 1    
     8    4   65 1    
     9    5    6 1    
    10    5   25 1    
    11    5   66 1    
    12    6    7 1    
    13    6   67 1    
    14    6   68 1    
    15    7    8 1    
    16    8    9 1    
    17    8   69 1    
    18    8   70 1    
    19    9   10 ar   
    20    9   14 ar   
    21   10   11 ar   
    22   10   71 1    
    23   11   12 ar   
    24   11   61 1    
    25   12   13 ar   
    26   12   72 1    
    27   13   14 ar   
    28   13   15 1    
    29   14   73 1    
    30   15   16 1    
    31   15   74 1    
    32   15   75 1    
    33   16   17 1    
    34   17   18 1    
    35   17   76 1    
    36   17   77 1    
    37   18   19 1    
    38   18   27 1    
    39   18   78 1    
    40   19   20 am   BACKBONE|DICT|INTERRES
    41   19   79 1    
    42   20   21 2    
    43   20   22 1    
    44   22   23 1    
    45   22   24 1    
    46   22   80 1    
    47   23   81 1    
    48   23   82 1    
    49   23   83 1    
    50   24   25 am   BACKBONE|DICT|INTERRES
    51   24   84 1    
    52   25   26 2    
    53   27   28 2    
    54   27   29 am   BACKBONE|DICT|INTERRES
    55   29   30 1    
    56   29   85 1    
    57   30   31 1    
    58   30   32 1    
    59   30   86 1    
    60   31   87 1    
    61   31   88 1    
    62   31   89 1    
    63   32   33 2    
    64   32   34 am   BACKBONE|DICT|INTERRES
    65   34   35 1    
    66   34   90 1    
    67   35   36 1    
    68   35   37 1    
    69   35   91 1    
    70   36   92 1    
    71   36   93 1    
    72   36   94 1    
    73   37   38 2    
    74   37   39 am   BACKBONE|DICT|INTERRES
    75   39   40 1    
    76   39   95 1    
    77   40   41 1    
    78   40   42 1    
    79   40   96 1    
    80   41   97 1    
    81   41   98 1    
    82   41   99 1    
    83   42   43 2    
    84   42   44 am   BACKBONE|DICT|INTERRES
    85   44   45 1    
    86   44  100 1    
    87   45   46 1    
    88   45   47 1    
    89   45  101 1    
    90   46  102 1    
    91   46  103 1    
    92   46  104 1    
    93   47   48 2    
    94   47   49 am   BACKBONE|DICT|INTERRES
    95   49   50 1    
    96   49  105 1    
    97   50   51 1    
    98   50   52 1    
    99   50  106 1    
   100   51  107 1    
   101   51  108 1    
   102   51  109 1    
   103   52   53 2    
   104   52   54 am   BACKBONE|DICT|INTERRES
   105   54   55 1    
   106   54  110 1    
   107   55   56 1    
   108   55   59 1    
   109   55  111 1    
   110   56   57 am   BACKBONE|DICT|INTERRES
   111   56   58 2    
   112   57  112 1    
   113   57  113 1    
   114   59   60 1    
   115   59  114 1    
   116   59  115 1    
   117   60   61 1    
   118   61  116 1    
   119   61  117 1    
@<TRIPOS>SUBSTRUCTURE
     1 UNK         1 GROUP             0       ****    0 ROOT    
