@<TRIPOS>MOLECULE
3R8
117   119    1
SMALL
USER_CHARGES


@<TRIPOS>ATOM
      1 CA         14.6872  -30.9811  -43.1734 C.3       0 UNK        -0.2013 
      2 C          14.8175  -29.4727  -43.0246 C.2       0 UNK         0.4866 
      3 O          14.1332  -28.8795  -42.1907 O.2       0 UNK        -0.5176 
      4 N          15.6830  -28.8460  -43.8323 N.am      1 UNK        -0.4884 
      5 CA         15.9013  -27.3931  -43.8544 C.3       1 UNK         0.0853 
      6 C6         16.5359  -26.8934  -45.1827 C.3       10 UNK        -0.0849 
      7 S7         15.7730  -27.6306  -46.6767 S.3       10 UNK        -0.2776 
      8 C8         17.2070  -28.1777  -47.6757 C.3       10 UNK         0.0316 
      9 C9         18.2772  -28.9108  -46.8722 C.ar      10 UNK        -0.0863 
     10 C10        17.9490  -30.0216  -46.0882 C.ar      10 UNK        -0.1009 
     11 C11        18.9178  -30.6313  -45.2859 C.ar      10 UNK        -0.0712 
     12 C12        20.2350  -30.1653  -45.3180 C.ar      10 UNK        -0.0894 
     13 C13        20.5817  -29.0740  -46.1181 C.ar      10 UNK        -0.0745 
     14 C14        19.5979  -28.4483  -46.8893 C.ar      10 UNK        -0.0972 
     15 C15        22.0194  -28.5747  -46.1460 C.3       10 UNK         0.0209 
     16 S16        22.5192  -27.8170  -44.5685 S.3       10 UNK        -0.2568 
     17 C17        21.6025  -26.2352  -44.5867 C.3       10 UNK        -0.0983 
     18 CA         21.1570  -25.7562  -43.1806 C.3       3 UNK         0.0876 
     19 N          20.2555  -26.7185  -42.5385 N.am      3 UNK        -0.4424 
     20 C          19.5677  -26.5048  -41.4083 C.2       2 UNK         0.4918 
     21 O          19.6661  -25.4875  -40.7200 O.2       2 UNK        -0.4875 
     22 CA         18.5587  -27.6048  -41.0323 C.3       2 UNK         0.0481 
     23 CB         17.8555  -27.3525  -39.6835 C.3       2 UNK        -0.1831 
     24 N          17.5760  -27.8180  -42.1017 N.am      2 UNK        -0.4498 
     25 C          16.7463  -26.9149  -42.6549 C.2       1 UNK         0.5027 
     26 O          16.6411  -25.7467  -42.2796 O.2       1 UNK        -0.4969 
     27 C          22.3693  -25.3474  -42.3161 C.2       3 UNK         0.5005 
     28 O          22.8553  -24.2253  -42.4647 O.2       3 UNK        -0.5279 
     29 N          22.8469  -26.2673  -41.4615 N.am      4 UNK        -0.4463 
     30 CA         24.0338  -26.1673  -40.6021 C.3       4 UNK         0.0283 
     31 CB         23.9459  -24.9706  -39.6321 C.3       4 UNK        -0.1875 
     32 C          25.3664  -26.1987  -41.3754 C.2       4 UNK         0.4949 
     33 O          26.4238  -26.0565  -40.7599 O.2       4 UNK        -0.5039 
     34 N          25.3220  -26.4525  -42.6910 N.am      5 UNK        -0.4663 
     35 CA         26.4815  -26.6294  -43.5685 C.3       5 UNK         0.0242 
     36 CB         26.0789  -26.2566  -45.0077 C.3       5 UNK        -0.1982 
     37 C          27.0165  -28.0677  -43.4502 C.2       5 UNK         0.5017 
     38 O          26.9960  -28.8213  -44.4243 O.2       5 UNK        -0.5012 
     39 N          27.4267  -28.4274  -42.2251 N.am      6 UNK        -0.4439 
     40 CA         27.8166  -29.7654  -41.7640 C.3       6 UNK         0.0297 
     41 CB         29.0881  -30.2579  -42.4883 C.3       6 UNK        -0.2006 
     42 C          26.6642  -30.7933  -41.8104 C.2       6 UNK         0.4892 
     43 O          26.9279  -31.9950  -41.8837 O.2       6 UNK        -0.5089 
     44 N          25.4132  -30.3165  -41.7443 N.am      7 UNK        -0.4243 
     45 CA         24.2037  -31.1312  -41.7310 C.3       7 UNK         0.0196 
     46 CB         23.7523  -31.4360  -43.1708 C.3       7 UNK        -0.2007 
     47 C          23.1070  -30.3922  -40.9588 C.2       7 UNK         0.5020 
     48 O          22.8413  -29.2227  -41.2440 O.2       7 UNK        -0.5147 
     49 N          22.4769  -31.1028  -40.0179 N.am      8 UNK        -0.4734 
     50 CA         21.3066  -30.6515  -39.2540 C.3       8 UNK         0.0238 
     51 CB         21.6364  -30.7151  -37.7518 C.3       8 UNK        -0.1912 
     52 C          20.0514  -31.4834  -39.5866 C.2       8 UNK         0.5038 
     53 O          19.0271  -31.3185  -38.9236 O.2       8 UNK        -0.5046 
     54 N          20.1561  -32.3573  -40.5989 N.am      9 UNK        -0.4200 
     55 CA         19.1029  -33.2421  -41.1305 C.3       9 UNK         0.0839 
     56 C          18.7143  -34.4327  -40.2032 C.2       9 UNK         0.5513 
     57 N          19.4778  -34.7385  -39.1611 N.am      9 UNK        -0.7519 
     58 O          17.7216  -35.1135  -40.4487 O.2       9 UNK        -0.4960 
     59 C59        17.8543  -32.4860  -41.6727 C.3       10 UNK        -0.0876 
     60 S60        18.2607  -31.0251  -42.6829 S.3       10 UNK        -0.2414 
     61 C61        18.5344  -31.7430  -44.3264 C.3       10 UNK         0.0169 
     62 H62        15.3185  -31.3689  -43.9722 H         1 UNK         0.0903 
     63 H63        14.9716  -31.4746  -42.2447 H         1 UNK         0.0903 
     64 H64        13.6552  -31.2480  -43.3989 H         1 UNK         0.0903 
     65 H65        16.2167  -29.3718  -44.5089 H         1 UNK         0.3096 
     66 H66        14.9234  -26.9146  -43.7606 H         1 UNK         0.1121 
     67 H67        17.6111  -27.0747  -45.1842 H         1 UNK         0.0849 
     68 H68        16.4294  -25.8094  -45.2561 H         1 UNK         0.0849 
     69 H69        16.8526  -28.8323  -48.4730 H         1 UNK         0.0865 
     70 H70        17.6310  -27.3016  -48.1687 H         1 UNK         0.0865 
     71 H71        16.9303  -30.3836  -46.0742 H         1 UNK         0.1346 
     72 H72        20.9862  -30.6321  -44.6955 H         1 UNK         0.1412 
     73 H73        19.8607  -27.5923  -47.4960 H         1 UNK         0.1426 
     74 H74        22.1728  -27.8580  -46.9544 H         1 UNK         0.0716 
     75 H75        22.6824  -29.4158  -46.3535 H         1 UNK         0.0716 
     76 H76        20.7226  -26.3389  -45.2224 H         1 UNK         0.0695 
     77 H77        22.2256  -25.4809  -45.0712 H         1 UNK         0.0695 
     78 H78        20.5735  -24.8437  -43.3219 H         1 UNK         0.0983 
     79 H79        20.1245  -27.5898  -43.0321 H         1 UNK         0.3095 
     80 H80        19.1260  -28.5319  -40.9388 H         1 UNK         0.0454 
     81 H81        17.2688  -26.4334  -39.6948 H         1 UNK         0.0851 
     82 H82        18.5833  -27.2642  -38.8761 H         1 UNK         0.0851 
     83 H83        17.1870  -28.1746  -39.4280 H         1 UNK         0.0851 
     84 H84        17.5624  -28.7516  -42.4936 H         1 UNK         0.2976 
     85 H85        22.4206  -27.1900  -41.4751 H         1 UNK         0.3116 
     86 H86        24.0264  -27.0727  -39.9938 H         1 UNK         0.0646 
     87 H87        24.0517  -24.0165  -40.1485 H         1 UNK         0.0847 
     88 H88        24.7374  -25.0183  -38.8833 H         1 UNK         0.0847 
     89 H89        22.9958  -24.9613  -39.0980 H         1 UNK         0.0847 
     90 H90        24.4156  -26.6106  -43.1102 H         1 UNK         0.3040 
     91 H91        27.2797  -25.9515  -43.2572 H         1 UNK         0.1015 
     92 H92        25.2977  -26.9120  -45.3943 H         1 UNK         0.0786 
     93 H93        26.9321  -26.3341  -45.6829 H         1 UNK         0.0786 
     94 H94        25.7132  -25.2312  -45.0641 H         1 UNK         0.0786 
     95 H95        27.3672  -27.7129  -41.5047 H         1 UNK         0.3172 
     96 H96        28.0680  -29.6522  -40.7085 H         1 UNK         0.0595 
     97 H97        28.8976  -30.4776  -43.5392 H         1 UNK         0.0839 
     98 H98        29.4689  -31.1724  -42.0320 H         1 UNK         0.0839 
     99 H99        29.8864  -29.5176  -42.4388 H         1 UNK         0.0839 
    100 H100       25.2622  -29.3203  -41.6683 H         1 UNK         0.2998 
    101 H101       24.4144  -32.0748  -41.2225 H         1 UNK         0.0822 
    102 H102       24.5058  -32.0116  -43.7086 H         1 UNK         0.0787 
    103 H103       22.8300  -32.0180  -43.1806 H         1 UNK         0.0787 
    104 H104       23.5688  -30.5211  -43.7349 H         1 UNK         0.0787 
    105 H105       22.7963  -32.0431  -39.8267 H         1 UNK         0.3055 
    106 H106       21.0652  -29.6163  -39.5059 H         1 UNK         0.1106 
    107 H107       20.8067  -30.3412  -37.1503 H         1 UNK         0.0828 
    108 H108       21.8431  -31.7348  -37.4252 H         1 UNK         0.0828 
    109 H109       22.5064  -30.1032  -37.5126 H         1 UNK         0.0828 
    110 H110       21.0381  -32.4045  -41.0843 H         1 UNK         0.2931 
    111 H111       19.5688  -33.7199  -41.9929 H         1 UNK         0.0412 
    112 H112       19.2231  -35.5177  -38.5742 H         1 UNK         0.3472 
    113 H113       20.2980  -34.1940  -38.9500 H         1 UNK         0.3472 
    114 H114       17.2346  -32.1456  -40.8413 H         1 UNK         0.0970 
    115 H115       17.2241  -33.1561  -42.2601 H         1 UNK         0.0970 
    116 H116       17.6332  -32.2566  -44.6642 H         1 UNK         0.0612 
    117 H117       19.3284  -32.4896  -44.2762 H         1 UNK         0.0612 
@<TRIPOS>BOND
     1    1    2 1    
     2    1   62 1    
     3    1   63 1    
     4    1   64 1    
     5    2    3 2    
     6    2    4 am   BACKBONE|DICT|INTERRES
     7    4    5 1    
     8    4   65 1    
     9    5    6 1    
    10    5   25 1    
    11    5   66 1    
    12    6    7 1    
    13    6   67 1    
    14    6   68 1    
    15    7    8 1    
    16    8    9 1    
    17    8   69 1    
    18    8   70 1    
    19    9   10 ar   
    20    9   14 ar   
    21   10   11 ar   
    22   10   71 1    
    23   11   12 ar   
    24   11   61 1    
    25   12   13 ar   
    26   12   72 1    
    27   13   14 ar   
    28   13   15 1    
    29   14   73 1    
    30   15   16 1    
    31   15   74 1    
    32   15   75 1    
    33   16   17 1    
    34   17   18 1    
    35   17   76 1    
    36   17   77 1    
    37   18   19 1    
    38   18   27 1    
    39   18   78 1    
    40   19   20 am   BACKBONE|DICT|INTERRES
    41   19   79 1    
    42   20   21 2    
    43   20   22 1    
    44   22   23 1    
    45   22   24 1    
    46   22   80 1    
    47   23   81 1    
    48   23   82 1    
    49   23   83 1    
    50   24   25 am   BACKBONE|DICT|INTERRES
    51   24   84 1    
    52   25   26 2    
    53   27   28 2    
    54   27   29 am   BACKBONE|DICT|INTERRES
    55   29   30 1    
    56   29   85 1    
    57   30   31 1    
    58   30   32 1    
    59   30   86 1    
    60   31   87 1    
    61   31   88 1    
    62   31   89 1    
    63   32   33 2    
    64   32   34 am   BACKBONE|DICT|INTERRES
    65   34   35 1    
    66   34   90 1    
    67   35   36 1    
    68   35   37 1    
    69   35   91 1    
    70   36   92 1    
    71   36   93 1    
    72   36   94 1    
    73   37   38 2    
    74   37   39 am   BACKBONE|DICT|INTERRES
    75   39   40 1    
    76   39   95 1    
    77   40   41 1    
    78   40   42 1    
    79   40   96 1    
    80   41   97 1    
    81   41   98 1    
    82   41   99 1    
    83   42   43 2    
    84   42   44 am   BACKBONE|DICT|INTERRES
    85   44   45 1    
    86   44  100 1    
    87   45   46 1    
    88   45   47 1    
    89   45  101 1    
    90   46  102 1    
    91   46  103 1    
    92   46  104 1    
    93   47   48 2    
    94   47   49 am   BACKBONE|DICT|INTERRES
    95   49   50 1    
    96   49  105 1    
    97   50   51 1    
    98   50   52 1    
    99   50  106 1    
   100   51  107 1    
   101   51  108 1    
   102   51  109 1    
   103   52   53 2    
   104   52   54 am   BACKBONE|DICT|INTERRES
   105   54   55 1    
   106   54  110 1    
   107   55   56 1    
   108   55   59 1    
   109   55  111 1    
   110   56   57 am   BACKBONE|DICT|INTERRES
   111   56   58 2    
   112   57  112 1    
   113   57  113 1    
   114   59   60 1    
   115   59  114 1    
   116   59  115 1    
   117   60   61 1    
   118   61  116 1    
   119   61  117 1    
@<TRIPOS>SUBSTRUCTURE
     1 UNK         1 GROUP             0       ****    0 ROOT    
