@<TRIPOS>MOLECULE
3R8
117   119    1
SMALL
USER_CHARGES


@<TRIPOS>ATOM
      1 CA         17.4333  -23.8254  -48.6038 C.3       0 UNK        -0.2013 
      2 C          17.4851  -24.6044  -47.2979 C.2       0 UNK         0.4866 
      3 O          18.5581  -24.7431  -46.7103 O.2       0 UNK        -0.5176 
      4 N          16.3358  -25.1197  -46.8443 N.am      1 UNK        -0.4884 
      5 CA         16.1927  -25.8703  -45.5913 C.3       1 UNK         0.0853 
      6 C6         14.8283  -26.6018  -45.5156 C.3       10 UNK        -0.0849 
      7 S7         14.5789  -27.7767  -46.8875 S.3       10 UNK        -0.2776 
      8 C8         14.5975  -29.3804  -46.0186 C.3       10 UNK         0.0316 
      9 C9         15.9664  -29.7464  -45.4549 C.ar      10 UNK        -0.0863 
     10 C10        16.0941  -30.1442  -44.1185 C.ar      10 UNK        -0.1009 
     11 C11        17.3360  -30.5413  -43.6126 C.ar      10 UNK        -0.0712 
     12 C12        18.4479  -30.5486  -44.4567 C.ar      10 UNK        -0.0894 
     13 C13        18.3441  -30.1254  -45.7835 C.ar      10 UNK        -0.0745 
     14 C14        17.0980  -29.7329  -46.2786 C.ar      10 UNK        -0.0972 
     15 C15        19.5706  -30.1108  -46.6862 C.3       10 UNK         0.0209 
     16 S16        20.5466  -28.5805  -46.4996 S.3       10 UNK        -0.2568 
     17 C17        21.4022  -28.8724  -44.9115 C.3       10 UNK        -0.0983 
     18 CA         20.9901  -27.8861  -43.7820 C.3       3 UNK         0.0876 
     19 N          19.5383  -27.7223  -43.6529 N.am      3 UNK        -0.4424 
     20 C          18.9370  -26.6458  -43.1356 C.2       2 UNK         0.4918 
     21 O          19.5414  -25.6400  -42.7543 O.2       2 UNK        -0.4875 
     22 CA         17.4159  -26.7267  -42.9525 C.3       2 UNK         0.0481 
     23 CB         17.0860  -27.1449  -41.5109 C.3       2 UNK        -0.1831 
     24 N          16.8226  -25.4141  -43.2076 N.am      2 UNK        -0.4498 
     25 C          16.3461  -24.9355  -44.3652 C.2       1 UNK         0.5027 
     26 O          15.9664  -23.7663  -44.4565 O.2       1 UNK        -0.4969 
     27 C          21.5656  -28.2975  -42.4097 C.2       3 UNK         0.5005 
     28 O          21.8901  -29.4674  -42.1991 O.2       3 UNK        -0.5279 
     29 N          21.6053  -27.3405  -41.4760 N.am      4 UNK        -0.4463 
     30 CA         22.0752  -27.5070  -40.1010 C.3       4 UNK         0.0283 
     31 CB         21.3024  -26.5196  -39.2031 C.3       4 UNK        -0.1875 
     32 C          23.6067  -27.3453  -40.0047 C.2       4 UNK         0.4949 
     33 O          24.3171  -27.5912  -40.9824 O.2       4 UNK        -0.5039 
     34 N          24.0959  -26.9544  -38.8189 N.am      5 UNK        -0.4663 
     35 CA         25.5031  -26.7009  -38.4858 C.3       5 UNK         0.0242 
     36 CB         25.9911  -25.4050  -39.1756 C.3       5 UNK        -0.1982 
     37 C          26.3862  -27.9352  -38.7539 C.2       5 UNK         0.5017 
     38 O          26.1623  -28.9719  -38.1285 O.2       5 UNK        -0.5012 
     39 N          27.3535  -27.8122  -39.6725 N.am      6 UNK        -0.4439 
     40 CA         28.2712  -28.8803  -40.0736 C.3       6 UNK         0.0297 
     41 CB         29.4334  -28.2728  -40.8761 C.3       6 UNK        -0.2006 
     42 C          27.6019  -30.0130  -40.8738 C.2       6 UNK         0.4892 
     43 O          28.1006  -31.1385  -40.8315 O.2       6 UNK        -0.5089 
     44 N          26.5087  -29.7108  -41.5911 N.am      7 UNK        -0.4243 
     45 CA         25.7419  -30.6997  -42.3547 C.3       7 UNK         0.0196 
     46 CB         24.9706  -30.0044  -43.4874 C.3       7 UNK        -0.2007 
     47 C          24.8051  -31.5190  -41.4526 C.2       7 UNK         0.5020 
     48 O          24.6611  -32.7216  -41.6728 O.2       7 UNK        -0.5147 
     49 N          24.2117  -30.8587  -40.4459 N.am      8 UNK        -0.4734 
     50 CA         23.3946  -31.4212  -39.3579 C.3       8 UNK         0.0238 
     51 CB         24.3087  -32.1541  -38.3537 C.3       8 UNK        -0.1912 
     52 C          22.2143  -32.3044  -39.8220 C.2       8 UNK         0.5038 
     53 O          21.8740  -33.2758  -39.1437 O.2       8 UNK        -0.5046 
     54 N          21.6202  -31.9624  -40.9721 N.am      9 UNK        -0.4200 
     55 CA         20.5841  -32.7333  -41.6758 C.3       9 UNK         0.0839 
     56 C          21.0517  -34.1231  -42.2146 C.2       9 UNK         0.5513 
     57 N          22.3475  -34.3856  -42.3402 N.am      9 UNK        -0.7519 
     58 O          20.2338  -34.9747  -42.5522 O.2       9 UNK        -0.4960 
     59 C59        19.2397  -32.7762  -40.8884 C.3       10 UNK        -0.0876 
     60 S60        17.7745  -32.7353  -41.9809 S.3       10 UNK        -0.2414 
     61 C61        17.4960  -30.9445  -42.1539 C.3       10 UNK         0.0169 
     62 H62        18.0883  -24.2872  -49.3421 H         1 UNK         0.0903 
     63 H63        16.4261  -23.7908  -49.0188 H         1 UNK         0.0903 
     64 H64        17.7692  -22.8013  -48.4429 H         1 UNK         0.0903 
     65 H65        15.4812  -24.9708  -47.3617 H         1 UNK         0.3096 
     66 H66        16.9938  -26.6107  -45.5934 H         1 UNK         0.1121 
     67 H67        14.0072  -25.8823  -45.5374 H         1 UNK         0.0849 
     68 H68        14.7301  -27.1353  -44.5682 H         1 UNK         0.0849 
     69 H69        13.8392  -29.3691  -45.2340 H         1 UNK         0.0865 
     70 H70        14.2952  -30.1590  -46.7203 H         1 UNK         0.0865 
     71 H71        15.2263  -30.1541  -43.4730 H         1 UNK         0.1346 
     72 H72        19.3989  -30.8787  -44.0704 H         1 UNK         0.1412 
     73 H73        17.0050  -29.4238  -47.3111 H         1 UNK         0.1426 
     74 H74        19.2630  -30.1984  -47.7294 H         1 UNK         0.0716 
     75 H75        20.1995  -30.9798  -46.4866 H         1 UNK         0.0716 
     76 H76        22.4734  -28.7767  -45.0970 H         1 UNK         0.0695 
     77 H77        21.2628  -29.9113  -44.6165 H         1 UNK         0.0695 
     78 H78        21.4224  -26.9164  -44.0401 H         1 UNK         0.0983 
     79 H79        18.9800  -28.5111  -43.9498 H         1 UNK         0.3095 
     80 H80        17.0030  -27.4857  -43.6153 H         1 UNK         0.0454 
     81 H81        17.4587  -26.4232  -40.7827 H         1 UNK         0.0851 
     82 H82        17.5348  -28.1077  -41.2673 H         1 UNK         0.0851 
     83 H83        16.0104  -27.2439  -41.3640 H         1 UNK         0.0851 
     84 H84        16.9207  -24.7568  -42.4475 H         1 UNK         0.2976 
     85 H85        21.2734  -26.4187  -41.7347 H         1 UNK         0.3116 
     86 H86        21.8357  -28.5189  -39.7692 H         1 UNK         0.0646 
     87 H87        20.2266  -26.6053  -39.3590 H         1 UNK         0.0847 
     88 H88        21.5834  -25.4846  -39.4038 H         1 UNK         0.0847 
     89 H89        21.4785  -26.7134  -38.1446 H         1 UNK         0.0847 
     90 H90        23.4423  -26.8189  -38.0602 H         1 UNK         0.3040 
     91 H91        25.5448  -26.5344  -37.4080 H         1 UNK         0.1015 
     92 H92        25.9554  -25.4733  -40.2636 H         1 UNK         0.0786 
     93 H93        27.0147  -25.1623  -38.8866 H         1 UNK         0.0786 
     94 H94        25.3731  -24.5555  -38.8843 H         1 UNK         0.0786 
     95 H95        27.4473  -26.9258  -40.1472 H         1 UNK         0.3172 
     96 H96        28.6839  -29.3241  -39.1649 H         1 UNK         0.0595 
     97 H97        29.0864  -27.7947  -41.7930 H         1 UNK         0.0839 
     98 H98        30.1526  -29.0415  -41.1629 H         1 UNK         0.0839 
     99 H99        29.9751  -27.5288  -40.2917 H         1 UNK         0.0839 
    100 H100       26.1265  -28.7738  -41.5389 H         1 UNK         0.2998 
    101 H101       26.4378  -31.4030  -42.8180 H         1 UNK         0.0822 
    102 H102       25.6523  -29.5863  -44.2280 H         1 UNK         0.0787 
    103 H103       24.3155  -30.7054  -44.0068 H         1 UNK         0.0787 
    104 H104       24.3497  -29.1915  -43.1149 H         1 UNK         0.0787 
    105 H105       24.3713  -29.8605  -40.4060 H         1 UNK         0.3055 
    106 H106       22.9468  -30.5739  -38.8372 H         1 UNK         0.1106 
    107 H107       24.7544  -33.0466  -38.7945 H         1 UNK         0.0828 
    108 H108       23.7535  -32.4683  -37.4691 H         1 UNK         0.0828 
    109 H109       25.1191  -31.5107  -38.0113 H         1 UNK         0.0828 
    110 H110       21.9318  -31.1169  -41.4488 H         1 UNK         0.2931 
    111 H111       20.4191  -32.1457  -42.5765 H         1 UNK         0.0412 
    112 H112       22.6328  -35.2833  -42.6975 H         1 UNK         0.3472 
    113 H113       23.0533  -33.7084  -42.0639 H         1 UNK         0.3472 
    114 H114       19.1697  -31.9357  -40.1963 H         1 UNK         0.0970 
    115 H115       19.1895  -33.6666  -40.2591 H         1 UNK         0.0970 
    116 H116       18.3343  -30.3893  -41.7306 H         1 UNK         0.0612 
    117 H117       16.6161  -30.6646  -41.5727 H         1 UNK         0.0612 
@<TRIPOS>BOND
     1    1    2 1    
     2    1   62 1    
     3    1   63 1    
     4    1   64 1    
     5    2    3 2    
     6    2    4 am   BACKBONE|DICT|INTERRES
     7    4    5 1    
     8    4   65 1    
     9    5    6 1    
    10    5   25 1    
    11    5   66 1    
    12    6    7 1    
    13    6   67 1    
    14    6   68 1    
    15    7    8 1    
    16    8    9 1    
    17    8   69 1    
    18    8   70 1    
    19    9   10 ar   
    20    9   14 ar   
    21   10   11 ar   
    22   10   71 1    
    23   11   12 ar   
    24   11   61 1    
    25   12   13 ar   
    26   12   72 1    
    27   13   14 ar   
    28   13   15 1    
    29   14   73 1    
    30   15   16 1    
    31   15   74 1    
    32   15   75 1    
    33   16   17 1    
    34   17   18 1    
    35   17   76 1    
    36   17   77 1    
    37   18   19 1    
    38   18   27 1    
    39   18   78 1    
    40   19   20 am   BACKBONE|DICT|INTERRES
    41   19   79 1    
    42   20   21 2    
    43   20   22 1    
    44   22   23 1    
    45   22   24 1    
    46   22   80 1    
    47   23   81 1    
    48   23   82 1    
    49   23   83 1    
    50   24   25 am   BACKBONE|DICT|INTERRES
    51   24   84 1    
    52   25   26 2    
    53   27   28 2    
    54   27   29 am   BACKBONE|DICT|INTERRES
    55   29   30 1    
    56   29   85 1    
    57   30   31 1    
    58   30   32 1    
    59   30   86 1    
    60   31   87 1    
    61   31   88 1    
    62   31   89 1    
    63   32   33 2    
    64   32   34 am   BACKBONE|DICT|INTERRES
    65   34   35 1    
    66   34   90 1    
    67   35   36 1    
    68   35   37 1    
    69   35   91 1    
    70   36   92 1    
    71   36   93 1    
    72   36   94 1    
    73   37   38 2    
    74   37   39 am   BACKBONE|DICT|INTERRES
    75   39   40 1    
    76   39   95 1    
    77   40   41 1    
    78   40   42 1    
    79   40   96 1    
    80   41   97 1    
    81   41   98 1    
    82   41   99 1    
    83   42   43 2    
    84   42   44 am   BACKBONE|DICT|INTERRES
    85   44   45 1    
    86   44  100 1    
    87   45   46 1    
    88   45   47 1    
    89   45  101 1    
    90   46  102 1    
    91   46  103 1    
    92   46  104 1    
    93   47   48 2    
    94   47   49 am   BACKBONE|DICT|INTERRES
    95   49   50 1    
    96   49  105 1    
    97   50   51 1    
    98   50   52 1    
    99   50  106 1    
   100   51  107 1    
   101   51  108 1    
   102   51  109 1    
   103   52   53 2    
   104   52   54 am   BACKBONE|DICT|INTERRES
   105   54   55 1    
   106   54  110 1    
   107   55   56 1    
   108   55   59 1    
   109   55  111 1    
   110   56   57 am   BACKBONE|DICT|INTERRES
   111   56   58 2    
   112   57  112 1    
   113   57  113 1    
   114   59   60 1    
   115   59  114 1    
   116   59  115 1    
   117   60   61 1    
   118   61  116 1    
   119   61  117 1    
@<TRIPOS>SUBSTRUCTURE
     1 UNK         1 GROUP             0       ****    0 ROOT    
