@<TRIPOS>MOLECULE
3R8
117   119    1
SMALL
USER_CHARGES


@<TRIPOS>ATOM
      1 CA         18.5470  -21.9818  -45.7286 C.3       0 UNK        -0.2013 
      2 C          17.5662  -23.0715  -46.1532 C.2       0 UNK         0.4866 
      3 O          16.3612  -22.8297  -46.1613 O.2       0 UNK        -0.5176 
      4 N          18.0207  -24.2802  -46.5145 N.am      1 UNK        -0.4884 
      5 CA         19.4171  -24.7421  -46.5282 C.3       1 UNK         0.0853 
      6 C6         19.6190  -25.9061  -47.5344 C.3       10 UNK        -0.0849 
      7 S7         18.5310  -27.3488  -47.2538 S.3       10 UNK        -0.2776 
      8 C8         19.7004  -28.4871  -46.4414 C.3       10 UNK         0.0316 
      9 C9         19.0452  -29.7443  -45.8811 C.ar      10 UNK        -0.0863 
     10 C10        19.6855  -30.9804  -46.0138 C.ar      10 UNK        -0.1009 
     11 C11        19.1599  -32.1250  -45.4073 C.ar      10 UNK        -0.0712 
     12 C12        17.9691  -32.0345  -44.6820 C.ar      10 UNK        -0.0894 
     13 C13        17.3143  -30.8080  -44.5450 C.ar      10 UNK        -0.0745 
     14 C14        17.8512  -29.6707  -45.1568 C.ar      10 UNK        -0.0972 
     15 C15        16.0439  -30.7102  -43.7111 C.3       10 UNK         0.0209 
     16 S16        16.1428  -29.4107  -42.4365 S.3       10 UNK        -0.2568 
     17 C17        17.5769  -29.9465  -41.4373 C.3       10 UNK        -0.0983 
     18 CA         18.9186  -29.2646  -41.8291 C.3       3 UNK         0.0876 
     19 N          18.7767  -27.8221  -42.0551 N.am      3 UNK        -0.4424 
     20 C          19.7261  -27.0016  -42.5245 C.2       2 UNK         0.4918 
     21 O          20.8753  -27.3552  -42.7961 O.2       2 UNK        -0.4875 
     22 CA         19.2856  -25.5396  -42.7191 C.3       2 UNK         0.0481 
     23 CB         20.2244  -24.5391  -42.0162 C.3       2 UNK        -0.1831 
     24 N          19.0659  -25.2007  -44.1303 N.am      2 UNK        -0.4498 
     25 C          19.9646  -25.0900  -45.1234 C.2       1 UNK         0.5027 
     26 O          21.1798  -25.2230  -44.9835 O.2       1 UNK        -0.4969 
     27 C          19.9980  -29.5841  -40.7793 C.2       3 UNK         0.5005 
     28 O          20.8137  -30.4806  -40.9921 O.2       3 UNK        -0.5279 
     29 N          19.9844  -28.8344  -39.6711 N.am      4 UNK        -0.4463 
     30 CA         20.9677  -28.9192  -38.5957 C.3       4 UNK         0.0283 
     31 CB         20.2780  -28.5831  -37.2636 C.3       4 UNK        -0.1875 
     32 C          22.1242  -27.9451  -38.8541 C.2       4 UNK         0.4949 
     33 O          21.9256  -26.9096  -39.4939 O.2       4 UNK        -0.5039 
     34 N          23.3002  -28.2862  -38.3119 N.am      5 UNK        -0.4663 
     35 CA         24.5621  -27.5310  -38.2967 C.3       5 UNK         0.0242 
     36 CB         24.4085  -26.1955  -37.5412 C.3       5 UNK        -0.1982 
     37 C          25.2173  -27.3169  -39.6729 C.2       5 UNK         0.5017 
     38 O          26.3934  -27.6467  -39.8260 O.2       5 UNK        -0.5012 
     39 N          24.4678  -26.7611  -40.6331 N.am      6 UNK        -0.4439 
     40 CA         24.9276  -26.4785  -41.9930 C.3       6 UNK         0.0297 
     41 CB         24.0069  -25.4469  -42.6630 C.3       6 UNK        -0.2006 
     42 C          25.0372  -27.7693  -42.8149 C.2       6 UNK         0.4892 
     43 O          26.1474  -28.1585  -43.1798 O.2       6 UNK        -0.5089 
     44 N          23.8935  -28.4205  -43.0716 N.am      7 UNK        -0.4243 
     45 CA         23.8469  -29.7236  -43.7388 C.3       7 UNK         0.0196 
     46 CB         22.4558  -29.9395  -44.3447 C.3       7 UNK        -0.2007 
     47 C          24.2119  -30.8785  -42.7924 C.2       7 UNK         0.5020 
     48 O          24.8130  -31.8548  -43.2407 O.2       7 UNK        -0.5147 
     49 N          23.8471  -30.7355  -41.5084 N.am      8 UNK        -0.4734 
     50 CA         24.0260  -31.7031  -40.4172 C.3       8 UNK         0.0238 
     51 CB         25.5216  -31.8806  -40.0803 C.3       8 UNK        -0.1912 
     52 C          23.2927  -33.0378  -40.6690 C.2       8 UNK         0.5038 
     53 O          23.8108  -34.1042  -40.3314 O.2       8 UNK        -0.5046 
     54 N          22.0919  -32.9418  -41.2501 N.am      9 UNK        -0.4200 
     55 CA         21.1741  -34.0591  -41.5112 C.3       9 UNK         0.0839 
     56 C          20.3131  -34.4501  -40.2767 C.2       9 UNK         0.5513 
     57 N          20.2403  -33.6360  -39.2296 N.am      9 UNK        -0.7519 
     58 O          19.7051  -35.5172  -40.2678 O.2       9 UNK        -0.4960 
     59 C59        20.2707  -33.7718  -42.7383 C.3       10 UNK        -0.0876 
     60 S60        21.2243  -33.5949  -44.2836 S.3       10 UNK        -0.2414 
     61 C61        19.8922  -33.4541  -45.5177 C.3       10 UNK         0.0169 
     62 H62        19.1280  -22.2877  -44.8595 H         1 UNK         0.0903 
     63 H63        19.2285  -21.7330  -46.5414 H         1 UNK         0.0903 
     64 H64        18.0108  -21.0718  -45.4602 H         1 UNK         0.0903 
     65 H65        17.3499  -24.9795  -46.8041 H         1 UNK         0.3096 
     66 H66        20.0398  -23.9204  -46.8870 H         1 UNK         0.1121 
     67 H67        19.4169  -25.5415  -48.5429 H         1 UNK         0.0849 
     68 H68        20.6635  -26.2246  -47.5535 H         1 UNK         0.0849 
     69 H69        20.1907  -27.9705  -45.6159 H         1 UNK         0.0865 
     70 H70        20.4835  -28.7488  -47.1548 H         1 UNK         0.0865 
     71 H71        20.6162  -31.0501  -46.5599 H         1 UNK         0.1346 
     72 H72        17.5642  -32.9177  -44.2072 H         1 UNK         0.1412 
     73 H73        17.3573  -28.7171  -45.0310 H         1 UNK         0.1426 
     74 H74        15.8187  -31.6612  -43.2258 H         1 UNK         0.0716 
     75 H75        15.2041  -30.4931  -44.3723 H         1 UNK         0.0716 
     76 H76        17.6732  -31.0323  -41.5003 H         1 UNK         0.0695 
     77 H77        17.3254  -29.7297  -40.3972 H         1 UNK         0.0695 
     78 H78        19.2632  -29.7000  -42.7684 H         1 UNK         0.0983 
     79 H79        17.8520  -27.4519  -41.8892 H         1 UNK         0.3095 
     80 H80        18.3107  -25.4271  -42.2415 H         1 UNK         0.0454 
     81 H81        20.3932  -24.8273  -40.9776 H         1 UNK         0.0851 
     82 H82        19.7968  -23.5368  -42.0100 H         1 UNK         0.0851 
     83 H83        21.1997  -24.4769  -42.4934 H         1 UNK         0.0851 
     84 H84        18.0975  -25.0863  -44.3961 H         1 UNK         0.2976 
     85 H85        19.3279  -28.0693  -39.6199 H         1 UNK         0.3116 
     86 H86        21.3613  -29.9363  -38.5366 H         1 UNK         0.0646 
     87 H87        19.4532  -29.2665  -37.0606 H         1 UNK         0.0847 
     88 H88        19.8808  -27.5670  -37.2578 H         1 UNK         0.0847 
     89 H89        20.9755  -28.6633  -36.4288 H         1 UNK         0.0847 
     90 H90        23.3380  -29.1630  -37.8101 H         1 UNK         0.3040 
     91 H91        25.2593  -28.1435  -37.7215 H         1 UNK         0.1015 
     92 H92        25.3676  -25.6821  -37.4604 H         1 UNK         0.0786 
     93 H93        24.0408  -26.3547  -36.5275 H         1 UNK         0.0786 
     94 H94        23.7200  -25.5151  -38.0432 H         1 UNK         0.0786 
     95 H95        23.4917  -26.5752  -40.4088 H         1 UNK         0.3172 
     96 H96        25.9241  -26.0356  -41.9301 H         1 UNK         0.0595 
     97 H97        24.3629  -25.1985  -43.6637 H         1 UNK         0.0839 
     98 H98        23.9661  -24.5188  -42.0929 H         1 UNK         0.0839 
     99 H99        22.9902  -25.8203  -42.7687 H         1 UNK         0.0839 
    100 H100       23.0086  -28.0152  -42.7854 H         1 UNK         0.2998 
    101 H101       24.5701  -29.7245  -44.5576 H         1 UNK         0.0822 
    102 H102       22.4166  -30.8853  -44.8850 H         1 UNK         0.0787 
    103 H103       22.2113  -29.1489  -45.0525 H         1 UNK         0.0787 
    104 H104       21.6757  -29.9650  -43.5835 H         1 UNK         0.0787 
    105 H105       23.3053  -29.9145  -41.2780 H         1 UNK         0.3055 
    106 H106       23.5449  -31.2660  -39.5414 H         1 UNK         0.1106 
    107 H107       26.0014  -30.9203  -39.8899 H         1 UNK         0.0828 
    108 H108       25.6517  -32.4906  -39.1856 H         1 UNK         0.0828 
    109 H109       26.0634  -32.3718  -40.8889 H         1 UNK         0.0828 
    110 H110       21.7143  -32.0114  -41.4165 H         1 UNK         0.2931 
    111 H111       21.7750  -34.9393  -41.7482 H         1 UNK         0.0412 
    112 H112       20.7158  -32.7482  -39.2432 H         1 UNK         0.3472 
    113 H113       19.6836  -33.9025  -38.4328 H         1 UNK         0.3472 
    114 H114       19.6923  -32.8613  -42.5720 H         1 UNK         0.0970 
    115 H115       19.5484  -34.5778  -42.8824 H         1 UNK         0.0970 
    116 H116       20.3261  -33.5500  -46.5140 H         1 UNK         0.0612 
    117 H117       19.1988  -34.2890  -45.4054 H         1 UNK         0.0612 
@<TRIPOS>BOND
     1    1    2 1    
     2    1   62 1    
     3    1   63 1    
     4    1   64 1    
     5    2    3 2    
     6    2    4 am   BACKBONE|DICT|INTERRES
     7    4    5 1    
     8    4   65 1    
     9    5    6 1    
    10    5   25 1    
    11    5   66 1    
    12    6    7 1    
    13    6   67 1    
    14    6   68 1    
    15    7    8 1    
    16    8    9 1    
    17    8   69 1    
    18    8   70 1    
    19    9   10 ar   
    20    9   14 ar   
    21   10   11 ar   
    22   10   71 1    
    23   11   12 ar   
    24   11   61 1    
    25   12   13 ar   
    26   12   72 1    
    27   13   14 ar   
    28   13   15 1    
    29   14   73 1    
    30   15   16 1    
    31   15   74 1    
    32   15   75 1    
    33   16   17 1    
    34   17   18 1    
    35   17   76 1    
    36   17   77 1    
    37   18   19 1    
    38   18   27 1    
    39   18   78 1    
    40   19   20 am   BACKBONE|DICT|INTERRES
    41   19   79 1    
    42   20   21 2    
    43   20   22 1    
    44   22   23 1    
    45   22   24 1    
    46   22   80 1    
    47   23   81 1    
    48   23   82 1    
    49   23   83 1    
    50   24   25 am   BACKBONE|DICT|INTERRES
    51   24   84 1    
    52   25   26 2    
    53   27   28 2    
    54   27   29 am   BACKBONE|DICT|INTERRES
    55   29   30 1    
    56   29   85 1    
    57   30   31 1    
    58   30   32 1    
    59   30   86 1    
    60   31   87 1    
    61   31   88 1    
    62   31   89 1    
    63   32   33 2    
    64   32   34 am   BACKBONE|DICT|INTERRES
    65   34   35 1    
    66   34   90 1    
    67   35   36 1    
    68   35   37 1    
    69   35   91 1    
    70   36   92 1    
    71   36   93 1    
    72   36   94 1    
    73   37   38 2    
    74   37   39 am   BACKBONE|DICT|INTERRES
    75   39   40 1    
    76   39   95 1    
    77   40   41 1    
    78   40   42 1    
    79   40   96 1    
    80   41   97 1    
    81   41   98 1    
    82   41   99 1    
    83   42   43 2    
    84   42   44 am   BACKBONE|DICT|INTERRES
    85   44   45 1    
    86   44  100 1    
    87   45   46 1    
    88   45   47 1    
    89   45  101 1    
    90   46  102 1    
    91   46  103 1    
    92   46  104 1    
    93   47   48 2    
    94   47   49 am   BACKBONE|DICT|INTERRES
    95   49   50 1    
    96   49  105 1    
    97   50   51 1    
    98   50   52 1    
    99   50  106 1    
   100   51  107 1    
   101   51  108 1    
   102   51  109 1    
   103   52   53 2    
   104   52   54 am   BACKBONE|DICT|INTERRES
   105   54   55 1    
   106   54  110 1    
   107   55   56 1    
   108   55   59 1    
   109   55  111 1    
   110   56   57 am   BACKBONE|DICT|INTERRES
   111   56   58 2    
   112   57  112 1    
   113   57  113 1    
   114   59   60 1    
   115   59  114 1    
   116   59  115 1    
   117   60   61 1    
   118   61  116 1    
   119   61  117 1    
@<TRIPOS>SUBSTRUCTURE
     1 UNK         1 GROUP             0       ****    0 ROOT    
