@<TRIPOS>MOLECULE
3R8
117   119    1
SMALL
USER_CHARGES


@<TRIPOS>ATOM
      1 CA         17.6322  -24.9377  -47.9398 C.3       0 UNK        -0.2013 
      2 C          18.4664  -26.1177  -47.4640 C.2       0 UNK         0.4866 
      3 O          19.6576  -26.1869  -47.7662 O.2       0 UNK        -0.5176 
      4 N          17.8514  -27.0448  -46.7176 N.am      1 UNK        -0.4884 
      5 CA         18.4951  -28.2434  -46.1597 C.3       1 UNK         0.0853 
      6 C6         17.4728  -29.3793  -45.9114 C.3       10 UNK        -0.0849 
      7 S7         16.0415  -28.9049  -44.8847 S.3       10 UNK        -0.2776 
      8 C8         15.5326  -30.5323  -44.2374 C.3       10 UNK         0.0316 
      9 C9         16.4912  -31.0503  -43.1736 C.ar      10 UNK        -0.0863 
     10 C10        17.2153  -32.2303  -43.3704 C.ar      10 UNK        -0.1009 
     11 C11        18.0778  -32.7046  -42.3770 C.ar      10 UNK        -0.0712 
     12 C12        18.2233  -31.9797  -41.1885 C.ar      10 UNK        -0.0894 
     13 C13        17.5045  -30.7983  -40.9748 C.ar      10 UNK        -0.0745 
     14 C14        16.6290  -30.3527  -41.9721 C.ar      10 UNK        -0.0972 
     15 C15        17.6546  -30.0568  -39.6450 C.3       10 UNK         0.0209 
     16 S16        17.3361  -28.2593  -39.7506 S.3       10 UNK        -0.2568 
     17 C17        18.8169  -27.5506  -38.9639 C.3       10 UNK        -0.0983 
     18 CA         20.0524  -27.5305  -39.8967 C.3       3 UNK         0.0876 
     19 N          19.7804  -26.9299  -41.2101 N.am      3 UNK        -0.4424 
     20 C          20.6454  -26.9248  -42.2326 C.2       2 UNK         0.4918 
     21 O          21.7364  -27.5036  -42.2082 O.2       2 UNK        -0.4875 
     22 CA         20.2355  -26.0807  -43.4547 C.3       2 UNK         0.0481 
     23 CB         21.4654  -25.5767  -44.2351 C.3       2 UNK        -0.1831 
     24 N          19.3029  -26.7340  -44.3806 N.am      2 UNK        -0.4498 
     25 C          19.3973  -27.9537  -44.9352 C.2       1 UNK         0.5027 
     26 O          20.1854  -28.8200  -44.5601 O.2       1 UNK        -0.4969 
     27 C          21.2419  -26.8421  -39.1940 C.2       3 UNK         0.5005 
     28 O          22.0873  -27.5235  -38.6113 O.2       3 UNK        -0.5279 
     29 N          21.3079  -25.5064  -39.3196 N.am      4 UNK        -0.4463 
     30 CA         22.3536  -24.6342  -38.7734 C.3       4 UNK         0.0283 
     31 CB         21.9389  -23.1675  -38.9770 C.3       4 UNK        -0.1875 
     32 C          23.7582  -24.8741  -39.3576 C.2       4 UNK         0.4949 
     33 O          24.7435  -24.5092  -38.7112 O.2       4 UNK        -0.5039 
     34 N          23.8413  -25.5140  -40.5350 N.am      5 UNK        -0.4663 
     35 CA         25.0883  -25.9358  -41.1819 C.3       5 UNK         0.0242 
     36 CB         24.9016  -25.8723  -42.7098 C.3       5 UNK        -0.1982 
     37 C          25.5423  -27.3328  -40.7057 C.2       5 UNK         0.5017 
     38 O          26.1462  -28.0757  -41.4870 O.2       5 UNK        -0.5012 
     39 N          25.2273  -27.6686  -39.4408 N.am      6 UNK        -0.4439 
     40 CA         25.4445  -28.9544  -38.7689 C.3       6 UNK         0.0297 
     41 CB         26.9531  -29.2252  -38.5709 C.3       6 UNK        -0.2006 
     42 C          24.7050  -30.1113  -39.4706 C.2       6 UNK         0.4892 
     43 O          25.2740  -31.1933  -39.6248 O.2       6 UNK        -0.5089 
     44 N          23.4528  -29.8411  -39.8764 N.am      7 UNK        -0.4243 
     45 CA         22.5546  -30.7024  -40.6543 C.3       7 UNK         0.0196 
     46 CB         22.0837  -31.9057  -39.8115 C.3       7 UNK        -0.2007 
     47 C          23.1750  -31.1160  -41.9998 C.2       7 UNK         0.5020 
     48 O          23.6548  -32.2435  -42.1413 O.2       7 UNK        -0.5147 
     49 N          23.1689  -30.1840  -42.9644 N.am      8 UNK        -0.4734 
     50 CA         23.6388  -30.4372  -44.3329 C.3       8 UNK         0.0238 
     51 CB         23.7574  -29.1090  -45.0960 C.3       8 UNK        -0.1912 
     52 C          22.7417  -31.4348  -45.0913 C.2       8 UNK         0.5038 
     53 O          23.2575  -32.2716  -45.8344 O.2       8 UNK        -0.5046 
     54 N          21.4283  -31.3398  -44.8518 N.am      9 UNK        -0.4200 
     55 CA         20.3593  -32.1936  -45.3840 C.3       9 UNK         0.0839 
     56 C          20.1692  -32.0424  -46.9240 C.2       9 UNK         0.5513 
     57 N          19.5299  -33.0046  -47.5935 N.am      9 UNK        -0.7519 
     58 O          20.5402  -31.0242  -47.5193 O.2       9 UNK        -0.4960 
     59 C59        20.4330  -33.6641  -44.8769 C.3       10 UNK        -0.0876 
     60 S60        20.5474  -33.7984  -43.0573 S.3       10 UNK        -0.2414 
     61 C61        18.8124  -34.0271  -42.5567 C.3       10 UNK         0.0169 
     62 H62        17.6410  -24.8867  -49.0286 H         1 UNK         0.0903 
     63 H63        16.5950  -25.0124  -47.6129 H         1 UNK         0.0903 
     64 H64        18.0443  -24.0065  -47.5519 H         1 UNK         0.0903 
     65 H65        16.8689  -26.9467  -46.4980 H         1 UNK         0.3096 
     66 H66        19.1851  -28.6174  -46.9207 H         1 UNK         0.1121 
     67 H67        17.0887  -29.7333  -46.8697 H         1 UNK         0.0849 
     68 H68        17.9663  -30.2389  -45.4629 H         1 UNK         0.0849 
     69 H69        15.4405  -31.2392  -45.0634 H         1 UNK         0.0865 
     70 H70        14.5370  -30.4420  -43.8011 H         1 UNK         0.0865 
     71 H71        17.0979  -32.7886  -44.2889 H         1 UNK         0.1346 
     72 H72        18.8849  -32.3516  -40.4185 H         1 UNK         0.1412 
     73 H73        16.0451  -29.4550  -41.8258 H         1 UNK         0.1426 
     74 H74        18.6521  -30.2278  -39.2417 H         1 UNK         0.0716 
     75 H75        16.9567  -30.4873  -38.9281 H         1 UNK         0.0716 
     76 H76        19.0314  -28.1087  -38.0501 H         1 UNK         0.0695 
     77 H77        18.5598  -26.5382  -38.6459 H         1 UNK         0.0695 
     78 H78        20.3394  -28.5661  -40.0739 H         1 UNK         0.0983 
     79 H79        18.8830  -26.4792  -41.3190 H         1 UNK         0.3095 
     80 H80        19.7164  -25.1997  -43.0735 H         1 UNK         0.0454 
     81 H81        21.1740  -24.9145  -45.0506 H         1 UNK         0.0851 
     82 H82        22.0390  -26.3982  -44.6647 H         1 UNK         0.0851 
     83 H83        22.1354  -25.0128  -43.5856 H         1 UNK         0.0851 
     84 H84        18.5784  -26.1371  -44.7531 H         1 UNK         0.2976 
     85 H85        20.5663  -25.0466  -39.8289 H         1 UNK         0.3116 
     86 H86        22.4145  -24.8278  -37.6999 H         1 UNK         0.0646 
     87 H87        22.6809  -22.4892  -38.5517 H         1 UNK         0.0847 
     88 H88        20.9891  -22.9498  -38.4878 H         1 UNK         0.0847 
     89 H89        21.8394  -22.9173  -40.0346 H         1 UNK         0.0847 
     90 H90        22.9861  -25.8351  -40.9725 H         1 UNK         0.3040 
     91 H91        25.8870  -25.2393  -40.9162 H         1 UNK         0.1015 
     92 H92        24.5986  -24.8757  -43.0320 H         1 UNK         0.0786 
     93 H93        24.1475  -26.5821  -43.0509 H         1 UNK         0.0786 
     94 H94        25.8303  -26.1076  -43.2312 H         1 UNK         0.0786 
     95 H95        24.7203  -26.9784  -38.8952 H         1 UNK         0.3172 
     96 H96        24.9934  -28.8609  -37.7789 H         1 UNK         0.0595 
     97 H97        27.4648  -29.3862  -39.5214 H         1 UNK         0.0839 
     98 H98        27.1131  -30.1163  -37.9622 H         1 UNK         0.0839 
     99 H99        27.4433  -28.3949  -38.0618 H         1 UNK         0.0839 
    100 H100       23.0854  -28.9236  -39.6425 H         1 UNK         0.2998 
    101 H101       21.6715  -30.1138  -40.8964 H         1 UNK         0.0822 
    102 H102       22.9148  -32.5442  -39.5105 H         1 UNK         0.0787 
    103 H103       21.5671  -31.5786  -38.9088 H         1 UNK         0.0787 
    104 H104       21.3892  -32.5270  -40.3783 H         1 UNK         0.0787 
    105 H105       22.7546  -29.2747  -42.7759 H         1 UNK         0.3055 
    106 H106       24.6353  -30.8804  -44.2680 H         1 UNK         0.1106 
    107 H107       24.1182  -29.2754  -46.1119 H         1 UNK         0.0828 
    108 H108       22.7963  -28.6006  -45.1713 H         1 UNK         0.0828 
    109 H109       24.4612  -28.4342  -44.6088 H         1 UNK         0.0828 
    110 H110       21.1030  -30.5298  -44.3339 H         1 UNK         0.2931 
    111 H111       19.4550  -31.7699  -44.9562 H         1 UNK         0.0412 
    112 H112       19.1899  -33.8443  -47.1383 H         1 UNK         0.3472 
    113 H113       19.3909  -32.8900  -48.5856 H         1 UNK         0.3472 
    114 H114       19.5649  -34.2357  -45.2062 H         1 UNK         0.0970 
    115 H115       21.3021  -34.1645  -45.3071 H         1 UNK         0.0970 
    116 H116       18.2951  -34.6664  -43.2735 H         1 UNK         0.0612 
    117 H117       18.7993  -34.5708  -41.6110 H         1 UNK         0.0612 
@<TRIPOS>BOND
     1    1    2 1    
     2    1   62 1    
     3    1   63 1    
     4    1   64 1    
     5    2    3 2    
     6    2    4 am   BACKBONE|DICT|INTERRES
     7    4    5 1    
     8    4   65 1    
     9    5    6 1    
    10    5   25 1    
    11    5   66 1    
    12    6    7 1    
    13    6   67 1    
    14    6   68 1    
    15    7    8 1    
    16    8    9 1    
    17    8   69 1    
    18    8   70 1    
    19    9   10 ar   
    20    9   14 ar   
    21   10   11 ar   
    22   10   71 1    
    23   11   12 ar   
    24   11   61 1    
    25   12   13 ar   
    26   12   72 1    
    27   13   14 ar   
    28   13   15 1    
    29   14   73 1    
    30   15   16 1    
    31   15   74 1    
    32   15   75 1    
    33   16   17 1    
    34   17   18 1    
    35   17   76 1    
    36   17   77 1    
    37   18   19 1    
    38   18   27 1    
    39   18   78 1    
    40   19   20 am   BACKBONE|DICT|INTERRES
    41   19   79 1    
    42   20   21 2    
    43   20   22 1    
    44   22   23 1    
    45   22   24 1    
    46   22   80 1    
    47   23   81 1    
    48   23   82 1    
    49   23   83 1    
    50   24   25 am   BACKBONE|DICT|INTERRES
    51   24   84 1    
    52   25   26 2    
    53   27   28 2    
    54   27   29 am   BACKBONE|DICT|INTERRES
    55   29   30 1    
    56   29   85 1    
    57   30   31 1    
    58   30   32 1    
    59   30   86 1    
    60   31   87 1    
    61   31   88 1    
    62   31   89 1    
    63   32   33 2    
    64   32   34 am   BACKBONE|DICT|INTERRES
    65   34   35 1    
    66   34   90 1    
    67   35   36 1    
    68   35   37 1    
    69   35   91 1    
    70   36   92 1    
    71   36   93 1    
    72   36   94 1    
    73   37   38 2    
    74   37   39 am   BACKBONE|DICT|INTERRES
    75   39   40 1    
    76   39   95 1    
    77   40   41 1    
    78   40   42 1    
    79   40   96 1    
    80   41   97 1    
    81   41   98 1    
    82   41   99 1    
    83   42   43 2    
    84   42   44 am   BACKBONE|DICT|INTERRES
    85   44   45 1    
    86   44  100 1    
    87   45   46 1    
    88   45   47 1    
    89   45  101 1    
    90   46  102 1    
    91   46  103 1    
    92   46  104 1    
    93   47   48 2    
    94   47   49 am   BACKBONE|DICT|INTERRES
    95   49   50 1    
    96   49  105 1    
    97   50   51 1    
    98   50   52 1    
    99   50  106 1    
   100   51  107 1    
   101   51  108 1    
   102   51  109 1    
   103   52   53 2    
   104   52   54 am   BACKBONE|DICT|INTERRES
   105   54   55 1    
   106   54  110 1    
   107   55   56 1    
   108   55   59 1    
   109   55  111 1    
   110   56   57 am   BACKBONE|DICT|INTERRES
   111   56   58 2    
   112   57  112 1    
   113   57  113 1    
   114   59   60 1    
   115   59  114 1    
   116   59  115 1    
   117   60   61 1    
   118   61  116 1    
   119   61  117 1    
@<TRIPOS>SUBSTRUCTURE
     1 UNK         1 GROUP             0       ****    0 ROOT    
