@<TRIPOS>MOLECULE
3R8
117   119    1
SMALL
USER_CHARGES


@<TRIPOS>ATOM
      1 CA         20.1077  -22.9164  -43.2808 C.3       0 UNK        -0.2013 
      2 C          20.2150  -23.9270  -44.4131 C.2       0 UNK         0.4866 
      3 O          21.2210  -23.9432  -45.1215 O.2       0 UNK        -0.5176 
      4 N          19.1797  -24.7576  -44.5978 N.am      1 UNK        -0.4884 
      5 CA         19.1040  -25.7983  -45.6316 C.3       1 UNK         0.0853 
      6 C6         17.6711  -26.3726  -45.7860 C.3       10 UNK        -0.0849 
      7 S7         16.8926  -26.8902  -44.2112 S.3       10 UNK        -0.2776 
      8 C8         15.8611  -28.2906  -44.7497 C.3       10 UNK         0.0316 
      9 C9         16.4849  -29.6357  -44.4026 C.ar      10 UNK        -0.0863 
     10 C10        17.0565  -30.4434  -45.3928 C.ar      10 UNK        -0.1009 
     11 C11        17.5350  -31.7225  -45.0789 C.ar      10 UNK        -0.0712 
     12 C12        17.4541  -32.1789  -43.7602 C.ar      10 UNK        -0.0894 
     13 C13        16.9012  -31.3736  -42.7598 C.ar      10 UNK        -0.0745 
     14 C14        16.4195  -30.1040  -43.0875 C.ar      10 UNK        -0.0972 
     15 C15        16.7678  -31.9023  -41.3397 C.3       10 UNK         0.0209 
     16 S16        18.3140  -31.7465  -40.3963 S.3       10 UNK        -0.2568 
     17 C17        18.3262  -29.9848  -39.9319 C.3       10 UNK        -0.0983 
     18 CA         19.6739  -29.3052  -40.2754 C.3       3 UNK         0.0876 
     19 N          19.8823  -29.1501  -41.7247 N.am      3 UNK        -0.4424 
     20 C          21.0139  -28.6840  -42.2774 C.2       2 UNK         0.4918 
     21 O          21.9721  -28.2815  -41.6201 O.2       2 UNK        -0.4875 
     22 CA         21.0599  -28.5572  -43.8011 C.3       2 UNK         0.0481 
     23 CB         20.7170  -29.8774  -44.5063 C.3       2 UNK        -0.1831 
     24 N          20.1628  -27.4859  -44.2175 N.am      2 UNK        -0.4498 
     25 C          20.1469  -26.9138  -45.4266 C.2       1 UNK         0.5027 
     26 O          20.9042  -27.2173  -46.3501 O.2       1 UNK        -0.4969 
     27 C          19.8202  -27.9758  -39.5043 C.2       3 UNK         0.5005 
     28 O          20.4033  -27.9650  -38.4198 O.2       3 UNK        -0.5279 
     29 N          19.3388  -26.8750  -40.0998 N.am      4 UNK        -0.4463 
     30 CA         19.4850  -25.5129  -39.5784 C.3       4 UNK         0.0283 
     31 CB         18.5055  -24.5876  -40.3173 C.3       4 UNK        -0.1875 
     32 C          20.9236  -24.9630  -39.6624 C.2       4 UNK         0.4949 
     33 O          21.2704  -24.0798  -38.8785 O.2       4 UNK        -0.5039 
     34 N          21.7311  -25.4814  -40.5989 N.am      5 UNK        -0.4663 
     35 CA         23.1458  -25.1300  -40.7695 C.3       5 UNK         0.0242 
     36 CB         23.5029  -25.2105  -42.2640 C.3       5 UNK        -0.1982 
     37 C          24.0851  -26.0354  -39.9503 C.2       5 UNK         0.5017 
     38 O          25.2442  -25.6688  -39.7552 O.2       5 UNK        -0.5012 
     39 N          23.5748  -27.1942  -39.5070 N.am      6 UNK        -0.4439 
     40 CA         24.2682  -28.2911  -38.8259 C.3       6 UNK         0.0297 
     41 CB         24.8051  -27.8453  -37.4487 C.3       6 UNK        -0.2006 
     42 C          25.3385  -28.9512  -39.7184 C.2       6 UNK         0.4892 
     43 O          26.4500  -29.2154  -39.2549 O.2       6 UNK        -0.5089 
     44 N          24.9839  -29.2104  -40.9833 N.am      7 UNK        -0.4243 
     45 CA         25.8316  -29.8628  -41.9807 C.3       7 UNK         0.0196 
     46 CB         26.6940  -28.8047  -42.6930 C.3       7 UNK        -0.2007 
     47 C          24.9447  -30.6125  -42.9814 C.2       7 UNK         0.5020 
     48 O          23.7758  -30.2622  -43.1258 O.2       7 UNK        -0.5147 
     49 N          25.5201  -31.6030  -43.6771 N.am      8 UNK        -0.4734 
     50 CA         24.8610  -32.4719  -44.6645 C.3       8 UNK         0.0238 
     51 CB         24.4151  -31.6625  -45.9070 C.3       8 UNK        -0.1912 
     52 C          23.7485  -33.3326  -44.0254 C.2       8 UNK         0.5038 
     53 O          24.0083  -33.9675  -43.0003 O.2       8 UNK        -0.5046 
     54 N          22.5640  -33.3806  -44.6500 N.am      9 UNK        -0.4200 
     55 CA         21.3716  -34.1010  -44.1763 C.3       9 UNK         0.0839 
     56 C          20.7899  -33.5704  -42.8346 C.2       9 UNK         0.5513 
     57 N          19.9448  -34.3555  -42.1793 N.am      9 UNK        -0.7519 
     58 O          21.0822  -32.4681  -42.3826 O.2       9 UNK        -0.4960 
     59 C59        20.2947  -34.2356  -45.2934 C.3       10 UNK        -0.0876 
     60 S60        19.9070  -32.6890  -46.1941 S.3       10 UNK        -0.2414 
     61 C61        18.0850  -32.6308  -46.1726 C.3       10 UNK         0.0169 
     62 H62        20.4797  -21.9456  -43.6075 H         1 UNK         0.0903 
     63 H63        19.0773  -22.7829  -42.9525 H         1 UNK         0.0903 
     64 H64        20.7050  -23.2384  -42.4284 H         1 UNK         0.0903 
     65 H65        18.3682  -24.6924  -43.9991 H         1 UNK         0.3096 
     66 H66        19.3596  -25.3189  -46.5798 H         1 UNK         0.1121 
     67 H67        17.6715  -27.2050  -46.4929 H         1 UNK         0.0849 
     68 H68        17.0272  -25.6133  -46.2327 H         1 UNK         0.0849 
     69 H69        14.8921  -28.2129  -44.2543 H         1 UNK         0.0865 
     70 H70        15.6484  -28.2225  -45.8176 H         1 UNK         0.0865 
     71 H71        17.0999  -30.0903  -46.4140 H         1 UNK         0.1346 
     72 H72        17.8081  -33.1697  -43.5135 H         1 UNK         0.1412 
     73 H73        15.9636  -29.4874  -42.3246 H         1 UNK         0.1426 
     74 H74        16.4888  -32.9564  -41.3743 H         1 UNK         0.0716 
     75 H75        15.9605  -31.3956  -40.8084 H         1 UNK         0.0716 
     76 H76        18.1354  -29.9468  -38.8572 H         1 UNK         0.0695 
     77 H77        17.4963  -29.4577  -40.4042 H         1 UNK         0.0695 
     78 H78        20.4773  -29.9521  -39.9148 H         1 UNK         0.0983 
     79 H79        19.1510  -29.5075  -42.3230 H         1 UNK         0.3095 
     80 H80        22.0778  -28.2745  -44.0779 H         1 UNK         0.0454 
     81 H81        21.4048  -30.6645  -44.2021 H         1 UNK         0.0851 
     82 H82        20.7967  -29.7925  -45.5893 H         1 UNK         0.0851 
     83 H83        19.7100  -30.2157  -44.2708 H         1 UNK         0.0851 
     84 H84        19.4898  -27.1655  -43.5366 H         1 UNK         0.2976 
     85 H85        18.8447  -26.9814  -40.9731 H         1 UNK         0.3116 
     86 H86        19.2070  -25.5227  -38.5221 H         1 UNK         0.0646 
     87 H87        18.6626  -24.6127  -41.3947 H         1 UNK         0.0847 
     88 H88        17.4711  -24.8732  -40.1249 H         1 UNK         0.0847 
     89 H89        18.6186  -23.5524  -39.9917 H         1 UNK         0.0847 
     90 H90        21.3910  -26.2422  -41.1717 H         1 UNK         0.3040 
     91 H91        23.3113  -24.1029  -40.4360 H         1 UNK         0.1015 
     92 H92        24.5454  -24.9362  -42.4312 H         1 UNK         0.0786 
     93 H93        22.8935  -24.5289  -42.8564 H         1 UNK         0.0786 
     94 H94        23.3655  -26.2161  -42.6631 H         1 UNK         0.0786 
     95 H95        22.6306  -27.4089  -39.8032 H         1 UNK         0.3172 
     96 H96        23.5109  -29.0560  -38.6477 H         1 UNK         0.0595 
     97 H97        25.6118  -27.1177  -37.5415 H         1 UNK         0.0839 
     98 H98        25.1998  -28.6956  -36.8914 H         1 UNK         0.0839 
     99 H99        24.0173  -27.3987  -36.8422 H         1 UNK         0.0839 
    100 H100       24.0371  -29.0124  -41.2975 H         1 UNK         0.2998 
    101 H101       26.4777  -30.5923  -41.4872 H         1 UNK         0.0822 
    102 H102       27.3441  -28.2837  -41.9898 H         1 UNK         0.0787 
    103 H103       26.0763  -28.0574  -43.1932 H         1 UNK         0.0787 
    104 H104       27.3339  -29.2610  -43.4491 H         1 UNK         0.0787 
    105 H105       26.4836  -31.8318  -43.4735 H         1 UNK         0.3055 
    106 H106       25.6205  -33.1810  -44.9982 H         1 UNK         0.1106 
    107 H107       23.6107  -30.9619  -45.6794 H         1 UNK         0.0828 
    108 H108       25.2451  -31.0853  -46.3145 H         1 UNK         0.0828 
    109 H109       24.0678  -32.3197  -46.7053 H         1 UNK         0.0828 
    110 H110       22.4217  -32.8035  -45.4652 H         1 UNK         0.2931 
    111 H111       21.7148  -35.1139  -43.9554 H         1 UNK         0.0412 
    112 H112       19.7078  -35.2763  -42.5131 H         1 UNK         0.3472 
    113 H113       19.5507  -34.0126  -41.3165 H         1 UNK         0.3472 
    114 H114       20.6524  -34.9485  -46.0376 H         1 UNK         0.0970 
    115 H115       19.3801  -34.6802  -44.8986 H         1 UNK         0.0970 
    116 H116       17.7492  -32.2761  -47.1481 H         1 UNK         0.0612 
    117 H117       17.6726  -33.6351  -46.0676 H         1 UNK         0.0612 
@<TRIPOS>BOND
     1    1    2 1    
     2    1   62 1    
     3    1   63 1    
     4    1   64 1    
     5    2    3 2    
     6    2    4 am   BACKBONE|DICT|INTERRES
     7    4    5 1    
     8    4   65 1    
     9    5    6 1    
    10    5   25 1    
    11    5   66 1    
    12    6    7 1    
    13    6   67 1    
    14    6   68 1    
    15    7    8 1    
    16    8    9 1    
    17    8   69 1    
    18    8   70 1    
    19    9   10 ar   
    20    9   14 ar   
    21   10   11 ar   
    22   10   71 1    
    23   11   12 ar   
    24   11   61 1    
    25   12   13 ar   
    26   12   72 1    
    27   13   14 ar   
    28   13   15 1    
    29   14   73 1    
    30   15   16 1    
    31   15   74 1    
    32   15   75 1    
    33   16   17 1    
    34   17   18 1    
    35   17   76 1    
    36   17   77 1    
    37   18   19 1    
    38   18   27 1    
    39   18   78 1    
    40   19   20 am   BACKBONE|DICT|INTERRES
    41   19   79 1    
    42   20   21 2    
    43   20   22 1    
    44   22   23 1    
    45   22   24 1    
    46   22   80 1    
    47   23   81 1    
    48   23   82 1    
    49   23   83 1    
    50   24   25 am   BACKBONE|DICT|INTERRES
    51   24   84 1    
    52   25   26 2    
    53   27   28 2    
    54   27   29 am   BACKBONE|DICT|INTERRES
    55   29   30 1    
    56   29   85 1    
    57   30   31 1    
    58   30   32 1    
    59   30   86 1    
    60   31   87 1    
    61   31   88 1    
    62   31   89 1    
    63   32   33 2    
    64   32   34 am   BACKBONE|DICT|INTERRES
    65   34   35 1    
    66   34   90 1    
    67   35   36 1    
    68   35   37 1    
    69   35   91 1    
    70   36   92 1    
    71   36   93 1    
    72   36   94 1    
    73   37   38 2    
    74   37   39 am   BACKBONE|DICT|INTERRES
    75   39   40 1    
    76   39   95 1    
    77   40   41 1    
    78   40   42 1    
    79   40   96 1    
    80   41   97 1    
    81   41   98 1    
    82   41   99 1    
    83   42   43 2    
    84   42   44 am   BACKBONE|DICT|INTERRES
    85   44   45 1    
    86   44  100 1    
    87   45   46 1    
    88   45   47 1    
    89   45  101 1    
    90   46  102 1    
    91   46  103 1    
    92   46  104 1    
    93   47   48 2    
    94   47   49 am   BACKBONE|DICT|INTERRES
    95   49   50 1    
    96   49  105 1    
    97   50   51 1    
    98   50   52 1    
    99   50  106 1    
   100   51  107 1    
   101   51  108 1    
   102   51  109 1    
   103   52   53 2    
   104   52   54 am   BACKBONE|DICT|INTERRES
   105   54   55 1    
   106   54  110 1    
   107   55   56 1    
   108   55   59 1    
   109   55  111 1    
   110   56   57 am   BACKBONE|DICT|INTERRES
   111   56   58 2    
   112   57  112 1    
   113   57  113 1    
   114   59   60 1    
   115   59  114 1    
   116   59  115 1    
   117   60   61 1    
   118   61  116 1    
   119   61  117 1    
@<TRIPOS>SUBSTRUCTURE
     1 UNK         1 GROUP             0       ****    0 ROOT    
