@<TRIPOS>MOLECULE
3R8
117   119    1
SMALL
USER_CHARGES


@<TRIPOS>ATOM
      1 CA         19.3064  -24.4570  -40.0852 C.3       0 UNK        -0.2013 
      2 C          18.8389  -24.2502  -41.5186 C.2       0 UNK         0.4866 
      3 O          18.7321  -23.1098  -41.9713 O.2       0 UNK        -0.5176 
      4 N          18.5523  -25.3470  -42.2307 N.am      1 UNK        -0.4884 
      5 CA         18.1435  -25.3683  -43.6409 C.3       1 UNK         0.0853 
      6 C6         17.6542  -26.7742  -44.0812 C.3       10 UNK        -0.0849 
      7 S7         16.4421  -27.5272  -42.9422 S.3       10 UNK        -0.2776 
      8 C8         15.7430  -28.8581  -43.9723 C.3       10 UNK         0.0316 
      9 C9         16.8053  -29.8327  -44.4654 C.ar      10 UNK        -0.0863 
     10 C10        17.3423  -30.7943  -43.6029 C.ar      10 UNK        -0.1009 
     11 C11        18.3054  -31.6999  -44.0610 C.ar      10 UNK        -0.0712 
     12 C12        18.7376  -31.6310  -45.3888 C.ar      10 UNK        -0.0894 
     13 C13        18.2064  -30.6763  -46.2617 C.ar      10 UNK        -0.0745 
     14 C14        17.2357  -29.7850  -45.7948 C.ar      10 UNK        -0.0972 
     15 C15        18.6680  -30.6228  -47.7136 C.3       10 UNK         0.0209 
     16 S16        19.3826  -29.0094  -48.1696 S.3       10 UNK        -0.2568 
     17 C17        20.7782  -28.9030  -47.0013 C.3       10 UNK        -0.0983 
     18 CA         21.5569  -27.5666  -47.1008 C.3       3 UNK         0.0876 
     19 N          20.6563  -26.4171  -46.9604 N.am      3 UNK        -0.4424 
     20 C          20.9384  -25.1428  -47.2586 C.2       2 UNK         0.4918 
     21 O          21.9873  -24.7817  -47.7917 O.2       2 UNK        -0.4875 
     22 CA         19.8899  -24.0843  -46.8531 C.3       2 UNK         0.0481 
     23 CB         19.0880  -23.6337  -48.0843 C.3       2 UNK        -0.1831 
     24 N          18.9545  -24.5038  -45.7955 N.am      2 UNK        -0.4498 
     25 C          19.2958  -24.9186  -44.5650 C.2       1 UNK         0.5027 
     26 O          20.4656  -25.0370  -44.1876 O.2       1 UNK        -0.4969 
     27 C          22.7128  -27.5690  -46.0695 C.2       3 UNK         0.5005 
     28 O          23.5930  -28.4240  -46.1767 O.2       3 UNK        -0.5279 
     29 N          22.6765  -26.6549  -45.0842 N.am      4 UNK        -0.4463 
     30 CA         23.5254  -26.5749  -43.8914 C.3       4 UNK         0.0283 
     31 CB         25.0261  -26.4666  -44.2385 C.3       4 UNK        -0.1875 
     32 C          23.1972  -27.7175  -42.9176 C.2       4 UNK         0.4949 
     33 O          24.0883  -28.4494  -42.4858 O.2       4 UNK        -0.5039 
     34 N          21.9053  -27.8356  -42.5716 N.am      5 UNK        -0.4663 
     35 CA         21.3500  -28.8895  -41.7079 C.3       5 UNK         0.0242 
     36 CB         19.8166  -28.8496  -41.7579 C.3       5 UNK        -0.1982 
     37 C          21.8529  -28.8838  -40.2523 C.2       5 UNK         0.5017 
     38 O          21.6186  -29.8536  -39.5306 O.2       5 UNK        -0.5012 
     39 N          22.5843  -27.8295  -39.8619 N.am      6 UNK        -0.4439 
     40 CA         23.4010  -27.7665  -38.6470 C.3       6 UNK         0.0297 
     41 CB         24.0423  -26.3741  -38.5396 C.3       6 UNK        -0.2006 
     42 C          24.4808  -28.8669  -38.5814 C.2       6 UNK         0.4892 
     43 O          24.8874  -29.2399  -37.4798 O.2       6 UNK        -0.5089 
     44 N          24.8862  -29.4114  -39.7408 N.am      7 UNK        -0.4243 
     45 CA         25.6913  -30.6266  -39.8754 C.3       7 UNK         0.0196 
     46 CB         26.3066  -30.6671  -41.2861 C.3       7 UNK        -0.2007 
     47 C          24.8626  -31.8897  -39.5552 C.2       7 UNK         0.5020 
     48 O          24.6325  -32.7254  -40.4303 O.2       7 UNK        -0.5147 
     49 N          24.4233  -31.9900  -38.2952 N.am      8 UNK        -0.4734 
     50 CA         23.7436  -33.1009  -37.6160 C.3       8 UNK         0.0238 
     51 CB         24.6421  -34.3535  -37.5926 C.3       8 UNK        -0.1912 
     52 C          22.3254  -33.4672  -38.0962 C.2       8 UNK         0.5038 
     53 O          21.5553  -33.9618  -37.2706 O.2       8 UNK        -0.5046 
     54 N          21.9979  -33.2782  -39.3822 N.am      9 UNK        -0.4200 
     55 CA         20.7274  -33.7406  -39.9709 C.3       9 UNK         0.0839 
     56 C          19.4456  -32.9992  -39.4886 C.2       9 UNK         0.5513 
     57 N          19.5336  -31.7679  -39.0028 N.am      9 UNK        -0.7519 
     58 O          18.3564  -33.5650  -39.5391 O.2       9 UNK        -0.4960 
     59 C59        20.8098  -33.9237  -41.5129 C.3       10 UNK        -0.0876 
     60 S60        20.5150  -32.4291  -42.5254 S.3       10 UNK        -0.2414 
     61 C61        18.8396  -32.7894  -43.1427 C.3       10 UNK         0.0169 
     62 H62        19.3598  -25.5130  -39.8204 H         1 UNK         0.0903 
     63 H63        20.2969  -24.0240  -39.9485 H         1 UNK         0.0903 
     64 H64        18.6218  -23.9678  -39.3929 H         1 UNK         0.0903 
     65 H65        18.6134  -26.2532  -41.7925 H         1 UNK         0.3096 
     66 H66        17.3212  -24.6581  -43.7536 H         1 UNK         0.1121 
     67 H67        18.4935  -27.4646  -44.1782 H         1 UNK         0.0849 
     68 H68        17.1975  -26.7172  -45.0712 H         1 UNK         0.0849 
     69 H69        14.9973  -29.4006  -43.3894 H         1 UNK         0.0865 
     70 H70        15.2049  -28.4157  -44.8122 H         1 UNK         0.0865 
     71 H71        17.0043  -30.8405  -42.5764 H         1 UNK         0.1346 
     72 H72        19.4808  -32.3327  -45.7425 H         1 UNK         0.1412 
     73 H73        16.8203  -29.0502  -46.4711 H         1 UNK         0.1426 
     74 H74        17.8158  -30.8266  -48.3633 H         1 UNK         0.0716 
     75 H75        19.4035  -31.4024  -47.9180 H         1 UNK         0.0716 
     76 H76        21.4400  -29.7498  -47.1944 H         1 UNK         0.0695 
     77 H77        20.3943  -29.0380  -45.9879 H         1 UNK         0.0695 
     78 H78        22.0170  -27.5097  -48.0897 H         1 UNK         0.0983 
     79 H79        19.7490  -26.6213  -46.5714 H         1 UNK         0.3095 
     80 H80        20.4399  -23.2217  -46.4717 H         1 UNK         0.0454 
     81 H81        19.7514  -23.2849  -48.8772 H         1 UNK         0.0851 
     82 H82        18.4170  -22.8090  -47.8435 H         1 UNK         0.0851 
     83 H83        18.4893  -24.4470  -48.4964 H         1 UNK         0.0851 
     84 H84        17.9733  -24.4524  -46.0313 H         1 UNK         0.2976 
     85 H85        21.8891  -26.0124  -45.0723 H         1 UNK         0.3116 
     86 H86        23.2454  -25.6497  -43.3852 H         1 UNK         0.0646 
     87 H87        25.6135  -26.2563  -43.3440 H         1 UNK         0.0847 
     88 H88        25.4186  -27.3892  -44.6663 H         1 UNK         0.0847 
     89 H89        25.2131  -25.6601  -44.9472 H         1 UNK         0.0847 
     90 H90        21.2491  -27.1730  -42.9614 H         1 UNK         0.3040 
     91 H91        21.6765  -29.8409  -42.1300 H         1 UNK         0.1015 
     92 H92        19.3849  -29.6540  -41.1604 H         1 UNK         0.0786 
     93 H93        19.4563  -28.9915  -42.7755 H         1 UNK         0.0786 
     94 H94        19.4203  -27.9116  -41.3733 H         1 UNK         0.0786 
     95 H95        22.7105  -27.0847  -40.5309 H         1 UNK         0.3172 
     96 H96        22.7351  -27.9086  -37.7934 H         1 UNK         0.0595 
     97 H97        24.7068  -26.1687  -39.3800 H         1 UNK         0.0839 
     98 H98        24.6352  -26.2882  -37.6278 H         1 UNK         0.0839 
     99 H99        23.2867  -25.5889  -38.5066 H         1 UNK         0.0839 
    100 H100       24.5031  -29.0433  -40.6068 H         1 UNK         0.2998 
    101 H101       26.5123  -30.5824  -39.1565 H         1 UNK         0.0822 
    102 H102       26.9552  -31.5360  -41.4043 H         1 UNK         0.0787 
    103 H103       25.5395  -30.7252  -42.0596 H         1 UNK         0.0787 
    104 H104       26.9108  -29.7811  -41.4819 H         1 UNK         0.0787 
    105 H105       24.6078  -31.1818  -37.7061 H         1 UNK         0.3055 
    106 H106       23.6252  -32.7696  -36.5827 H         1 UNK         0.1106 
    107 H107       25.6138  -34.1377  -37.1484 H         1 UNK         0.0828 
    108 H108       24.1874  -35.1499  -37.0016 H         1 UNK         0.0828 
    109 H109       24.8110  -34.7513  -38.5938 H         1 UNK         0.0828 
    110 H110       22.6955  -32.8895  -40.0070 H         1 UNK         0.2931 
    111 H111       20.6057  -34.7558  -39.5861 H         1 UNK         0.0412 
    112 H112       18.7001  -31.3051  -38.6797 H         1 UNK         0.3472 
    113 H113       20.4117  -31.2583  -39.0420 H         1 UNK         0.3472 
    114 H114       21.7854  -34.3287  -41.7864 H         1 UNK         0.0970 
    115 H115       20.0969  -34.6930  -41.8146 H         1 UNK         0.0970 
    116 H116       18.1675  -32.9292  -42.2949 H         1 UNK         0.0612 
    117 H117       18.8525  -33.7370  -43.6832 H         1 UNK         0.0612 
@<TRIPOS>BOND
     1    1    2 1    
     2    1   62 1    
     3    1   63 1    
     4    1   64 1    
     5    2    3 2    
     6    2    4 am   BACKBONE|DICT|INTERRES
     7    4    5 1    
     8    4   65 1    
     9    5    6 1    
    10    5   25 1    
    11    5   66 1    
    12    6    7 1    
    13    6   67 1    
    14    6   68 1    
    15    7    8 1    
    16    8    9 1    
    17    8   69 1    
    18    8   70 1    
    19    9   10 ar   
    20    9   14 ar   
    21   10   11 ar   
    22   10   71 1    
    23   11   12 ar   
    24   11   61 1    
    25   12   13 ar   
    26   12   72 1    
    27   13   14 ar   
    28   13   15 1    
    29   14   73 1    
    30   15   16 1    
    31   15   74 1    
    32   15   75 1    
    33   16   17 1    
    34   17   18 1    
    35   17   76 1    
    36   17   77 1    
    37   18   19 1    
    38   18   27 1    
    39   18   78 1    
    40   19   20 am   BACKBONE|DICT|INTERRES
    41   19   79 1    
    42   20   21 2    
    43   20   22 1    
    44   22   23 1    
    45   22   24 1    
    46   22   80 1    
    47   23   81 1    
    48   23   82 1    
    49   23   83 1    
    50   24   25 am   BACKBONE|DICT|INTERRES
    51   24   84 1    
    52   25   26 2    
    53   27   28 2    
    54   27   29 am   BACKBONE|DICT|INTERRES
    55   29   30 1    
    56   29   85 1    
    57   30   31 1    
    58   30   32 1    
    59   30   86 1    
    60   31   87 1    
    61   31   88 1    
    62   31   89 1    
    63   32   33 2    
    64   32   34 am   BACKBONE|DICT|INTERRES
    65   34   35 1    
    66   34   90 1    
    67   35   36 1    
    68   35   37 1    
    69   35   91 1    
    70   36   92 1    
    71   36   93 1    
    72   36   94 1    
    73   37   38 2    
    74   37   39 am   BACKBONE|DICT|INTERRES
    75   39   40 1    
    76   39   95 1    
    77   40   41 1    
    78   40   42 1    
    79   40   96 1    
    80   41   97 1    
    81   41   98 1    
    82   41   99 1    
    83   42   43 2    
    84   42   44 am   BACKBONE|DICT|INTERRES
    85   44   45 1    
    86   44  100 1    
    87   45   46 1    
    88   45   47 1    
    89   45  101 1    
    90   46  102 1    
    91   46  103 1    
    92   46  104 1    
    93   47   48 2    
    94   47   49 am   BACKBONE|DICT|INTERRES
    95   49   50 1    
    96   49  105 1    
    97   50   51 1    
    98   50   52 1    
    99   50  106 1    
   100   51  107 1    
   101   51  108 1    
   102   51  109 1    
   103   52   53 2    
   104   52   54 am   BACKBONE|DICT|INTERRES
   105   54   55 1    
   106   54  110 1    
   107   55   56 1    
   108   55   59 1    
   109   55  111 1    
   110   56   57 am   BACKBONE|DICT|INTERRES
   111   56   58 2    
   112   57  112 1    
   113   57  113 1    
   114   59   60 1    
   115   59  114 1    
   116   59  115 1    
   117   60   61 1    
   118   61  116 1    
   119   61  117 1    
@<TRIPOS>SUBSTRUCTURE
     1 UNK         1 GROUP             0       ****    0 ROOT    
