@<TRIPOS>MOLECULE
3R8
117   119    1
SMALL
USER_CHARGES


@<TRIPOS>ATOM
      1 CA         13.4246  -23.6263  -44.3563 C.3       0 UNK        -0.2013 
      2 C          14.7130  -24.4333  -44.3034 C.2       0 UNK         0.4866 
      3 O          15.4552  -24.3307  -43.3256 O.2       0 UNK        -0.5176 
      4 N          14.9840  -25.2245  -45.3517 N.am      1 UNK        -0.4884 
      5 CA         16.1439  -26.1108  -45.5514 C.3       1 UNK         0.0853 
      6 C6         16.3160  -27.1956  -44.4552 C.3       10 UNK        -0.0849 
      7 S7         14.9097  -28.3601  -44.3844 S.3       10 UNK        -0.2776 
      8 C8         15.4756  -29.7355  -45.4430 C.3       10 UNK         0.0316 
      9 C9         16.7514  -30.3784  -44.9172 C.ar      10 UNK        -0.0863 
     10 C10        16.7152  -31.2079  -43.7924 C.ar      10 UNK        -0.1009 
     11 C11        17.8936  -31.7604  -43.2812 C.ar      10 UNK        -0.0712 
     12 C12        19.1129  -31.4736  -43.9059 C.ar      10 UNK        -0.0894 
     13 C13        19.1636  -30.6432  -45.0286 C.ar      10 UNK        -0.0745 
     14 C14        17.9744  -30.1194  -45.5429 C.ar      10 UNK        -0.0972 
     15 C15        20.4978  -30.3273  -45.6945 C.3       10 UNK         0.0209 
     16 S16        20.7763  -28.5368  -45.9059 S.3       10 UNK        -0.2568 
     17 C17        21.2288  -28.0101  -44.2208 C.3       10 UNK        -0.0983 
     18 CA         21.5636  -26.4961  -44.1911 C.3       3 UNK         0.0876 
     19 N          20.3680  -25.6663  -44.3618 N.am      3 UNK        -0.4424 
     20 C          20.3791  -24.3963  -44.7871 C.2       2 UNK         0.4918 
     21 O          21.4039  -23.8157  -45.1504 O.2       2 UNK        -0.4875 
     22 CA         19.0350  -23.6341  -44.7874 C.3       2 UNK         0.0481 
     23 CB         18.9671  -22.5615  -45.8952 C.3       2 UNK        -0.1831 
     24 N          17.8414  -24.4905  -44.8205 N.am      2 UNK        -0.4498 
     25 C          17.4614  -25.3418  -45.7841 C.2       1 UNK         0.5027 
     26 O          18.0965  -25.5361  -46.8208 O.2       1 UNK        -0.4969 
     27 C          22.2848  -26.1055  -42.8866 C.2       3 UNK         0.5005 
     28 O          21.6256  -25.8562  -41.8731 O.2       3 UNK        -0.5279 
     29 N          23.6240  -26.0738  -42.9348 N.am      4 UNK        -0.4463 
     30 CA         24.5007  -25.8625  -41.7786 C.3       4 UNK         0.0283 
     31 CB         25.9297  -25.5975  -42.2803 C.3       4 UNK        -0.1875 
     32 C          24.4851  -27.0799  -40.8415 C.2       4 UNK         0.4949 
     33 O          24.1599  -28.1793  -41.2877 O.2       4 UNK        -0.5039 
     34 N          24.8801  -26.8833  -39.5767 N.am      5 UNK        -0.4663 
     35 CA         24.8273  -27.8837  -38.4977 C.3       5 UNK         0.0242 
     36 CB         25.4100  -27.2702  -37.2142 C.3       5 UNK        -0.1982 
     37 C          25.5060  -29.2359  -38.7980 C.2       5 UNK         0.5017 
     38 O          25.0529  -30.2601  -38.2877 O.2       5 UNK        -0.5012 
     39 N          26.5562  -29.2198  -39.6299 N.am      6 UNK        -0.4439 
     40 CA         27.2620  -30.4132  -40.1047 C.3       6 UNK         0.0297 
     41 CB         28.6399  -29.9970  -40.6449 C.3       6 UNK        -0.2006 
     42 C          26.4885  -31.2088  -41.1760 C.2       6 UNK         0.4892 
     43 O          26.7444  -32.4041  -41.3263 O.2       6 UNK        -0.5089 
     44 N          25.5857  -30.5435  -41.9091 N.am      7 UNK        -0.4243 
     45 CA         24.7835  -31.1196  -42.9916 C.3       7 UNK         0.0196 
     46 CB         24.8227  -30.1638  -44.1962 C.3       7 UNK        -0.2007 
     47 C          23.3272  -31.3748  -42.5721 C.2       7 UNK         0.5020 
     48 O          22.6620  -32.1966  -43.2022 O.2       7 UNK        -0.5147 
     49 N          22.8469  -30.6705  -41.5383 N.am      8 UNK        -0.4734 
     50 CA         21.4780  -30.6768  -41.0115 C.3       8 UNK         0.0238 
     51 CB         21.2943  -29.4421  -40.1093 C.3       8 UNK        -0.1912 
     52 C          21.0574  -31.9883  -40.3096 C.2       8 UNK         0.5038 
     53 O          20.5387  -31.9448  -39.1921 O.2       8 UNK        -0.5046 
     54 N          21.2403  -33.1214  -40.9973 N.am      9 UNK        -0.4200 
     55 CA         20.8194  -34.4770  -40.6075 C.3       9 UNK         0.0839 
     56 C          21.4902  -34.9758  -39.2896 C.2       9 UNK         0.5513 
     57 N          20.8971  -35.9273  -38.5794 N.am      9 UNK        -0.7519 
     58 O          22.5868  -34.5512  -38.9305 O.2       9 UNK        -0.4960 
     59 C59        19.2693  -34.6509  -40.6539 C.3       10 UNK        -0.0876 
     60 S60        18.5733  -34.2741  -42.3020 S.3       10 UNK        -0.2414 
     61 C61        17.8571  -32.6216  -42.0257 C.3       10 UNK         0.0169 
     62 H62        13.6472  -22.5609  -44.3031 H         1 UNK         0.0903 
     63 H63        12.8633  -23.8106  -45.2722 H         1 UNK         0.0903 
     64 H64        12.7872  -23.8839  -43.5109 H         1 UNK         0.0903 
     65 H65        14.3277  -25.2296  -46.1209 H         1 UNK         0.3096 
     66 H66        15.9464  -26.6349  -46.4885 H         1 UNK         0.1121 
     67 H67        16.4191  -26.7402  -43.4696 H         1 UNK         0.0849 
     68 H68        17.2426  -27.7480  -44.6043 H         1 UNK         0.0849 
     69 H69        14.6876  -30.4881  -45.4973 H         1 UNK         0.0865 
     70 H70        15.6162  -29.3706  -46.4617 H         1 UNK         0.0865 
     71 H71        15.7699  -31.4030  -43.3042 H         1 UNK         0.1346 
     72 H72        20.0244  -31.9057  -43.5185 H         1 UNK         0.1412 
     73 H73        18.0086  -29.4791  -46.4142 H         1 UNK         0.1426 
     74 H74        20.5139  -30.8006  -46.6770 H         1 UNK         0.0716 
     75 H75        21.3305  -30.7545  -45.1341 H         1 UNK         0.0716 
     76 H76        22.0861  -28.6069  -43.9041 H         1 UNK         0.0695 
     77 H77        20.4159  -28.2492  -43.5323 H         1 UNK         0.0695 
     78 H78        22.2430  -26.2839  -45.0204 H         1 UNK         0.0983 
     79 H79        19.4975  -26.0611  -44.0428 H         1 UNK         0.3095 
     80 H80        18.9934  -23.1133  -43.8299 H         1 UNK         0.0454 
     81 H81        18.0219  -22.0198  -45.8663 H         1 UNK         0.0851 
     82 H82        19.0741  -22.9981  -46.8886 H         1 UNK         0.0851 
     83 H83        19.7626  -21.8246  -45.7785 H         1 UNK         0.0851 
     84 H84        17.1967  -24.3873  -44.0387 H         1 UNK         0.2976 
     85 H85        24.0831  -26.3157  -43.8008 H         1 UNK         0.3116 
     86 H86        24.1461  -24.9895  -41.2265 H         1 UNK         0.0646 
     87 H87        26.3322  -26.4518  -42.8268 H         1 UNK         0.0847 
     88 H88        26.6079  -25.3939  -41.4506 H         1 UNK         0.0847 
     89 H89        25.9642  -24.7307  -42.9405 H         1 UNK         0.0847 
     90 H90        25.1581  -25.9510  -39.3037 H         1 UNK         0.3040 
     91 H91        23.7719  -28.0982  -38.3188 H         1 UNK         0.1015 
     92 H92        26.4555  -26.9862  -37.3414 H         1 UNK         0.0786 
     93 H93        25.3634  -27.9784  -36.3853 H         1 UNK         0.0786 
     94 H94        24.8545  -26.3833  -36.9088 H         1 UNK         0.0786 
     95 H95        26.8580  -28.3280  -39.9951 H         1 UNK         0.3172 
     96 H96        27.4201  -31.0790  -39.2534 H         1 UNK         0.0595 
     97 H97        28.5539  -29.3206  -41.4964 H         1 UNK         0.0839 
     98 H98        29.2074  -30.8674  -40.9777 H         1 UNK         0.0839 
     99 H99        29.2346  -29.5001  -39.8781 H         1 UNK         0.0839 
    100 H100       25.3831  -29.5756  -41.6771 H         1 UNK         0.2998 
    101 H101       25.2031  -32.0780  -43.3051 H         1 UNK         0.0822 
    102 H102       25.8383  -30.0500  -44.5754 H         1 UNK         0.0787 
    103 H103       24.2102  -30.5394  -45.0173 H         1 UNK         0.0787 
    104 H104       24.4509  -29.1720  -43.9371 H         1 UNK         0.0787 
    105 H105       23.4560  -29.9583  -41.1487 H         1 UNK         0.3055 
    106 H106       20.8035  -30.5480  -41.8578 H         1 UNK         0.1106 
    107 H107       20.2678  -29.3661  -39.7482 H         1 UNK         0.0828 
    108 H108       21.9469  -29.4846  -39.2369 H         1 UNK         0.0828 
    109 H109       21.5097  -28.5190  -40.6479 H         1 UNK         0.0828 
    110 H110       21.7136  -33.0429  -41.8939 H         1 UNK         0.2931 
    111 H111       21.2356  -35.1256  -41.3790 H         1 UNK         0.0412 
    112 H112       20.0128  -36.3205  -38.8594 H         1 UNK         0.3472 
    113 H113       21.3483  -36.2613  -37.7417 H         1 UNK         0.3472 
    114 H114       18.7860  -34.0411  -39.8886 H         1 UNK         0.0970 
    115 H115       18.9922  -35.6827  -40.4354 H         1 UNK         0.0970 
    116 H116       18.3961  -32.0975  -41.2380 H         1 UNK         0.0612 
    117 H117       16.8351  -32.7445  -41.6640 H         1 UNK         0.0612 
@<TRIPOS>BOND
     1    1    2 1    
     2    1   62 1    
     3    1   63 1    
     4    1   64 1    
     5    2    3 2    
     6    2    4 am   BACKBONE|DICT|INTERRES
     7    4    5 1    
     8    4   65 1    
     9    5    6 1    
    10    5   25 1    
    11    5   66 1    
    12    6    7 1    
    13    6   67 1    
    14    6   68 1    
    15    7    8 1    
    16    8    9 1    
    17    8   69 1    
    18    8   70 1    
    19    9   10 ar   
    20    9   14 ar   
    21   10   11 ar   
    22   10   71 1    
    23   11   12 ar   
    24   11   61 1    
    25   12   13 ar   
    26   12   72 1    
    27   13   14 ar   
    28   13   15 1    
    29   14   73 1    
    30   15   16 1    
    31   15   74 1    
    32   15   75 1    
    33   16   17 1    
    34   17   18 1    
    35   17   76 1    
    36   17   77 1    
    37   18   19 1    
    38   18   27 1    
    39   18   78 1    
    40   19   20 am   BACKBONE|DICT|INTERRES
    41   19   79 1    
    42   20   21 2    
    43   20   22 1    
    44   22   23 1    
    45   22   24 1    
    46   22   80 1    
    47   23   81 1    
    48   23   82 1    
    49   23   83 1    
    50   24   25 am   BACKBONE|DICT|INTERRES
    51   24   84 1    
    52   25   26 2    
    53   27   28 2    
    54   27   29 am   BACKBONE|DICT|INTERRES
    55   29   30 1    
    56   29   85 1    
    57   30   31 1    
    58   30   32 1    
    59   30   86 1    
    60   31   87 1    
    61   31   88 1    
    62   31   89 1    
    63   32   33 2    
    64   32   34 am   BACKBONE|DICT|INTERRES
    65   34   35 1    
    66   34   90 1    
    67   35   36 1    
    68   35   37 1    
    69   35   91 1    
    70   36   92 1    
    71   36   93 1    
    72   36   94 1    
    73   37   38 2    
    74   37   39 am   BACKBONE|DICT|INTERRES
    75   39   40 1    
    76   39   95 1    
    77   40   41 1    
    78   40   42 1    
    79   40   96 1    
    80   41   97 1    
    81   41   98 1    
    82   41   99 1    
    83   42   43 2    
    84   42   44 am   BACKBONE|DICT|INTERRES
    85   44   45 1    
    86   44  100 1    
    87   45   46 1    
    88   45   47 1    
    89   45  101 1    
    90   46  102 1    
    91   46  103 1    
    92   46  104 1    
    93   47   48 2    
    94   47   49 am   BACKBONE|DICT|INTERRES
    95   49   50 1    
    96   49  105 1    
    97   50   51 1    
    98   50   52 1    
    99   50  106 1    
   100   51  107 1    
   101   51  108 1    
   102   51  109 1    
   103   52   53 2    
   104   52   54 am   BACKBONE|DICT|INTERRES
   105   54   55 1    
   106   54  110 1    
   107   55   56 1    
   108   55   59 1    
   109   55  111 1    
   110   56   57 am   BACKBONE|DICT|INTERRES
   111   56   58 2    
   112   57  112 1    
   113   57  113 1    
   114   59   60 1    
   115   59  114 1    
   116   59  115 1    
   117   60   61 1    
   118   61  116 1    
   119   61  117 1    
@<TRIPOS>SUBSTRUCTURE
     1 UNK         1 GROUP             0       ****    0 ROOT    
