@<TRIPOS>MOLECULE
3R8
117   119    1
SMALL
USER_CHARGES


@<TRIPOS>ATOM
      1 CA         22.3860  -29.5922  -47.5661 C.3       0 UNK        -0.2013 
      2 C          21.3527  -28.9382  -46.6625 C.2       0 UNK         0.4866 
      3 O          21.4916  -28.9780  -45.4406 O.2       0 UNK        -0.5176 
      4 N          20.3242  -28.3110  -47.2468 N.am      1 UNK        -0.4884 
      5 CA         19.1834  -27.7022  -46.5438 C.3       1 UNK         0.0853 
      6 C6         17.9043  -27.6673  -47.4273 C.3       10 UNK        -0.0849 
      7 S7         17.4662  -29.3043  -48.1202 S.3       10 UNK        -0.2776 
      8 C8         16.2526  -29.9377  -46.9132 C.3       10 UNK         0.0316 
      9 C9         16.8353  -29.9947  -45.5089 C.ar      10 UNK        -0.0863 
     10 C10        17.8206  -30.9338  -45.1893 C.ar      10 UNK        -0.1009 
     11 C11        18.4216  -30.9333  -43.9264 C.ar      10 UNK        -0.0712 
     12 C12        18.0288  -29.9762  -42.9823 C.ar      10 UNK        -0.0894 
     13 C13        17.0184  -29.0549  -43.2783 C.ar      10 UNK        -0.0745 
     14 C14        16.4199  -29.0770  -44.5410 C.ar      10 UNK        -0.0972 
     15 C15        16.5602  -28.0451  -42.2346 C.3       10 UNK         0.0209 
     16 S16        16.7608  -26.3317  -42.8235 S.3       10 UNK        -0.2568 
     17 C17        17.5736  -25.5449  -41.3948 C.3       10 UNK        -0.0983 
     18 CA         19.1115  -25.7119  -41.4368 C.3       3 UNK         0.0876 
     19 N          19.6772  -25.2231  -42.7043 N.am      3 UNK        -0.4424 
     20 C          20.9468  -25.3399  -43.1102 C.2       2 UNK         0.4918 
     21 O          21.8679  -25.7173  -42.3847 O.2       2 UNK        -0.4875 
     22 CA         21.2072  -25.0498  -44.5931 C.3       2 UNK         0.0481 
     23 CB         22.7024  -24.8398  -44.8933 C.3       2 UNK        -0.1831 
     24 N          20.7267  -26.1960  -45.3586 N.am      2 UNK        -0.4498 
     25 C          19.5187  -26.3248  -45.9201 C.2       1 UNK         0.5027 
     26 O          18.6902  -25.4128  -45.9455 O.2       1 UNK        -0.4969 
     27 C          19.7537  -25.1449  -40.1518 C.2       3 UNK         0.5005 
     28 O          19.5878  -25.7483  -39.0909 O.2       3 UNK        -0.5279 
     29 N          20.4929  -24.0302  -40.2567 N.am      4 UNK        -0.4463 
     30 CA         21.3292  -23.4821  -39.1835 C.3       4 UNK         0.0283 
     31 CB         21.8723  -22.1089  -39.6096 C.3       4 UNK        -0.1875 
     32 C          22.4871  -24.4191  -38.7842 C.2       4 UNK         0.4949 
     33 O          22.8626  -24.4438  -37.6120 O.2       4 UNK        -0.5039 
     34 N          23.0133  -25.1762  -39.7566 N.am      5 UNK        -0.4663 
     35 CA         24.0116  -26.2290  -39.5568 C.3       5 UNK         0.0242 
     36 CB         25.1425  -26.0508  -40.5840 C.3       5 UNK        -0.1982 
     37 C          23.3838  -27.6256  -39.6949 C.2       5 UNK         0.5017 
     38 O          23.7825  -28.5362  -38.9698 O.2       5 UNK        -0.5012 
     39 N          22.4292  -27.7637  -40.6293 N.am      6 UNK        -0.4439 
     40 CA         21.7075  -28.9815  -41.0202 C.3       6 UNK         0.0297 
     41 CB         20.8497  -29.5249  -39.8585 C.3       6 UNK        -0.2006 
     42 C          22.6066  -30.0573  -41.6613 C.2       6 UNK         0.4892 
     43 O          22.2550  -31.2372  -41.6253 O.2       6 UNK        -0.5089 
     44 N          23.7342  -29.6269  -42.2516 N.am      7 UNK        -0.4243 
     45 CA         24.7209  -30.4180  -42.9964 C.3       7 UNK         0.0196 
     46 CB         24.2196  -30.6439  -44.4401 C.3       7 UNK        -0.2007 
     47 C          25.1274  -31.7113  -42.2617 C.2       7 UNK         0.5020 
     48 O          25.7285  -31.6300  -41.1896 O.2       7 UNK        -0.5147 
     49 N          24.7840  -32.8673  -42.8413 N.am      8 UNK        -0.4734 
     50 CA         25.0043  -34.1928  -42.2640 C.3       8 UNK         0.0238 
     51 CB         25.5323  -35.1246  -43.3693 C.3       8 UNK        -0.1912 
     52 C          23.7360  -34.7872  -41.6241 C.2       8 UNK         0.5038 
     53 O          23.8496  -35.8334  -40.9824 O.2       8 UNK        -0.5046 
     54 N          22.5632  -34.1606  -41.8154 N.am      9 UNK        -0.4200 
     55 CA         21.2842  -34.6401  -41.2638 C.3       9 UNK         0.0839 
     56 C          21.0246  -34.1756  -39.8022 C.2       9 UNK         0.5513 
     57 N          21.6042  -33.0674  -39.3574 N.am      9 UNK        -0.7519 
     58 O          20.3108  -34.8451  -39.0595 O.2       9 UNK        -0.4960 
     59 C59        20.0924  -34.4133  -42.2431 C.3       10 UNK        -0.0876 
     60 S60        19.1260  -32.8686  -42.0632 S.3       10 UNK        -0.2414 
     61 C61        19.5012  -31.9598  -43.5983 C.3       10 UNK         0.0169 
     62 H62        23.3542  -29.1087  -47.4400 H         1 UNK         0.0903 
     63 H63        22.4945  -30.6451  -47.3074 H         1 UNK         0.0903 
     64 H64        22.1069  -29.5283  -48.6176 H         1 UNK         0.0903 
     65 H65        20.2662  -28.2905  -48.2552 H         1 UNK         0.3096 
     66 H66        18.9633  -28.3370  -45.6845 H         1 UNK         0.1121 
     67 H67        17.0525  -27.2870  -46.8602 H         1 UNK         0.0849 
     68 H68        18.0421  -26.9759  -48.2604 H         1 UNK         0.0849 
     69 H69        15.9364  -30.9371  -47.2155 H         1 UNK         0.0865 
     70 H70        15.3583  -29.3130  -46.9407 H         1 UNK         0.0865 
     71 H71        18.1372  -31.6469  -45.9383 H         1 UNK         0.1346 
     72 H72        18.4985  -29.9674  -42.0086 H         1 UNK         0.1412 
     73 H73        15.6506  -28.3542  -44.7774 H         1 UNK         0.1426 
     74 H74        17.1085  -28.1900  -41.3026 H         1 UNK         0.0716 
     75 H75        15.5089  -28.2196  -42.0019 H         1 UNK         0.0716 
     76 H76        17.1537  -25.9602  -40.4762 H         1 UNK         0.0695 
     77 H77        17.3074  -24.4862  -41.3970 H         1 UNK         0.0695 
     78 H78        19.3225  -26.7831  -41.4114 H         1 UNK         0.0983 
     79 H79        18.9922  -24.9325  -43.3896 H         1 UNK         0.3095 
     80 H80        20.6686  -24.1423  -44.8734 H         1 UNK         0.0454 
     81 H81        22.8642  -24.6072  -45.9458 H         1 UNK         0.0851 
     82 H82        23.2954  -25.7234  -44.6529 H         1 UNK         0.0851 
     83 H83        23.1041  -24.0091  -44.3118 H         1 UNK         0.0851 
     84 H84        21.2973  -27.0364  -45.3239 H         1 UNK         0.2976 
     85 H85        20.5619  -23.5903  -41.1630 H         1 UNK         0.3116 
     86 H86        20.6973  -23.3428  -38.3036 H         1 UNK         0.0646 
     87 H87        22.4789  -21.6678  -38.8173 H         1 UNK         0.0847 
     88 H88        21.0637  -21.4094  -39.8224 H         1 UNK         0.0847 
     89 H89        22.5006  -22.1792  -40.4985 H         1 UNK         0.0847 
     90 H90        22.6243  -25.0957  -40.6904 H         1 UNK         0.3040 
     91 H91        24.4450  -26.1602  -38.5563 H         1 UNK         0.1015 
     92 H92        25.6464  -25.0933  -40.4511 H         1 UNK         0.0786 
     93 H93        24.7720  -26.0925  -41.6092 H         1 UNK         0.0786 
     94 H94        25.8971  -26.8312  -40.4748 H         1 UNK         0.0786 
     95 H95        22.2248  -26.9517  -41.2102 H         1 UNK         0.3172 
     96 H96        21.0212  -28.6752  -41.8111 H         1 UNK         0.0595 
     97 H97        21.4665  -29.9041  -39.0437 H         1 UNK         0.0839 
     98 H98        20.2149  -30.3475  -40.1905 H         1 UNK         0.0839 
     99 H99        20.1950  -28.7529  -39.4541 H         1 UNK         0.0839 
    100 H100       23.9310  -28.6393  -42.1874 H         1 UNK         0.2998 
    101 H101       25.6259  -29.8113  -43.0542 H         1 UNK         0.0822 
    102 H102       23.2591  -31.1605  -44.4671 H         1 UNK         0.0787 
    103 H103       24.0884  -29.6905  -44.9513 H         1 UNK         0.0787 
    104 H104       24.9345  -31.2191  -45.0300 H         1 UNK         0.0787 
    105 H105       24.2861  -32.8308  -43.7194 H         1 UNK         0.3055 
    106 H106       25.7604  -34.1390  -41.4773 H         1 UNK         0.1106 
    107 H107       25.7476  -36.1187  -42.9750 H         1 UNK         0.0828 
    108 H108       24.8099  -35.2446  -44.1777 H         1 UNK         0.0828 
    109 H109       26.4583  -34.7433  -43.8000 H         1 UNK         0.0828 
    110 H110       22.5541  -33.2311  -42.2186 H         1 UNK         0.2931 
    111 H111       21.3685  -35.7267  -41.1928 H         1 UNK         0.0412 
    112 H112       22.0954  -32.4693  -40.0120 H         1 UNK         0.3472 
    113 H113       21.4486  -32.7686  -38.4085 H         1 UNK         0.3472 
    114 H114       20.4275  -34.5264  -43.2748 H         1 UNK         0.0970 
    115 H115       19.3754  -35.2232  -42.0982 H         1 UNK         0.0970 
    116 H116       20.4617  -31.4538  -43.5051 H         1 UNK         0.0612 
    117 H117       19.6025  -32.6709  -44.4190 H         1 UNK         0.0612 
@<TRIPOS>BOND
     1    1    2 1    
     2    1   62 1    
     3    1   63 1    
     4    1   64 1    
     5    2    3 2    
     6    2    4 am   BACKBONE|DICT|INTERRES
     7    4    5 1    
     8    4   65 1    
     9    5    6 1    
    10    5   25 1    
    11    5   66 1    
    12    6    7 1    
    13    6   67 1    
    14    6   68 1    
    15    7    8 1    
    16    8    9 1    
    17    8   69 1    
    18    8   70 1    
    19    9   10 ar   
    20    9   14 ar   
    21   10   11 ar   
    22   10   71 1    
    23   11   12 ar   
    24   11   61 1    
    25   12   13 ar   
    26   12   72 1    
    27   13   14 ar   
    28   13   15 1    
    29   14   73 1    
    30   15   16 1    
    31   15   74 1    
    32   15   75 1    
    33   16   17 1    
    34   17   18 1    
    35   17   76 1    
    36   17   77 1    
    37   18   19 1    
    38   18   27 1    
    39   18   78 1    
    40   19   20 am   BACKBONE|DICT|INTERRES
    41   19   79 1    
    42   20   21 2    
    43   20   22 1    
    44   22   23 1    
    45   22   24 1    
    46   22   80 1    
    47   23   81 1    
    48   23   82 1    
    49   23   83 1    
    50   24   25 am   BACKBONE|DICT|INTERRES
    51   24   84 1    
    52   25   26 2    
    53   27   28 2    
    54   27   29 am   BACKBONE|DICT|INTERRES
    55   29   30 1    
    56   29   85 1    
    57   30   31 1    
    58   30   32 1    
    59   30   86 1    
    60   31   87 1    
    61   31   88 1    
    62   31   89 1    
    63   32   33 2    
    64   32   34 am   BACKBONE|DICT|INTERRES
    65   34   35 1    
    66   34   90 1    
    67   35   36 1    
    68   35   37 1    
    69   35   91 1    
    70   36   92 1    
    71   36   93 1    
    72   36   94 1    
    73   37   38 2    
    74   37   39 am   BACKBONE|DICT|INTERRES
    75   39   40 1    
    76   39   95 1    
    77   40   41 1    
    78   40   42 1    
    79   40   96 1    
    80   41   97 1    
    81   41   98 1    
    82   41   99 1    
    83   42   43 2    
    84   42   44 am   BACKBONE|DICT|INTERRES
    85   44   45 1    
    86   44  100 1    
    87   45   46 1    
    88   45   47 1    
    89   45  101 1    
    90   46  102 1    
    91   46  103 1    
    92   46  104 1    
    93   47   48 2    
    94   47   49 am   BACKBONE|DICT|INTERRES
    95   49   50 1    
    96   49  105 1    
    97   50   51 1    
    98   50   52 1    
    99   50  106 1    
   100   51  107 1    
   101   51  108 1    
   102   51  109 1    
   103   52   53 2    
   104   52   54 am   BACKBONE|DICT|INTERRES
   105   54   55 1    
   106   54  110 1    
   107   55   56 1    
   108   55   59 1    
   109   55  111 1    
   110   56   57 am   BACKBONE|DICT|INTERRES
   111   56   58 2    
   112   57  112 1    
   113   57  113 1    
   114   59   60 1    
   115   59  114 1    
   116   59  115 1    
   117   60   61 1    
   118   61  116 1    
   119   61  117 1    
@<TRIPOS>SUBSTRUCTURE
     1 UNK         1 GROUP             0       ****    0 ROOT    
