@<TRIPOS>MOLECULE
3R8
117   119    1
SMALL
USER_CHARGES


@<TRIPOS>ATOM
      1 CA         17.0366  -24.2087  -48.7059 C.3       0 UNK        -0.2013 
      2 C          17.0707  -25.4569  -47.8365 C.2       0 UNK         0.4866 
      3 O          17.5404  -26.5010  -48.2891 O.2       0 UNK        -0.5176 
      4 N          16.5833  -25.3487  -46.5962 N.am      1 UNK        -0.4884 
      5 CA         16.5747  -26.4086  -45.5855 C.3       1 UNK         0.0853 
      6 C6         15.1925  -27.1166  -45.4850 C.3       10 UNK        -0.0849 
      7 S7         15.0328  -28.4513  -46.7161 S.3       10 UNK        -0.2776 
      8 C8         15.3256  -29.9439  -45.7003 C.3       10 UNK         0.0316 
      9 C9         16.6664  -29.9344  -44.9683 C.ar      10 UNK        -0.0863 
     10 C10        16.7192  -30.1957  -43.5952 C.ar      10 UNK        -0.1009 
     11 C11        17.9414  -30.2063  -42.9141 C.ar      10 UNK        -0.0712 
     12 C12        19.1183  -29.9262  -43.6183 C.ar      10 UNK        -0.0894 
     13 C13        19.0798  -29.6516  -44.9889 C.ar      10 UNK        -0.0745 
     14 C14        17.8550  -29.6848  -45.6605 C.ar      10 UNK        -0.0972 
     15 C15        20.3533  -29.3275  -45.7572 C.3       10 UNK         0.0209 
     16 S16        20.8642  -27.5909  -45.5279 S.3       10 UNK        -0.2568 
     17 C17        21.8816  -27.7050  -44.0152 C.3       10 UNK        -0.0983 
     18 CA         21.4062  -26.8035  -42.8400 C.3       3 UNK         0.0876 
     19 N          19.9629  -26.9282  -42.6016 N.am      3 UNK        -0.4424 
     20 C          19.1805  -26.0801  -41.9209 C.2       2 UNK         0.4918 
     21 O          19.5966  -25.0698  -41.3507 O.2       2 UNK        -0.4875 
     22 CA         17.6850  -26.4398  -41.8872 C.3       2 UNK         0.0481 
     23 CB         16.8209  -25.4102  -41.1278 C.3       2 UNK        -0.1831 
     24 N          17.1693  -26.7037  -43.2356 N.am      2 UNK        -0.4498 
     25 C          17.0275  -25.8213  -44.2376 C.2       1 UNK         0.5027 
     26 O          17.2409  -24.6099  -44.1336 O.2       1 UNK        -0.4969 
     27 C          22.2394  -27.0736  -41.5619 C.2       3 UNK         0.5005 
     28 O          23.1492  -27.9048  -41.5888 O.2       3 UNK        -0.5279 
     29 N          21.9206  -26.3900  -40.4548 N.am      4 UNK        -0.4463 
     30 CA         22.4749  -26.6076  -39.1116 C.3       4 UNK         0.0283 
     31 CB         21.7741  -25.6650  -38.1205 C.3       4 UNK        -0.1875 
     32 C          24.0041  -26.4623  -39.0007 C.2       4 UNK         0.4949 
     33 O          24.6046  -27.0873  -38.1270 O.2       4 UNK        -0.5039 
     34 N          24.6078  -25.6642  -39.8920 N.am      5 UNK        -0.4663 
     35 CA         26.0594  -25.5028  -40.0113 C.3       5 UNK         0.0242 
     36 CB         26.3584  -24.2590  -40.8638 C.3       5 UNK        -0.1982 
     37 C          26.7653  -26.7395  -40.6001 C.2       5 UNK         0.5017 
     38 O          27.9440  -26.9464  -40.3094 O.2       5 UNK        -0.5012 
     39 N          26.0467  -27.5252  -41.4142 N.am      6 UNK        -0.4439 
     40 CA         26.5329  -28.7619  -42.0288 C.3       6 UNK         0.0297 
     41 CB         26.0412  -28.8347  -43.4847 C.3       6 UNK        -0.2006 
     42 C          26.0629  -29.9980  -41.2482 C.2       6 UNK         0.4892 
     43 O          26.8324  -30.9497  -41.1148 O.2       6 UNK        -0.5089 
     44 N          24.8095  -29.9614  -40.7671 N.am      7 UNK        -0.4243 
     45 CA         24.0859  -31.0261  -40.0616 C.3       7 UNK         0.0196 
     46 CB         24.7300  -31.3194  -38.6905 C.3       7 UNK        -0.2007 
     47 C          23.8869  -32.2912  -40.9210 C.2       7 UNK         0.5020 
     48 O          23.8555  -33.4015  -40.3884 O.2       7 UNK        -0.5147 
     49 N          23.7361  -32.1015  -42.2411 N.am      8 UNK        -0.4734 
     50 CA         23.5927  -33.1639  -43.2465 C.3       8 UNK         0.0238 
     51 CB         23.6119  -32.5320  -44.6480 C.3       8 UNK        -0.1912 
     52 C          22.3392  -34.0405  -43.0679 C.2       8 UNK         0.5038 
     53 O          22.3508  -35.2047  -43.4693 O.2       8 UNK        -0.5046 
     54 N          21.2975  -33.4671  -42.4572 N.am      9 UNK        -0.4200 
     55 CA         20.0716  -34.1473  -42.0207 C.3       9 UNK         0.0839 
     56 C          20.2312  -35.0247  -40.7429 C.2       9 UNK         0.5513 
     57 N          21.3655  -35.0159  -40.0513 N.am      9 UNK        -0.7519 
     58 O          19.3050  -35.7453  -40.3796 O.2       9 UNK        -0.4960 
     59 C59        18.8892  -33.1481  -41.9039 C.3       10 UNK        -0.0876 
     60 S60        19.2901  -31.6628  -40.9131 S.3       10 UNK        -0.2414 
     61 C61        17.9675  -30.5134  -41.4174 C.3       10 UNK         0.0169 
     62 H62        16.5943  -23.3596  -48.1850 H         1 UNK         0.0903 
     63 H63        18.0471  -23.9331  -49.0066 H         1 UNK         0.0903 
     64 H64        16.4519  -24.3952  -49.6064 H         1 UNK         0.0903 
     65 H65        16.2936  -24.4443  -46.2460 H         1 UNK         0.3096 
     66 H66        17.3479  -27.1322  -45.8421 H         1 UNK         0.1121 
     67 H67        15.0102  -27.5494  -44.5000 H         1 UNK         0.0849 
     68 H68        14.3830  -26.4004  -45.6361 H         1 UNK         0.0849 
     69 H69        14.5000  -30.0513  -44.9950 H         1 UNK         0.0865 
     70 H70        15.2880  -30.8210  -46.3478 H         1 UNK         0.0865 
     71 H71        15.8053  -30.4048  -43.0551 H         1 UNK         0.1346 
     72 H72        20.0651  -29.9330  -43.0975 H         1 UNK         0.1412 
     73 H73        17.8202  -29.4857  -46.7237 H         1 UNK         0.1426 
     74 H74        21.1558  -30.0062  -45.4664 H         1 UNK         0.0716 
     75 H75        20.1968  -29.4968  -46.8237 H         1 UNK         0.0716 
     76 H76        21.9327  -28.7485  -43.7022 H         1 UNK         0.0695 
     77 H77        22.9023  -27.4363  -44.2936 H         1 UNK         0.0695 
     78 H78        21.6002  -25.7670  -43.1241 H         1 UNK         0.0983 
     79 H79        19.5228  -27.7153  -43.0551 H         1 UNK         0.3095 
     80 H80        17.6075  -27.3802  -41.3429 H         1 UNK         0.0454 
     81 H81        16.8972  -24.4107  -41.5564 H         1 UNK         0.0851 
     82 H82        15.7694  -25.6966  -41.1281 H         1 UNK         0.0851 
     83 H83        17.1358  -25.3354  -40.0864 H         1 UNK         0.0851 
     84 H84        16.9736  -27.6759  -43.4360 H         1 UNK         0.2976 
     85 H85        21.1508  -25.7291  -40.5333 H         1 UNK         0.3116 
     86 H86        22.2340  -27.6350  -38.8307 H         1 UNK         0.0646 
     87 H87        22.1403  -25.8219  -37.1048 H         1 UNK         0.0847 
     88 H88        20.6973  -25.8342  -38.1038 H         1 UNK         0.0847 
     89 H89        21.9457  -24.6174  -38.3708 H         1 UNK         0.0847 
     90 H90        24.0320  -25.1744  -40.5614 H         1 UNK         0.3040 
     91 H91        26.4689  -25.3399  -39.0116 H         1 UNK         0.1015 
     92 H92        25.9292  -23.3605  -40.4198 H         1 UNK         0.0786 
     93 H93        25.9632  -24.3570  -41.8758 H         1 UNK         0.0786 
     94 H94        27.4335  -24.0938  -40.9488 H         1 UNK         0.0786 
     95 H95        25.0630  -27.3141  -41.5434 H         1 UNK         0.3172 
     96 H96        27.6249  -28.7694  -42.0440 H         1 UNK         0.0595 
     97 H97        26.3940  -29.7457  -43.9702 H         1 UNK         0.0839 
     98 H98        26.4124  -27.9928  -44.0691 H         1 UNK         0.0839 
     99 H99        24.9526  -28.8315  -43.5496 H         1 UNK         0.0839 
    100 H100       24.2460  -29.1404  -40.9870 H         1 UNK         0.2998 
    101 H101       23.0852  -30.6332  -39.8746 H         1 UNK         0.0822 
    102 H102       24.8465  -30.4065  -38.1058 H         1 UNK         0.0787 
    103 H103       24.1117  -32.0016  -38.1058 H         1 UNK         0.0787 
    104 H104       25.7127  -31.7802  -38.7943 H         1 UNK         0.0787 
    105 H105       23.7757  -31.1535  -42.5859 H         1 UNK         0.3055 
    106 H106       24.4586  -33.8233  -43.1529 H         1 UNK         0.1106 
    107 H107       23.5371  -33.2971  -45.4221 H         1 UNK         0.0828 
    108 H108       22.7798  -31.8420  -44.7915 H         1 UNK         0.0828 
    109 H109       24.5381  -31.9851  -44.8258 H         1 UNK         0.0828 
    110 H110       21.3914  -32.5112  -42.1487 H         1 UNK         0.2931 
    111 H111       19.8035  -34.8514  -42.8109 H         1 UNK         0.0412 
    112 H112       21.4425  -35.5986  -39.2330 H         1 UNK         0.3472 
    113 H113       22.1504  -34.4351  -40.3260 H         1 UNK         0.3472 
    114 H114       18.0004  -33.6273  -41.4891 H         1 UNK         0.0970 
    115 H115       18.6053  -32.8327  -42.9085 H         1 UNK         0.0970 
    116 H116       18.0988  -29.5829  -40.8663 H         1 UNK         0.0612 
    117 H117       17.0128  -30.9315  -41.0943 H         1 UNK         0.0612 
@<TRIPOS>BOND
     1    1    2 1    
     2    1   62 1    
     3    1   63 1    
     4    1   64 1    
     5    2    3 2    
     6    2    4 am   BACKBONE|DICT|INTERRES
     7    4    5 1    
     8    4   65 1    
     9    5    6 1    
    10    5   25 1    
    11    5   66 1    
    12    6    7 1    
    13    6   67 1    
    14    6   68 1    
    15    7    8 1    
    16    8    9 1    
    17    8   69 1    
    18    8   70 1    
    19    9   10 ar   
    20    9   14 ar   
    21   10   11 ar   
    22   10   71 1    
    23   11   12 ar   
    24   11   61 1    
    25   12   13 ar   
    26   12   72 1    
    27   13   14 ar   
    28   13   15 1    
    29   14   73 1    
    30   15   16 1    
    31   15   74 1    
    32   15   75 1    
    33   16   17 1    
    34   17   18 1    
    35   17   76 1    
    36   17   77 1    
    37   18   19 1    
    38   18   27 1    
    39   18   78 1    
    40   19   20 am   BACKBONE|DICT|INTERRES
    41   19   79 1    
    42   20   21 2    
    43   20   22 1    
    44   22   23 1    
    45   22   24 1    
    46   22   80 1    
    47   23   81 1    
    48   23   82 1    
    49   23   83 1    
    50   24   25 am   BACKBONE|DICT|INTERRES
    51   24   84 1    
    52   25   26 2    
    53   27   28 2    
    54   27   29 am   BACKBONE|DICT|INTERRES
    55   29   30 1    
    56   29   85 1    
    57   30   31 1    
    58   30   32 1    
    59   30   86 1    
    60   31   87 1    
    61   31   88 1    
    62   31   89 1    
    63   32   33 2    
    64   32   34 am   BACKBONE|DICT|INTERRES
    65   34   35 1    
    66   34   90 1    
    67   35   36 1    
    68   35   37 1    
    69   35   91 1    
    70   36   92 1    
    71   36   93 1    
    72   36   94 1    
    73   37   38 2    
    74   37   39 am   BACKBONE|DICT|INTERRES
    75   39   40 1    
    76   39   95 1    
    77   40   41 1    
    78   40   42 1    
    79   40   96 1    
    80   41   97 1    
    81   41   98 1    
    82   41   99 1    
    83   42   43 2    
    84   42   44 am   BACKBONE|DICT|INTERRES
    85   44   45 1    
    86   44  100 1    
    87   45   46 1    
    88   45   47 1    
    89   45  101 1    
    90   46  102 1    
    91   46  103 1    
    92   46  104 1    
    93   47   48 2    
    94   47   49 am   BACKBONE|DICT|INTERRES
    95   49   50 1    
    96   49  105 1    
    97   50   51 1    
    98   50   52 1    
    99   50  106 1    
   100   51  107 1    
   101   51  108 1    
   102   51  109 1    
   103   52   53 2    
   104   52   54 am   BACKBONE|DICT|INTERRES
   105   54   55 1    
   106   54  110 1    
   107   55   56 1    
   108   55   59 1    
   109   55  111 1    
   110   56   57 am   BACKBONE|DICT|INTERRES
   111   56   58 2    
   112   57  112 1    
   113   57  113 1    
   114   59   60 1    
   115   59  114 1    
   116   59  115 1    
   117   60   61 1    
   118   61  116 1    
   119   61  117 1    
@<TRIPOS>SUBSTRUCTURE
     1 UNK         1 GROUP             0       ****    0 ROOT    
