@<TRIPOS>MOLECULE
3R8
117   119    1
SMALL
USER_CHARGES


@<TRIPOS>ATOM
      1 CA         12.9804  -22.2231  -44.6904 C.3       0 UNK        -0.2013 
      2 C          14.0647  -23.0219  -45.3982 C.2       0 UNK         0.4866 
      3 O          14.7030  -22.5074  -46.3172 O.2       0 UNK        -0.5176 
      4 N          14.2734  -24.2781  -44.9840 N.am      1 UNK        -0.4884 
      5 CA         15.3215  -25.1632  -45.5011 C.3       1 UNK         0.0853 
      6 C6         15.0269  -26.6393  -45.1371 C.3       10 UNK        -0.0849 
      7 S7         15.8483  -27.8220  -46.2572 S.3       10 UNK        -0.2776 
      8 C8         15.6850  -29.3779  -45.3210 C.3       10 UNK         0.0316 
      9 C9         16.8664  -29.5999  -44.3870 C.ar      10 UNK        -0.0863 
     10 C10        17.9714  -30.3414  -44.8162 C.ar      10 UNK        -0.1009 
     11 C11        19.0722  -30.5472  -43.9776 C.ar      10 UNK        -0.0712 
     12 C12        19.0527  -29.9938  -42.6889 C.ar      10 UNK        -0.0894 
     13 C13        17.9639  -29.2314  -42.2568 C.ar      10 UNK        -0.0745 
     14 C14        16.8639  -29.0595  -43.0993 C.ar      10 UNK        -0.0972 
     15 C15        17.9897  -28.5478  -40.8990 C.3       10 UNK         0.0209 
     16 S16        18.3845  -26.7758  -41.0694 S.3       10 UNK        -0.2568 
     17 C17        20.1716  -26.8185  -41.4347 C.3       10 UNK        -0.0983 
     18 CA         20.5067  -26.8088  -42.9483 C.3       3 UNK         0.0876 
     19 N          19.9173  -25.6659  -43.6561 N.am      3 UNK        -0.4424 
     20 C          19.7940  -25.5921  -44.9875 C.2       2 UNK         0.4918 
     21 O          20.1881  -26.4616  -45.7665 O.2       2 UNK        -0.4875 
     22 CA         19.0880  -24.3473  -45.5430 C.3       2 UNK         0.0481 
     23 CB         19.7936  -23.8079  -46.7997 C.3       2 UNK        -0.1831 
     24 N          17.7031  -24.6789  -45.8706 N.am      2 UNK        -0.4498 
     25 C          16.7029  -24.7115  -44.9814 C.2       1 UNK         0.5027 
     26 O          16.8345  -24.4079  -43.7924 O.2       1 UNK        -0.4969 
     27 C          22.0306  -26.9362  -43.1526 C.2       3 UNK         0.5005 
     28 O          22.5590  -28.0430  -43.0315 O.2       3 UNK        -0.5279 
     29 N          22.7089  -25.8133  -43.4434 N.am      4 UNK        -0.4463 
     30 CA         24.1565  -25.6824  -43.6450 C.3       4 UNK         0.0283 
     31 CB         24.5871  -26.3642  -44.9642 C.3       4 UNK        -0.1875 
     32 C          24.9365  -26.1576  -42.4040 C.2       4 UNK         0.4949 
     33 O          24.9252  -25.4595  -41.3897 O.2       4 UNK        -0.5039 
     34 N          25.5721  -27.3339  -42.4912 N.am      5 UNK        -0.4663 
     35 CA         26.2709  -27.9896  -41.3827 C.3       5 UNK         0.0242 
     36 CB         27.1513  -29.1194  -41.9418 C.3       5 UNK        -0.1982 
     37 C          25.3264  -28.5398  -40.2983 C.2       5 UNK         0.5017 
     38 O          25.7633  -28.6917  -39.1568 O.2       5 UNK        -0.5012 
     39 N          24.0715  -28.8428  -40.6693 N.am      6 UNK        -0.4439 
     40 CA         22.9675  -29.3810  -39.8614 C.3       6 UNK         0.0297 
     41 CB         22.5540  -28.4001  -38.7477 C.3       6 UNK        -0.2006 
     42 C          23.2004  -30.7958  -39.3022 C.2       6 UNK         0.4892 
     43 O          22.3667  -31.6723  -39.5241 O.2       6 UNK        -0.5089 
     44 N          24.3249  -31.0097  -38.6077 N.am      7 UNK        -0.4243 
     45 CA         24.7255  -32.2869  -38.0075 C.3       7 UNK         0.0196 
     46 CB         25.9744  -32.0682  -37.1392 C.3       7 UNK        -0.2007 
     47 C          24.9766  -33.3955  -39.0438 C.2       7 UNK         0.5020 
     48 O          24.7345  -34.5670  -38.7532 O.2       7 UNK        -0.5147 
     49 N          25.4222  -33.0035  -40.2453 N.am      8 UNK        -0.4734 
     50 CA         25.6294  -33.8883  -41.3954 C.3       8 UNK         0.0238 
     51 CB         26.4151  -33.1245  -42.4742 C.3       8 UNK        -0.1912 
     52 C          24.3232  -34.4532  -41.9865 C.2       8 UNK         0.5038 
     53 O          24.3747  -35.4654  -42.6863 O.2       8 UNK        -0.5046 
     54 N          23.1905  -33.7954  -41.7078 N.am      9 UNK        -0.4200 
     55 CA         21.8502  -34.1837  -42.1708 C.3       9 UNK         0.0839 
     56 C          21.1886  -35.3030  -41.3154 C.2       9 UNK         0.5513 
     57 N          21.7777  -35.7377  -40.2066 N.am      9 UNK        -0.7519 
     58 O          20.1220  -35.7961  -41.6727 O.2       9 UNK        -0.4960 
     59 C59        20.9172  -32.9513  -42.3064 C.3       10 UNK        -0.0876 
     60 S60        21.6331  -31.6509  -43.3730 S.3       10 UNK        -0.2414 
     61 C61        20.2637  -31.3307  -44.5367 C.3       10 UNK         0.0169 
     62 H62        12.2220  -21.9045  -45.4051 H         1 UNK         0.0903 
     63 H63        12.4882  -22.8040  -43.9106 H         1 UNK         0.0903 
     64 H64        13.4102  -21.3337  -44.2302 H         1 UNK         0.0903 
     65 H65        13.7449  -24.6343  -44.2001 H         1 UNK         0.3096 
     66 H66        15.3103  -25.0682  -46.5898 H         1 UNK         0.1121 
     67 H67        13.9558  -26.8350  -45.2125 H         1 UNK         0.0849 
     68 H68        15.2941  -26.8440  -44.1003 H         1 UNK         0.0849 
     69 H69        14.7485  -29.3845  -44.7610 H         1 UNK         0.0865 
     70 H70        15.6147  -30.2048  -46.0294 H         1 UNK         0.0865 
     71 H71        17.9809  -30.7506  -45.8176 H         1 UNK         0.1346 
     72 H72        19.8990  -30.1070  -42.0275 H         1 UNK         0.1412 
     73 H73        16.0201  -28.4784  -42.7558 H         1 UNK         0.1426 
     74 H74        18.7051  -29.0276  -40.2291 H         1 UNK         0.0716 
     75 H75        17.0126  -28.6475  -40.4240 H         1 UNK         0.0716 
     76 H76        20.6312  -25.9607  -40.9401 H         1 UNK         0.0695 
     77 H77        20.5957  -27.7018  -40.9565 H         1 UNK         0.0695 
     78 H78        20.0760  -27.7013  -43.4001 H         1 UNK         0.0983 
     79 H79        19.4985  -24.9473  -43.0821 H         1 UNK         0.3095 
     80 H80        19.1077  -23.5581  -44.7880 H         1 UNK         0.0454 
     81 H81        19.7862  -24.5314  -47.6160 H         1 UNK         0.0851 
     82 H82        19.3187  -22.8947  -47.1587 H         1 UNK         0.0851 
     83 H83        20.8364  -23.5683  -46.5876 H         1 UNK         0.0851 
     84 H84        17.5278  -24.9899  -46.8157 H         1 UNK         0.2976 
     85 H85        22.1832  -24.9514  -43.4812 H         1 UNK         0.3116 
     86 H86        24.3630  -24.6158  -43.7459 H         1 UNK         0.0646 
     87 H87        25.6598  -26.2572  -45.1310 H         1 UNK         0.0847 
     88 H88        24.0858  -25.9073  -45.8175 H         1 UNK         0.0847 
     89 H89        24.3514  -27.4287  -44.9832 H         1 UNK         0.0847 
     90 H90        25.5050  -27.8480  -43.3580 H         1 UNK         0.3040 
     91 H91        26.9192  -27.2524  -40.9033 H         1 UNK         0.1015 
     92 H92        27.8918  -28.7344  -42.6432 H         1 UNK         0.0786 
     93 H93        26.5593  -29.8746  -42.4596 H         1 UNK         0.0786 
     94 H94        27.6972  -29.6232  -41.1426 H         1 UNK         0.0786 
     95 H95        23.8160  -28.6560  -41.6367 H         1 UNK         0.3172 
     96 H96        22.1269  -29.4633  -40.5518 H         1 UNK         0.0595 
     97 H97        22.3269  -27.4138  -39.1520 H         1 UNK         0.0839 
     98 H98        23.3355  -28.2789  -37.9970 H         1 UNK         0.0839 
     99 H99        21.6605  -28.7533  -38.2313 H         1 UNK         0.0839 
    100 H100       24.9673  -30.2252  -38.5175 H         1 UNK         0.2998 
    101 H101       23.9101  -32.6211  -37.3624 H         1 UNK         0.0822 
    102 H102       25.7828  -31.3475  -36.3440 H         1 UNK         0.0787 
    103 H103       26.2878  -32.9987  -36.6635 H         1 UNK         0.0787 
    104 H104       26.8162  -31.7018  -37.7282 H         1 UNK         0.0787 
    105 H105       25.5922  -32.0188  -40.3883 H         1 UNK         0.3055 
    106 H106       26.2297  -34.7391  -41.0651 H         1 UNK         0.1106 
    107 H107       26.6377  -33.7708  -43.3245 H         1 UNK         0.0828 
    108 H108       25.8520  -32.2714  -42.8548 H         1 UNK         0.0828 
    109 H109       27.3677  -32.7579  -42.0912 H         1 UNK         0.0828 
    110 H110       23.2230  -32.9925  -41.0932 H         1 UNK         0.2931 
    111 H111       21.9588  -34.6068  -43.1714 H         1 UNK         0.0412 
    112 H112       21.3381  -36.4669  -39.6671 H         1 UNK         0.3472 
    113 H113       22.6550  -35.3423  -39.9010 H         1 UNK         0.3472 
    114 H114       19.9500  -33.2544  -42.7116 H         1 UNK         0.0970 
    115 H115       20.7049  -32.5183  -41.3283 H         1 UNK         0.0970 
    116 H116       20.6725  -30.7672  -45.3765 H         1 UNK         0.0612 
    117 H117       19.9171  -32.2814  -44.9445 H         1 UNK         0.0612 
@<TRIPOS>BOND
     1    1    2 1    
     2    1   62 1    
     3    1   63 1    
     4    1   64 1    
     5    2    3 2    
     6    2    4 am   BACKBONE|DICT|INTERRES
     7    4    5 1    
     8    4   65 1    
     9    5    6 1    
    10    5   25 1    
    11    5   66 1    
    12    6    7 1    
    13    6   67 1    
    14    6   68 1    
    15    7    8 1    
    16    8    9 1    
    17    8   69 1    
    18    8   70 1    
    19    9   10 ar   
    20    9   14 ar   
    21   10   11 ar   
    22   10   71 1    
    23   11   12 ar   
    24   11   61 1    
    25   12   13 ar   
    26   12   72 1    
    27   13   14 ar   
    28   13   15 1    
    29   14   73 1    
    30   15   16 1    
    31   15   74 1    
    32   15   75 1    
    33   16   17 1    
    34   17   18 1    
    35   17   76 1    
    36   17   77 1    
    37   18   19 1    
    38   18   27 1    
    39   18   78 1    
    40   19   20 am   BACKBONE|DICT|INTERRES
    41   19   79 1    
    42   20   21 2    
    43   20   22 1    
    44   22   23 1    
    45   22   24 1    
    46   22   80 1    
    47   23   81 1    
    48   23   82 1    
    49   23   83 1    
    50   24   25 am   BACKBONE|DICT|INTERRES
    51   24   84 1    
    52   25   26 2    
    53   27   28 2    
    54   27   29 am   BACKBONE|DICT|INTERRES
    55   29   30 1    
    56   29   85 1    
    57   30   31 1    
    58   30   32 1    
    59   30   86 1    
    60   31   87 1    
    61   31   88 1    
    62   31   89 1    
    63   32   33 2    
    64   32   34 am   BACKBONE|DICT|INTERRES
    65   34   35 1    
    66   34   90 1    
    67   35   36 1    
    68   35   37 1    
    69   35   91 1    
    70   36   92 1    
    71   36   93 1    
    72   36   94 1    
    73   37   38 2    
    74   37   39 am   BACKBONE|DICT|INTERRES
    75   39   40 1    
    76   39   95 1    
    77   40   41 1    
    78   40   42 1    
    79   40   96 1    
    80   41   97 1    
    81   41   98 1    
    82   41   99 1    
    83   42   43 2    
    84   42   44 am   BACKBONE|DICT|INTERRES
    85   44   45 1    
    86   44  100 1    
    87   45   46 1    
    88   45   47 1    
    89   45  101 1    
    90   46  102 1    
    91   46  103 1    
    92   46  104 1    
    93   47   48 2    
    94   47   49 am   BACKBONE|DICT|INTERRES
    95   49   50 1    
    96   49  105 1    
    97   50   51 1    
    98   50   52 1    
    99   50  106 1    
   100   51  107 1    
   101   51  108 1    
   102   51  109 1    
   103   52   53 2    
   104   52   54 am   BACKBONE|DICT|INTERRES
   105   54   55 1    
   106   54  110 1    
   107   55   56 1    
   108   55   59 1    
   109   55  111 1    
   110   56   57 am   BACKBONE|DICT|INTERRES
   111   56   58 2    
   112   57  112 1    
   113   57  113 1    
   114   59   60 1    
   115   59  114 1    
   116   59  115 1    
   117   60   61 1    
   118   61  116 1    
   119   61  117 1    
@<TRIPOS>SUBSTRUCTURE
     1 UNK         1 GROUP             0       ****    0 ROOT    
