@<TRIPOS>MOLECULE
3R8
117   119    1
SMALL
USER_CHARGES


@<TRIPOS>ATOM
      1 CA         16.2275  -22.8365  -46.8320 C.3       0 UNK        -0.2013 
      2 C          17.0705  -23.9789  -46.2865 C.2       0 UNK         0.4866 
      3 O          17.9504  -24.4815  -46.9863 O.2       0 UNK        -0.5176 
      4 N          16.8234  -24.3869  -45.0354 N.am      1 UNK        -0.4884 
      5 CA         17.4952  -25.4916  -44.3365 C.3       1 UNK         0.0853 
      6 C6         16.6164  -26.0521  -43.1848 C.3       10 UNK        -0.0849 
      7 S7         15.1039  -26.8629  -43.8086 S.3       10 UNK        -0.2776 
      8 C8         15.1645  -28.5008  -42.9898 C.3       10 UNK         0.0316 
      9 C9         16.4147  -29.3257  -43.2986 C.ar      10 UNK        -0.0863 
     10 C10        17.0097  -30.0886  -42.2862 C.ar      10 UNK        -0.1009 
     11 C11        18.1679  -30.8319  -42.5386 C.ar      10 UNK        -0.0712 
     12 C12        18.7232  -30.8254  -43.8195 C.ar      10 UNK        -0.0894 
     13 C13        18.1277  -30.0882  -44.8441 C.ar      10 UNK        -0.0745 
     14 C14        16.9721  -29.3477  -44.5817 C.ar      10 UNK        -0.0972 
     15 C15        18.7280  -30.0867  -46.2376 C.3       10 UNK         0.0209 
     16 S16        19.7591  -28.6152  -46.5008 S.3       10 UNK        -0.2568 
     17 C17        21.3490  -29.0928  -45.7243 C.3       10 UNK        -0.0983 
     18 CA         21.8840  -28.1216  -44.6316 C.3       3 UNK         0.0876 
     19 N          21.4665  -26.7421  -44.8654 N.am      3 UNK        -0.4424 
     20 C          21.9674  -25.6460  -44.2880 C.2       2 UNK         0.4918 
     21 O          22.9409  -25.6555  -43.5360 O.2       2 UNK        -0.4875 
     22 CA         21.1891  -24.3401  -44.5414 C.3       2 UNK         0.0481 
     23 CB         21.7780  -23.5847  -45.7416 C.3       2 UNK        -0.1831 
     24 N          19.7543  -24.5777  -44.7647 N.am      2 UNK        -0.4498 
     25 C          18.9194  -25.1134  -43.8621 C.2       1 UNK         0.5027 
     26 O          19.2701  -25.3566  -42.7073 O.2       1 UNK        -0.4969 
     27 C          21.6338  -28.6119  -43.1842 C.2       3 UNK         0.5005 
     28 O          22.3300  -29.5314  -42.7511 O.2       3 UNK        -0.5279 
     29 N          20.7195  -27.9776  -42.4285 N.am      4 UNK        -0.4463 
     30 CA         20.5509  -28.2272  -40.9915 C.3       4 UNK         0.0283 
     31 CB         19.1875  -27.7213  -40.4974 C.3       4 UNK        -0.1875 
     32 C          21.6784  -27.5907  -40.1681 C.2       4 UNK         0.4949 
     33 O          22.1578  -28.2177  -39.2254 O.2       4 UNK        -0.5039 
     34 N          22.1161  -26.3834  -40.5576 N.am      5 UNK        -0.4663 
     35 CA         23.2612  -25.6904  -39.9546 C.3       5 UNK         0.0242 
     36 CB         23.2836  -24.2214  -40.4067 C.3       5 UNK        -0.1982 
     37 C          24.5959  -26.3898  -40.2671 C.2       5 UNK         0.5017 
     38 O          25.4812  -26.4149  -39.4123 O.2       5 UNK        -0.5012 
     39 N          24.6908  -26.9922  -41.4617 N.am      6 UNK        -0.4439 
     40 CA         25.7820  -27.8835  -41.8713 C.3       6 UNK         0.0297 
     41 CB         25.7591  -28.0390  -43.4002 C.3       6 UNK        -0.2006 
     42 C          25.7359  -29.2719  -41.1963 C.2       6 UNK         0.4892 
     43 O          26.7092  -30.0171  -41.3138 O.2       6 UNK        -0.5089 
     44 N          24.6221  -29.5936  -40.5189 N.am      7 UNK        -0.4243 
     45 CA         24.3262  -30.8394  -39.8047 C.3       7 UNK         0.0196 
     46 CB         25.2766  -31.0269  -38.6029 C.3       7 UNK        -0.2007 
     47 C          24.2638  -32.0714  -40.7263 C.2       7 UNK         0.5020 
     48 O          24.7122  -33.1520  -40.3388 O.2       7 UNK        -0.5147 
     49 N          23.6721  -31.9098  -41.9198 N.am      8 UNK        -0.4734 
     50 CA         23.5016  -32.9782  -42.9151 C.3       8 UNK         0.0238 
     51 CB         22.9817  -32.3727  -44.2274 C.3       8 UNK        -0.1912 
     52 C          22.5751  -34.1183  -42.4514 C.2       8 UNK         0.5038 
     53 O          22.7139  -35.2423  -42.9353 O.2       8 UNK        -0.5046 
     54 N          21.6687  -33.8103  -41.5155 N.am      9 UNK        -0.4200 
     55 CA         20.8044  -34.7759  -40.8206 C.3       9 UNK         0.0839 
     56 C          21.5333  -35.5957  -39.7136 C.2       9 UNK         0.5513 
     57 N          22.7880  -35.3163  -39.3762 N.am      9 UNK        -0.7519 
     58 O          20.9458  -36.5160  -39.1510 O.2       9 UNK        -0.4960 
     59 C59        19.5216  -34.0996  -40.2654 C.3       10 UNK        -0.0876 
     60 S60        18.4673  -33.4027  -41.5823 S.3       10 UNK        -0.2414 
     61 C61        18.8390  -31.6300  -41.4325 C.3       10 UNK         0.0169 
     62 H62        15.6959  -23.1581  -47.7272 H         1 UNK         0.0903 
     63 H63        15.4915  -22.4898  -46.1069 H         1 UNK         0.0903 
     64 H64        16.8650  -21.9939  -47.0985 H         1 UNK         0.0903 
     65 H65        16.0969  -23.9255  -44.5059 H         1 UNK         0.3096 
     66 H66        17.6397  -26.3031  -45.0542 H         1 UNK         0.1121 
     67 H67        16.3355  -25.2589  -42.4899 H         1 UNK         0.0849 
     68 H68        17.1714  -26.7814  -42.5952 H         1 UNK         0.0849 
     69 H69        14.2886  -29.0749  -43.2943 H         1 UNK         0.0865 
     70 H70        15.0697  -28.3459  -41.9138 H         1 UNK         0.0865 
     71 H71        16.5812  -30.0927  -41.2931 H         1 UNK         0.1346 
     72 H72        19.6172  -31.3999  -44.0160 H         1 UNK         0.1412 
     73 H73        16.5146  -28.7779  -45.3789 H         1 UNK         0.1426 
     74 H74        17.9268  -30.0899  -46.9781 H         1 UNK         0.0716 
     75 H75        19.3100  -30.9920  -46.4177 H         1 UNK         0.0716 
     76 H76        22.0767  -29.1329  -46.5363 H         1 UNK         0.0695 
     77 H77        21.2911  -30.1169  -45.3562 H         1 UNK         0.0695 
     78 H78        22.9696  -28.1181  -44.7350 H         1 UNK         0.0983 
     79 H79        20.6751  -26.6410  -45.4854 H         1 UNK         0.3095 
     80 H80        21.2943  -23.7134  -43.6535 H         1 UNK         0.0454 
     81 H81        21.6820  -24.1551  -46.6664 H         1 UNK         0.0851 
     82 H82        22.8394  -23.3817  -45.5916 H         1 UNK         0.0851 
     83 H83        21.2833  -22.6244  -45.8870 H         1 UNK         0.0851 
     84 H84        19.3857  -24.4134  -45.6983 H         1 UNK         0.2976 
     85 H85        20.1956  -27.2025  -42.8165 H         1 UNK         0.3116 
     86 H86        20.5844  -29.3050  -40.8249 H         1 UNK         0.0646 
     87 H87        18.3744  -28.1023  -41.1090 H         1 UNK         0.0847 
     88 H88        19.1262  -26.6332  -40.4961 H         1 UNK         0.0847 
     89 H89        19.0036  -28.0517  -39.4745 H         1 UNK         0.0847 
     90 H90        21.6750  -25.9371  -41.3500 H         1 UNK         0.3040 
     91 H91        23.1306  -25.7079  -38.8700 H         1 UNK         0.1015 
     92 H92        24.0929  -23.6784  -39.9166 H         1 UNK         0.0786 
     93 H93        22.3533  -23.7134  -40.1520 H         1 UNK         0.0786 
     94 H94        23.4353  -24.1248  -41.4816 H         1 UNK         0.0786 
     95 H95        23.9449  -26.8332  -42.1303 H         1 UNK         0.3172 
     96 H96        26.7258  -27.4110  -41.5913 H         1 UNK         0.0595 
     97 H97        24.9205  -28.6529  -43.7261 H         1 UNK         0.0839 
     98 H98        26.6676  -28.5305  -43.7508 H         1 UNK         0.0839 
     99 H99        25.6961  -27.0749  -43.9056 H         1 UNK         0.0839 
    100 H100       23.8797  -28.9070  -40.4921 H         1 UNK         0.2998 
    101 H101       23.3186  -30.7210  -39.4037 H         1 UNK         0.0822 
    102 H102       25.2798  -30.1464  -37.9602 H         1 UNK         0.0787 
    103 H103       24.9681  -31.8738  -37.9888 H         1 UNK         0.0787 
    104 H104       26.3024  -31.2144  -38.9218 H         1 UNK         0.0787 
    105 H105       23.2965  -30.9941  -42.1666 H         1 UNK         0.3055 
    106 H106       24.4848  -33.4155  -43.1025 H         1 UNK         0.1106 
    107 H107       22.9289  -33.1276  -45.0130 H         1 UNK         0.0828 
    108 H108       23.6319  -31.5743  -44.5855 H         1 UNK         0.0828 
    109 H109       21.9803  -31.9624  -44.1021 H         1 UNK         0.0828 
    110 H110       21.6453  -32.8613  -41.1774 H         1 UNK         0.2931 
    111 H111       20.4827  -35.5130  -41.5591 H         1 UNK         0.0412 
    112 H112       23.3092  -34.5761  -39.8314 H         1 UNK         0.3472 
    113 H113       23.2335  -35.8674  -38.6596 H         1 UNK         0.3472 
    114 H114       18.9111  -34.8271  -39.7268 H         1 UNK         0.0970 
    115 H115       19.7744  -33.3271  -39.5369 H         1 UNK         0.0970 
    116 H116       18.5216  -31.2718  -40.4519 H         1 UNK         0.0612 
    117 H117       19.9180  -31.4823  -41.4866 H         1 UNK         0.0612 
@<TRIPOS>BOND
     1    1    2 1    
     2    1   62 1    
     3    1   63 1    
     4    1   64 1    
     5    2    3 2    
     6    2    4 am   BACKBONE|DICT|INTERRES
     7    4    5 1    
     8    4   65 1    
     9    5    6 1    
    10    5   25 1    
    11    5   66 1    
    12    6    7 1    
    13    6   67 1    
    14    6   68 1    
    15    7    8 1    
    16    8    9 1    
    17    8   69 1    
    18    8   70 1    
    19    9   10 ar   
    20    9   14 ar   
    21   10   11 ar   
    22   10   71 1    
    23   11   12 ar   
    24   11   61 1    
    25   12   13 ar   
    26   12   72 1    
    27   13   14 ar   
    28   13   15 1    
    29   14   73 1    
    30   15   16 1    
    31   15   74 1    
    32   15   75 1    
    33   16   17 1    
    34   17   18 1    
    35   17   76 1    
    36   17   77 1    
    37   18   19 1    
    38   18   27 1    
    39   18   78 1    
    40   19   20 am   BACKBONE|DICT|INTERRES
    41   19   79 1    
    42   20   21 2    
    43   20   22 1    
    44   22   23 1    
    45   22   24 1    
    46   22   80 1    
    47   23   81 1    
    48   23   82 1    
    49   23   83 1    
    50   24   25 am   BACKBONE|DICT|INTERRES
    51   24   84 1    
    52   25   26 2    
    53   27   28 2    
    54   27   29 am   BACKBONE|DICT|INTERRES
    55   29   30 1    
    56   29   85 1    
    57   30   31 1    
    58   30   32 1    
    59   30   86 1    
    60   31   87 1    
    61   31   88 1    
    62   31   89 1    
    63   32   33 2    
    64   32   34 am   BACKBONE|DICT|INTERRES
    65   34   35 1    
    66   34   90 1    
    67   35   36 1    
    68   35   37 1    
    69   35   91 1    
    70   36   92 1    
    71   36   93 1    
    72   36   94 1    
    73   37   38 2    
    74   37   39 am   BACKBONE|DICT|INTERRES
    75   39   40 1    
    76   39   95 1    
    77   40   41 1    
    78   40   42 1    
    79   40   96 1    
    80   41   97 1    
    81   41   98 1    
    82   41   99 1    
    83   42   43 2    
    84   42   44 am   BACKBONE|DICT|INTERRES
    85   44   45 1    
    86   44  100 1    
    87   45   46 1    
    88   45   47 1    
    89   45  101 1    
    90   46  102 1    
    91   46  103 1    
    92   46  104 1    
    93   47   48 2    
    94   47   49 am   BACKBONE|DICT|INTERRES
    95   49   50 1    
    96   49  105 1    
    97   50   51 1    
    98   50   52 1    
    99   50  106 1    
   100   51  107 1    
   101   51  108 1    
   102   51  109 1    
   103   52   53 2    
   104   52   54 am   BACKBONE|DICT|INTERRES
   105   54   55 1    
   106   54  110 1    
   107   55   56 1    
   108   55   59 1    
   109   55  111 1    
   110   56   57 am   BACKBONE|DICT|INTERRES
   111   56   58 2    
   112   57  112 1    
   113   57  113 1    
   114   59   60 1    
   115   59  114 1    
   116   59  115 1    
   117   60   61 1    
   118   61  116 1    
   119   61  117 1    
@<TRIPOS>SUBSTRUCTURE
     1 UNK         1 GROUP             0       ****    0 ROOT    
