@<TRIPOS>MOLECULE
3R8
117   119    1
SMALL
USER_CHARGES


@<TRIPOS>ATOM
      1 CA         14.4247  -23.1195  -48.3194 C.3       0 UNK        -0.2013 
      2 C          15.3375  -24.3367  -48.3112 C.2       0 UNK         0.4866 
      3 O          15.3506  -25.0998  -49.2773 O.2       0 UNK        -0.5176 
      4 N          16.1010  -24.5239  -47.2307 N.am      1 UNK        -0.4884 
      5 CA         17.0617  -25.6091  -47.0463 C.3       1 UNK         0.0853 
      6 C6         16.3713  -26.9212  -46.5888 C.3       10 UNK        -0.0849 
      7 S7         17.3858  -28.4008  -46.9184 S.3       10 UNK        -0.2776 
      8 C8         16.3999  -29.6968  -46.1035 C.3       10 UNK         0.0316 
      9 C9         16.6715  -29.7686  -44.6069 C.ar      10 UNK        -0.0863 
     10 C10        17.7257  -30.5506  -44.1246 C.ar      10 UNK        -0.1009 
     11 C11        17.9635  -30.6527  -42.7508 C.ar      10 UNK        -0.0712 
     12 C12        17.1328  -29.9752  -41.8558 C.ar      10 UNK        -0.0894 
     13 C13        16.1037  -29.1537  -42.3269 C.ar      10 UNK        -0.0745 
     14 C14        15.8666  -29.0683  -43.7027 C.ar      10 UNK        -0.0972 
     15 C15        15.2652  -28.3386  -41.3513 C.3       10 UNK         0.0209 
     16 S16        16.2841  -27.2287  -40.3208 S.3       10 UNK        -0.2568 
     17 C17        17.1111  -26.1755  -41.5652 C.3       10 UNK        -0.0983 
     18 CA         18.5581  -26.6265  -41.9002 C.3       3 UNK         0.0876 
     19 N          19.0317  -25.9765  -43.1208 N.am      3 UNK        -0.4424 
     20 C          20.1222  -26.3255  -43.8129 C.2       2 UNK         0.4918 
     21 O          20.8671  -27.2530  -43.4979 O.2       2 UNK        -0.4875 
     22 CA         20.3878  -25.5231  -45.1017 C.3       2 UNK         0.0481 
     23 CB         21.7295  -25.8927  -45.7613 C.3       2 UNK        -0.1831 
     24 N          19.3072  -25.7291  -46.0691 N.am      2 UNK        -0.4498 
     25 C          18.1101  -25.1312  -46.0285 C.2       1 UNK         0.5027 
     26 O          17.8073  -24.2651  -45.2004 O.2       1 UNK        -0.4969 
     27 C          19.5355  -26.4003  -40.7264 C.2       3 UNK         0.5005 
     28 O          20.1242  -25.3208  -40.6175 O.2       3 UNK        -0.5279 
     29 N          19.6604  -27.4209  -39.8642 N.am      4 UNK        -0.4463 
     30 CA         20.4906  -27.4707  -38.6541 C.3       4 UNK         0.0283 
     31 CB         20.0126  -26.4386  -37.6100 C.3       4 UNK        -0.1875 
     32 C          22.0036  -27.3831  -38.9384 C.2       4 UNK         0.4949 
     33 O          22.7523  -26.8388  -38.1262 O.2       4 UNK        -0.5039 
     34 N          22.4371  -27.9567  -40.0696 N.am      5 UNK        -0.4663 
     35 CA         23.8406  -28.0197  -40.4959 C.3       5 UNK         0.0242 
     36 CB         23.8870  -28.0847  -42.0314 C.3       5 UNK        -0.1982 
     37 C          24.6401  -29.1718  -39.8492 C.2       5 UNK         0.5017 
     38 O          25.8021  -29.3695  -40.2079 O.2       5 UNK        -0.5012 
     39 N          24.0187  -29.9124  -38.9173 N.am      6 UNK        -0.4439 
     40 CA         24.5759  -31.0304  -38.1468 C.3       6 UNK         0.0297 
     41 CB         25.6335  -30.5196  -37.1410 C.3       6 UNK        -0.2006 
     42 C          25.0692  -32.1612  -39.0689 C.2       6 UNK         0.4892 
     43 O          24.2623  -32.7098  -39.8200 O.2       6 UNK        -0.5089 
     44 N          26.3714  -32.4747  -39.0307 N.am      7 UNK        -0.4243 
     45 CA         27.0159  -33.4872  -39.8739 C.3       7 UNK         0.0196 
     46 CB         28.4782  -33.6566  -39.4313 C.3       7 UNK        -0.2007 
     47 C          26.9426  -33.1857  -41.3829 C.2       7 UNK         0.5020 
     48 O          26.9664  -34.1215  -42.1823 O.2       7 UNK        -0.5147 
     49 N          26.8333  -31.9012  -41.7499 N.am      8 UNK        -0.4734 
     50 CA         26.6791  -31.4504  -43.1347 C.3       8 UNK         0.0238 
     51 CB         27.3378  -30.0687  -43.2893 C.3       8 UNK        -0.1912 
     52 C          25.2126  -31.4296  -43.6080 C.2       8 UNK         0.5038 
     53 O          24.9827  -31.1568  -44.7870 O.2       8 UNK        -0.5046 
     54 N          24.2506  -31.7101  -42.7139 N.am      9 UNK        -0.4200 
     55 CA         22.8151  -31.7858  -43.0390 C.3       9 UNK         0.0839 
     56 C          22.4123  -33.0567  -43.8440 C.2       9 UNK         0.5513 
     57 N          23.2302  -34.1028  -43.8841 N.am      9 UNK        -0.7519 
     58 O          21.3489  -33.0909  -44.4559 O.2       9 UNK        -0.4960 
     59 C59        21.9277  -31.5913  -41.7729 C.3       10 UNK        -0.0876 
     60 S60        20.5888  -30.3816  -42.0210 S.3       10 UNK        -0.2414 
     61 C61        19.1423  -31.4605  -42.2361 C.3       10 UNK         0.0169 
     62 H62        13.3857  -23.4306  -48.4239 H         1 UNK         0.0903 
     63 H63        14.5134  -22.5371  -47.4024 H         1 UNK         0.0903 
     64 H64        14.6723  -22.4703  -49.1588 H         1 UNK         0.0903 
     65 H65        16.1006  -23.8538  -46.4698 H         1 UNK         0.3096 
     66 H66        17.5696  -25.7728  -48.0000 H         1 UNK         0.1121 
     67 H67        16.1067  -26.8746  -45.5313 H         1 UNK         0.0849 
     68 H68        15.4315  -27.0573  -47.1263 H         1 UNK         0.0849 
     69 H69        15.3381  -29.5328  -46.2948 H         1 UNK         0.0865 
     70 H70        16.6403  -30.6571  -46.5625 H         1 UNK         0.0865 
     71 H71        18.3686  -31.0744  -44.8194 H         1 UNK         0.1346 
     72 H72        17.3177  -30.0470  -40.7927 H         1 UNK         0.1412 
     73 H73        15.0584  -28.4515  -44.0710 H         1 UNK         0.1426 
     74 H74        14.7151  -29.0198  -40.7008 H         1 UNK         0.0716 
     75 H75        14.5178  -27.7435  -41.8783 H         1 UNK         0.0716 
     76 H76        17.1039  -25.1444  -41.2067 H         1 UNK         0.0695 
     77 H77        16.5004  -26.1777  -42.4698 H         1 UNK         0.0695 
     78 H78        18.5482  -27.6939  -42.1231 H         1 UNK         0.0983 
     79 H79        18.4815  -25.2008  -43.4701 H         1 UNK         0.3095 
     80 H80        20.4313  -24.4662  -44.8303 H         1 UNK         0.0454 
     81 H81        21.7558  -26.9391  -46.0684 H         1 UNK         0.0851 
     82 H82        22.5590  -25.7361  -45.0704 H         1 UNK         0.0851 
     83 H83        21.9220  -25.2791  -46.6413 H         1 UNK         0.0851 
     84 H84        19.4453  -26.4755  -46.7367 H         1 UNK         0.2976 
     85 H85        19.1208  -28.2556  -40.0485 H         1 UNK         0.3116 
     86 H86        20.3286  -28.4604  -38.2246 H         1 UNK         0.0646 
     87 H87        20.2094  -25.4153  -37.9309 H         1 UNK         0.0847 
     88 H88        20.5222  -26.5815  -36.6564 H         1 UNK         0.0847 
     89 H89        18.9431  -26.5310  -37.4207 H         1 UNK         0.0847 
     90 H90        21.7568  -28.3702  -40.6944 H         1 UNK         0.3040 
     91 H91        24.3386  -27.0963  -40.1917 H         1 UNK         0.1015 
     92 H92        24.9122  -28.0996  -42.3996 H         1 UNK         0.0786 
     93 H93        23.4046  -27.2137  -42.4750 H         1 UNK         0.0786 
     94 H94        23.3848  -28.9711  -42.4158 H         1 UNK         0.0786 
     95 H95        23.0553  -29.6834  -38.7222 H         1 UNK         0.3172 
     96 H96        23.7503  -31.4502  -37.5704 H         1 UNK         0.0595 
     97 H97        26.0031  -31.3283  -36.5089 H         1 UNK         0.0839 
     98 H98        25.2044  -29.7710  -36.4748 H         1 UNK         0.0839 
     99 H99        26.4908  -30.0605  -37.6347 H         1 UNK         0.0839 
    100 H100       26.9689  -31.9596  -38.4004 H         1 UNK         0.2998 
    101 H101       26.4955  -34.4330  -39.7083 H         1 UNK         0.0822 
    102 H102       28.9784  -34.4250  -40.0229 H         1 UNK         0.0787 
    103 H103       29.0457  -32.7327  -39.5508 H         1 UNK         0.0787 
    104 H104       28.5451  -33.9609  -38.3866 H         1 UNK         0.0787 
    105 H105       26.7768  -31.1855  -41.0332 H         1 UNK         0.3055 
    106 H106       27.2069  -32.1409  -43.7968 H         1 UNK         0.1106 
    107 H107       27.2490  -29.7014  -44.3126 H         1 UNK         0.0828 
    108 H108       26.8839  -29.3254  -42.6357 H         1 UNK         0.0828 
    109 H109       28.4015  -30.1114  -43.0550 H         1 UNK         0.0828 
    110 H110       24.5105  -31.9711  -41.7700 H         1 UNK         0.2931 
    111 H111       22.6218  -30.9483  -43.7127 H         1 UNK         0.0412 
    112 H112       24.1084  -34.0876  -43.3894 H         1 UNK         0.3472 
    113 H113       22.9634  -34.9173  -44.4147 H         1 UNK         0.3472 
    114 H114       21.5280  -32.5355  -41.3970 H         1 UNK         0.0970 
    115 H115       22.5204  -31.1922  -40.9518 H         1 UNK         0.0970 
    116 H116       18.8950  -31.9333  -41.2845 H         1 UNK         0.0612 
    117 H117       19.3758  -32.2649  -42.9334 H         1 UNK         0.0612 
@<TRIPOS>BOND
     1    1    2 1    
     2    1   62 1    
     3    1   63 1    
     4    1   64 1    
     5    2    3 2    
     6    2    4 am   BACKBONE|DICT|INTERRES
     7    4    5 1    
     8    4   65 1    
     9    5    6 1    
    10    5   25 1    
    11    5   66 1    
    12    6    7 1    
    13    6   67 1    
    14    6   68 1    
    15    7    8 1    
    16    8    9 1    
    17    8   69 1    
    18    8   70 1    
    19    9   10 ar   
    20    9   14 ar   
    21   10   11 ar   
    22   10   71 1    
    23   11   12 ar   
    24   11   61 1    
    25   12   13 ar   
    26   12   72 1    
    27   13   14 ar   
    28   13   15 1    
    29   14   73 1    
    30   15   16 1    
    31   15   74 1    
    32   15   75 1    
    33   16   17 1    
    34   17   18 1    
    35   17   76 1    
    36   17   77 1    
    37   18   19 1    
    38   18   27 1    
    39   18   78 1    
    40   19   20 am   BACKBONE|DICT|INTERRES
    41   19   79 1    
    42   20   21 2    
    43   20   22 1    
    44   22   23 1    
    45   22   24 1    
    46   22   80 1    
    47   23   81 1    
    48   23   82 1    
    49   23   83 1    
    50   24   25 am   BACKBONE|DICT|INTERRES
    51   24   84 1    
    52   25   26 2    
    53   27   28 2    
    54   27   29 am   BACKBONE|DICT|INTERRES
    55   29   30 1    
    56   29   85 1    
    57   30   31 1    
    58   30   32 1    
    59   30   86 1    
    60   31   87 1    
    61   31   88 1    
    62   31   89 1    
    63   32   33 2    
    64   32   34 am   BACKBONE|DICT|INTERRES
    65   34   35 1    
    66   34   90 1    
    67   35   36 1    
    68   35   37 1    
    69   35   91 1    
    70   36   92 1    
    71   36   93 1    
    72   36   94 1    
    73   37   38 2    
    74   37   39 am   BACKBONE|DICT|INTERRES
    75   39   40 1    
    76   39   95 1    
    77   40   41 1    
    78   40   42 1    
    79   40   96 1    
    80   41   97 1    
    81   41   98 1    
    82   41   99 1    
    83   42   43 2    
    84   42   44 am   BACKBONE|DICT|INTERRES
    85   44   45 1    
    86   44  100 1    
    87   45   46 1    
    88   45   47 1    
    89   45  101 1    
    90   46  102 1    
    91   46  103 1    
    92   46  104 1    
    93   47   48 2    
    94   47   49 am   BACKBONE|DICT|INTERRES
    95   49   50 1    
    96   49  105 1    
    97   50   51 1    
    98   50   52 1    
    99   50  106 1    
   100   51  107 1    
   101   51  108 1    
   102   51  109 1    
   103   52   53 2    
   104   52   54 am   BACKBONE|DICT|INTERRES
   105   54   55 1    
   106   54  110 1    
   107   55   56 1    
   108   55   59 1    
   109   55  111 1    
   110   56   57 am   BACKBONE|DICT|INTERRES
   111   56   58 2    
   112   57  112 1    
   113   57  113 1    
   114   59   60 1    
   115   59  114 1    
   116   59  115 1    
   117   60   61 1    
   118   61  116 1    
   119   61  117 1    
@<TRIPOS>SUBSTRUCTURE
     1 UNK         1 GROUP             0       ****    0 ROOT    
