@<TRIPOS>MOLECULE
3R8
117   119    1
SMALL
USER_CHARGES


@<TRIPOS>ATOM
      1 CA         18.4046  -22.6102  -47.7671 C.3       0 UNK        -0.2013 
      2 C          19.2505  -23.7289  -47.1775 C.2       0 UNK         0.4866 
      3 O          20.4335  -23.5242  -46.9040 O.2       0 UNK        -0.5176 
      4 N          18.6568  -24.9131  -46.9878 N.am      1 UNK        -0.4884 
      5 CA         19.2817  -26.0820  -46.3631 C.3       1 UNK         0.0853 
      6 C6         18.5087  -27.3947  -46.6619 C.3       10 UNK        -0.0849 
      7 S7         16.6963  -27.2661  -46.4588 S.3       10 UNK        -0.2776 
      8 C8         16.1879  -28.9934  -46.7178 C.3       10 UNK         0.0316 
      9 C9         16.5302  -29.8734  -45.5244 C.ar      10 UNK        -0.0863 
     10 C10        17.4682  -30.9030  -45.6440 C.ar      10 UNK        -0.1009 
     11 C11        17.7530  -31.7451  -44.5630 C.ar      10 UNK        -0.0712 
     12 C12        17.0843  -31.5355  -43.3499 C.ar      10 UNK        -0.0894 
     13 C13        16.1728  -30.4866  -43.2066 C.ar      10 UNK        -0.0745 
     14 C14        15.8897  -29.6671  -44.3007 C.ar      10 UNK        -0.0972 
     15 C15        15.4937  -30.2377  -41.8681 C.3       10 UNK         0.0209 
     16 S16        16.6908  -29.8888  -40.5391 S.3       10 UNK        -0.2568 
     17 C17        17.5142  -28.3627  -41.1237 C.3       10 UNK        -0.0983 
     18 CA         19.0534  -28.5153  -41.2697 C.3       3 UNK         0.0876 
     19 N          19.6214  -27.3562  -41.9758 N.am      3 UNK        -0.4424 
     20 C          20.9094  -27.0159  -42.1433 C.2       2 UNK         0.4918 
     21 O          21.8725  -27.6302  -41.6787 O.2       2 UNK        -0.4875 
     22 CA         21.1611  -25.7692  -43.0100 C.3       2 UNK         0.0481 
     23 CB         22.6403  -25.3465  -43.0217 C.3       2 UNK        -0.1831 
     24 N          20.7380  -25.9924  -44.3925 N.am      2 UNK        -0.4498 
     25 C          19.4890  -25.8490  -44.8513 C.2       1 UNK         0.5027 
     26 O          18.5330  -25.5461  -44.1323 O.2       1 UNK        -0.4969 
     27 C          19.7343  -28.7809  -39.9070 C.2       3 UNK         0.5005 
     28 O          19.4080  -28.1169  -38.9200 O.2       3 UNK        -0.5279 
     29 N          20.6951  -29.7174  -39.9037 N.am      4 UNK        -0.4463 
     30 CA         21.5426  -30.1443  -38.7832 C.3       4 UNK         0.0283 
     31 CB         20.6972  -30.8510  -37.7038 C.3       4 UNK        -0.1875 
     32 C          22.4367  -29.0318  -38.1938 C.2       4 UNK         0.4949 
     33 O          22.9649  -29.2030  -37.0940 O.2       4 UNK        -0.5039 
     34 N          22.6019  -27.9224  -38.9247 N.am      5 UNK        -0.4663 
     35 CA         23.3665  -26.7459  -38.5128 C.3       5 UNK         0.0242 
     36 CB         22.5190  -25.4856  -38.7519 C.3       5 UNK        -0.1982 
     37 C          24.7052  -26.6480  -39.2551 C.2       5 UNK         0.5017 
     38 O          25.6736  -26.1654  -38.6666 O.2       5 UNK        -0.5012 
     39 N          24.7547  -27.1108  -40.5119 N.am      6 UNK        -0.4439 
     40 CA         25.9665  -27.1413  -41.3269 C.3       6 UNK         0.0297 
     41 CB         26.2319  -25.7668  -41.9736 C.3       6 UNK        -0.2006 
     42 C          25.8433  -28.2659  -42.3579 C.2       6 UNK         0.4892 
     43 O          25.3460  -28.0347  -43.4612 O.2       6 UNK        -0.5089 
     44 N          26.2852  -29.4663  -41.9584 N.am      7 UNK        -0.4243 
     45 CA         26.4021  -30.7165  -42.7248 C.3       7 UNK         0.0196 
     46 CB         27.3567  -30.5524  -43.9240 C.3       7 UNK        -0.2007 
     47 C          25.0734  -31.3540  -43.1671 C.2       7 UNK         0.5020 
     48 O          24.9075  -32.5609  -42.9857 O.2       7 UNK        -0.5147 
     49 N          24.1632  -30.5567  -43.7398 N.am      8 UNK        -0.4734 
     50 CA         22.8512  -30.9616  -44.2509 C.3       8 UNK         0.0238 
     51 CB         22.1599  -29.7426  -44.8884 C.3       8 UNK        -0.1912 
     52 C          21.9791  -31.5785  -43.1470 C.2       8 UNK         0.5038 
     53 O          21.4417  -30.8400  -42.3210 O.2       8 UNK        -0.5046 
     54 N          21.8812  -32.9151  -43.1402 N.am      9 UNK        -0.4200 
     55 CA         21.1983  -33.7149  -42.1089 C.3       9 UNK         0.0839 
     56 C          21.8705  -33.6302  -40.7022 C.2       9 UNK         0.5513 
     57 N          23.1506  -33.2869  -40.6088 N.am      9 UNK        -0.7519 
     58 O          21.2423  -33.9118  -39.6854 O.2       9 UNK        -0.4960 
     59 C59        19.6603  -33.4695  -42.0859 C.3       10 UNK        -0.0876 
     60 S60        18.8137  -34.1979  -43.5340 S.3       10 UNK        -0.2414 
     61 C61        18.7999  -32.8429  -44.7617 C.3       10 UNK         0.0169 
     62 H62        18.8415  -22.2626  -48.7029 H         1 UNK         0.0903 
     63 H63        17.3837  -22.9341  -47.9691 H         1 UNK         0.0903 
     64 H64        18.3627  -21.7682  -47.0767 H         1 UNK         0.0903 
     65 H65        17.6733  -25.0237  -47.1952 H         1 UNK         0.3096 
     66 H66        20.2702  -26.1910  -46.8158 H         1 UNK         0.1121 
     67 H67        18.6994  -27.6916  -47.6944 H         1 UNK         0.0849 
     68 H68        18.8857  -28.2148  -46.0471 H         1 UNK         0.0849 
     69 H69        15.1092  -29.0217  -46.8792 H         1 UNK         0.0865 
     70 H70        16.6421  -29.3742  -47.6340 H         1 UNK         0.0865 
     71 H71        17.9740  -31.0574  -46.5877 H         1 UNK         0.1346 
     72 H72        17.2697  -32.1696  -42.4969 H         1 UNK         0.1412 
     73 H73        15.1747  -28.8612  -44.2029 H         1 UNK         0.1426 
     74 H74        14.9107  -31.1186  -41.5964 H         1 UNK         0.0716 
     75 H75        14.7874  -29.4085  -41.9336 H         1 UNK         0.0716 
     76 H76        17.2674  -27.5511  -40.4366 H         1 UNK         0.0695 
     77 H77        17.0810  -28.0741  -42.0824 H         1 UNK         0.0695 
     78 H78        19.2344  -29.3785  -41.9136 H         1 UNK         0.0983 
     79 H79        18.9448  -26.7618  -42.4404 H         1 UNK         0.3095 
     80 H80        20.5856  -24.9459  -42.5815 H         1 UNK         0.0454 
     81 H81        23.2760  -26.1265  -43.4427 H         1 UNK         0.0851 
     82 H82        23.0001  -25.1380  -42.0145 H         1 UNK         0.0851 
     83 H83        22.7898  -24.4402  -43.6085 H         1 UNK         0.0851 
     84 H84        21.4672  -26.2566  -45.0394 H         1 UNK         0.2976 
     85 H85        20.9427  -30.1345  -40.8044 H         1 UNK         0.3116 
     86 H86        22.2283  -30.8826  -39.1998 H         1 UNK         0.0646 
     87 H87        20.0205  -30.1587  -37.2023 H         1 UNK         0.0847 
     88 H88        21.3316  -31.2989  -36.9382 H         1 UNK         0.0847 
     89 H89        20.0994  -31.6546  -38.1342 H         1 UNK         0.0847 
     90 H90        22.1584  -27.8842  -39.8390 H         1 UNK         0.3040 
     91 H91        23.5917  -26.7981  -37.4451 H         1 UNK         0.1015 
     92 H92        22.2351  -25.3769  -39.7979 H         1 UNK         0.0786 
     93 H93        23.0649  -24.5858  -38.4643 H         1 UNK         0.0786 
     94 H94        21.6028  -25.5118  -38.1615 H         1 UNK         0.0786 
     95 H95        23.9157  -27.4915  -40.9378 H         1 UNK         0.3172 
     96 H96        26.8211  -27.3751  -40.6876 H         1 UNK         0.0595 
     97 H97        27.1379  -25.7947  -42.5801 H         1 UNK         0.0839 
     98 H98        26.3723  -24.9915  -41.2204 H         1 UNK         0.0839 
     99 H99        25.4185  -25.4545  -42.6260 H         1 UNK         0.0839 
    100 H100       26.6141  -29.5334  -41.0046 H         1 UNK         0.2998 
    101 H101       26.8672  -31.4290  -42.0412 H         1 UNK         0.0822 
    102 H102       27.5095  -31.5053  -44.4326 H         1 UNK         0.0787 
    103 H103       26.9687  -29.8508  -44.6632 H         1 UNK         0.0787 
    104 H104       28.3360  -30.1955  -43.6051 H         1 UNK         0.0787 
    105 H105       24.4016  -29.5690  -43.8061 H         1 UNK         0.3055 
    106 H106       23.0088  -31.7082  -45.0320 H         1 UNK         0.1106 
    107 H107       21.1621  -29.9995  -45.2469 H         1 UNK         0.0828 
    108 H108       22.0496  -28.9262  -44.1745 H         1 UNK         0.0828 
    109 H109       22.7260  -29.3663  -45.7404 H         1 UNK         0.0828 
    110 H110       22.4058  -33.4441  -43.8217 H         1 UNK         0.2931 
    111 H111       21.3527  -34.7540  -42.4020 H         1 UNK         0.0412 
    112 H112       23.6911  -33.0818  -41.4419 H         1 UNK         0.3472 
    113 H113       23.5884  -33.2583  -39.7022 H         1 UNK         0.3472 
    114 H114       19.2071  -33.9380  -41.2109 H         1 UNK         0.0970 
    115 H115       19.4348  -32.4076  -41.9958 H         1 UNK         0.0970 
    116 H116       18.6318  -33.3047  -45.7358 H         1 UNK         0.0612 
    117 H117       19.7851  -32.3842  -44.8163 H         1 UNK         0.0612 
@<TRIPOS>BOND
     1    1    2 1    
     2    1   62 1    
     3    1   63 1    
     4    1   64 1    
     5    2    3 2    
     6    2    4 am   BACKBONE|DICT|INTERRES
     7    4    5 1    
     8    4   65 1    
     9    5    6 1    
    10    5   25 1    
    11    5   66 1    
    12    6    7 1    
    13    6   67 1    
    14    6   68 1    
    15    7    8 1    
    16    8    9 1    
    17    8   69 1    
    18    8   70 1    
    19    9   10 ar   
    20    9   14 ar   
    21   10   11 ar   
    22   10   71 1    
    23   11   12 ar   
    24   11   61 1    
    25   12   13 ar   
    26   12   72 1    
    27   13   14 ar   
    28   13   15 1    
    29   14   73 1    
    30   15   16 1    
    31   15   74 1    
    32   15   75 1    
    33   16   17 1    
    34   17   18 1    
    35   17   76 1    
    36   17   77 1    
    37   18   19 1    
    38   18   27 1    
    39   18   78 1    
    40   19   20 am   BACKBONE|DICT|INTERRES
    41   19   79 1    
    42   20   21 2    
    43   20   22 1    
    44   22   23 1    
    45   22   24 1    
    46   22   80 1    
    47   23   81 1    
    48   23   82 1    
    49   23   83 1    
    50   24   25 am   BACKBONE|DICT|INTERRES
    51   24   84 1    
    52   25   26 2    
    53   27   28 2    
    54   27   29 am   BACKBONE|DICT|INTERRES
    55   29   30 1    
    56   29   85 1    
    57   30   31 1    
    58   30   32 1    
    59   30   86 1    
    60   31   87 1    
    61   31   88 1    
    62   31   89 1    
    63   32   33 2    
    64   32   34 am   BACKBONE|DICT|INTERRES
    65   34   35 1    
    66   34   90 1    
    67   35   36 1    
    68   35   37 1    
    69   35   91 1    
    70   36   92 1    
    71   36   93 1    
    72   36   94 1    
    73   37   38 2    
    74   37   39 am   BACKBONE|DICT|INTERRES
    75   39   40 1    
    76   39   95 1    
    77   40   41 1    
    78   40   42 1    
    79   40   96 1    
    80   41   97 1    
    81   41   98 1    
    82   41   99 1    
    83   42   43 2    
    84   42   44 am   BACKBONE|DICT|INTERRES
    85   44   45 1    
    86   44  100 1    
    87   45   46 1    
    88   45   47 1    
    89   45  101 1    
    90   46  102 1    
    91   46  103 1    
    92   46  104 1    
    93   47   48 2    
    94   47   49 am   BACKBONE|DICT|INTERRES
    95   49   50 1    
    96   49  105 1    
    97   50   51 1    
    98   50   52 1    
    99   50  106 1    
   100   51  107 1    
   101   51  108 1    
   102   51  109 1    
   103   52   53 2    
   104   52   54 am   BACKBONE|DICT|INTERRES
   105   54   55 1    
   106   54  110 1    
   107   55   56 1    
   108   55   59 1    
   109   55  111 1    
   110   56   57 am   BACKBONE|DICT|INTERRES
   111   56   58 2    
   112   57  112 1    
   113   57  113 1    
   114   59   60 1    
   115   59  114 1    
   116   59  115 1    
   117   60   61 1    
   118   61  116 1    
   119   61  117 1    
@<TRIPOS>SUBSTRUCTURE
     1 UNK         1 GROUP             0       ****    0 ROOT    
