@<TRIPOS>MOLECULE
3R8
117   119    1
SMALL
USER_CHARGES


@<TRIPOS>ATOM
      1 CA         15.7459  -22.9611  -47.3778 C.3       0 UNK        -0.2013 
      2 C          17.0835  -23.6543  -47.5880 C.2       0 UNK         0.4866 
      3 O          18.0661  -22.9991  -47.9348 O.2       0 UNK        -0.5176 
      4 N          17.1323  -24.9755  -47.3743 N.am      1 UNK        -0.4884 
      5 CA         18.3303  -25.8126  -47.5341 C.3       1 UNK         0.0853 
      6 C6         17.9578  -27.2695  -47.9160 C.3       10 UNK        -0.0849 
      7 S7         16.8885  -28.1185  -46.7007 S.3       10 UNK        -0.2776 
      8 C8         18.1187  -29.1753  -45.8630 C.3       10 UNK         0.0316 
      9 C9         17.5668  -29.9739  -44.6858 C.ar      10 UNK        -0.0863 
     10 C10        18.1097  -31.2324  -44.4051 C.ar      10 UNK        -0.1009 
     11 C11        17.6990  -31.9495  -43.2782 C.ar      10 UNK        -0.0712 
     12 C12        16.7204  -31.4130  -42.4394 C.ar      10 UNK        -0.0894 
     13 C13        16.1631  -30.1623  -42.7099 C.ar      10 UNK        -0.0745 
     14 C14        16.5848  -29.4492  -43.8356 C.ar      10 UNK        -0.0972 
     15 C15        15.1331  -29.5742  -41.7594 C.3       10 UNK         0.0209 
     16 S16        15.9368  -28.8104  -40.3149 S.3       10 UNK        -0.2568 
     17 C17        16.5806  -27.2598  -41.0276 C.3       10 UNK        -0.0983 
     18 CA         18.0608  -27.3489  -41.4791 C.3       3 UNK         0.0876 
     19 N          18.3930  -26.2290  -42.3592 N.am      3 UNK        -0.4424 
     20 C          19.4852  -26.1417  -43.1264 C.2       2 UNK         0.4918 
     21 O          20.3425  -27.0232  -43.2019 O.2       2 UNK        -0.4875 
     22 CA         19.5903  -24.8605  -43.9730 C.3       2 UNK         0.0481 
     23 CB         21.0390  -24.3573  -44.1420 C.3       2 UNK        -0.1831 
     24 N          18.9107  -25.0276  -45.2629 N.am      2 UNK        -0.4498 
     25 C          19.2975  -25.7515  -46.3268 C.2       1 UNK         0.5027 
     26 O          20.3658  -26.3599  -46.3971 O.2       1 UNK        -0.4969 
     27 C          19.0329  -27.4268  -40.2846 C.2       3 UNK         0.5005 
     28 O          19.1417  -26.4550  -39.5325 O.2       3 UNK        -0.5279 
     29 N          19.7000  -28.5833  -40.1384 N.am      4 UNK        -0.4463 
     30 CA         20.6410  -28.9478  -39.0703 C.3       4 UNK         0.0283 
     31 CB         19.8840  -29.1578  -37.7423 C.3       4 UNK        -0.1875 
     32 C          21.8291  -27.9734  -38.9337 C.2       4 UNK         0.4949 
     33 O          22.2456  -27.6590  -37.8174 O.2       4 UNK        -0.5039 
     34 N          22.3475  -27.5011  -40.0744 N.am      5 UNK        -0.4663 
     35 CA         23.4475  -26.5383  -40.1469 C.3       5 UNK         0.0242 
     36 CB         23.4429  -25.8881  -41.5375 C.3       5 UNK        -0.1982 
     37 C          24.8210  -27.1599  -39.8488 C.2       5 UNK         0.5017 
     38 O          25.7102  -26.4515  -39.3745 O.2       5 UNK        -0.5012 
     39 N          24.9745  -28.4568  -40.1344 N.am      6 UNK        -0.4439 
     40 CA         26.1958  -29.2354  -39.9499 C.3       6 UNK         0.0297 
     41 CB         27.1840  -28.9222  -41.0949 C.3       6 UNK        -0.2006 
     42 C          25.8338  -30.7262  -39.9010 C.2       6 UNK         0.4892 
     43 O          24.6528  -31.0769  -39.9695 O.2       6 UNK        -0.5089 
     44 N          26.8594  -31.5888  -39.8451 N.am      7 UNK        -0.4243 
     45 CA         26.7419  -33.0501  -39.9658 C.3       7 UNK         0.0196 
     46 CB         28.1157  -33.6902  -39.7094 C.3       7 UNK        -0.2007 
     47 C          26.1732  -33.5178  -41.3222 C.2       7 UNK         0.5020 
     48 O          25.6416  -34.6241  -41.4092 O.2       7 UNK        -0.5147 
     49 N          26.2535  -32.6502  -42.3409 N.am      8 UNK        -0.4734 
     50 CA         25.6022  -32.7891  -43.6463 C.3       8 UNK         0.0238 
     51 CB         26.3349  -31.8864  -44.6549 C.3       8 UNK        -0.1912 
     52 C          24.0884  -32.4765  -43.6255 C.2       8 UNK         0.5038 
     53 O          23.4671  -32.5029  -44.6888 O.2       8 UNK        -0.5046 
     54 N          23.5220  -32.1921  -42.4439 N.am      9 UNK        -0.4200 
     55 CA         22.1278  -31.8018  -42.2011 C.3       9 UNK         0.0839 
     56 C          21.8901  -30.2949  -42.5060 C.2       9 UNK         0.5513 
     57 N          20.6832  -29.8826  -42.8687 N.am      9 UNK        -0.7519 
     58 O          22.7867  -29.4706  -42.3396 O.2       9 UNK        -0.4960 
     59 C59        21.0982  -32.8004  -42.8144 C.3       10 UNK        -0.0876 
     60 S60        19.6651  -33.1022  -41.7289 S.3       10 UNK        -0.2414 
     61 C61        18.3214  -33.2931  -42.9406 C.3       10 UNK         0.0169 
     62 H62        15.4221  -22.4839  -48.3024 H         1 UNK         0.0903 
     63 H63        14.9686  -23.6589  -47.0668 H         1 UNK         0.0903 
     64 H64        15.8376  -22.1917  -46.6116 H         1 UNK         0.0903 
     65 H65        16.2980  -25.4720  -47.0903 H         1 UNK         0.3096 
     66 H66        18.9029  -25.4102  -48.3734 H         1 UNK         0.1121 
     67 H67        18.8564  -27.8621  -48.0998 H         1 UNK         0.0849 
     68 H68        17.4256  -27.2624  -48.8686 H         1 UNK         0.0849 
     69 H69        18.5503  -29.8509  -46.6034 H         1 UNK         0.0865 
     70 H70        18.9374  -28.5579  -45.4918 H         1 UNK         0.0865 
     71 H71        18.8740  -31.6434  -45.0508 H         1 UNK         0.1346 
     72 H72        16.4095  -31.9596  -41.5591 H         1 UNK         0.1412 
     73 H73        16.1710  -28.4688  -44.0261 H         1 UNK         0.1426 
     74 H74        14.4650  -30.3642  -41.4128 H         1 UNK         0.0716 
     75 H75        14.5010  -28.8450  -42.2686 H         1 UNK         0.0716 
     76 H76        16.4463  -26.4616  -40.2948 H         1 UNK         0.0695 
     77 H77        15.9470  -26.9871  -41.8730 H         1 UNK         0.0695 
     78 H78        18.1865  -28.2558  -42.0707 H         1 UNK         0.0983 
     79 H79        17.7541  -25.4482  -42.3373 H         1 UNK         0.3095 
     80 H80        19.0448  -24.0715  -43.4526 H         1 UNK         0.0454 
     81 H81        21.7120  -25.1389  -44.4963 H         1 UNK         0.0851 
     82 H82        21.4317  -23.9950  -43.1928 H         1 UNK         0.0851 
     83 H83        21.0919  -23.5267  -44.8456 H         1 UNK         0.0851 
     84 H84        18.0062  -24.5838  -45.3358 H         1 UNK         0.2976 
     85 H85        19.5658  -29.2939  -40.8456 H         1 UNK         0.3116 
     86 H86        21.0722  -29.9080  -39.3579 H         1 UNK         0.0646 
     87 H87        19.4601  -28.2251  -37.3685 H         1 UNK         0.0847 
     88 H88        20.5477  -29.5471  -36.9692 H         1 UNK         0.0847 
     89 H89        19.0698  -29.8731  -37.8582 H         1 UNK         0.0847 
     90 H90        21.9841  -27.8418  -40.9568 H         1 UNK         0.3040 
     91 H91        23.2729  -25.7572  -39.4033 H         1 UNK         0.1015 
     92 H92        23.5853  -26.6250  -42.3295 H         1 UNK         0.0786 
     93 H93        24.2370  -25.1458  -41.6294 H         1 UNK         0.0786 
     94 H94        22.4978  -25.3801  -41.7201 H         1 UNK         0.0786 
     95 H95        24.1849  -28.9808  -40.4985 H         1 UNK         0.3172 
     96 H96        26.6470  -28.9720  -38.9911 H         1 UNK         0.0595 
     97 H97        28.1309  -29.4478  -40.9700 H         1 UNK         0.0839 
     98 H98        27.4227  -27.8593  -41.1348 H         1 UNK         0.0839 
     99 H99        26.7746  -29.2035  -42.0661 H         1 UNK         0.0839 
    100 H100       27.7972  -31.2203  -39.7715 H         1 UNK         0.2998 
    101 H101       26.0518  -33.3924  -39.1915 H         1 UNK         0.0822 
    102 H102       28.0554  -34.7783  -39.7627 H         1 UNK         0.0787 
    103 H103       28.8549  -33.3688  -40.4444 H         1 UNK         0.0787 
    104 H104       28.4935  -33.4378  -38.7184 H         1 UNK         0.0787 
    105 H105       26.7230  -31.7735  -42.1688 H         1 UNK         0.3055 
    106 H106       25.7052  -33.8256  -43.9754 H         1 UNK         0.1106 
    107 H107       25.9287  -32.0088  -45.6600 H         1 UNK         0.0828 
    108 H108       26.2422  -30.8314  -44.3935 H         1 UNK         0.0828 
    109 H109       27.3964  -32.1288  -44.7084 H         1 UNK         0.0828 
    110 H110       24.1221  -32.1039  -41.6320 H         1 UNK         0.2931 
    111 H111       22.0420  -31.8684  -41.1159 H         1 UNK         0.0412 
    112 H112       19.9295  -30.5362  -43.0184 H         1 UNK         0.3472 
    113 H113       20.5647  -28.8961  -43.0844 H         1 UNK         0.3472 
    114 H114       21.5628  -33.7765  -42.9621 H         1 UNK         0.0970 
    115 H115       20.7849  -32.4818  -43.8092 H         1 UNK         0.0970 
    116 H116       18.6892  -33.7922  -43.8385 H         1 UNK         0.0612 
    117 H117       17.5609  -33.9513  -42.5179 H         1 UNK         0.0612 
@<TRIPOS>BOND
     1    1    2 1    
     2    1   62 1    
     3    1   63 1    
     4    1   64 1    
     5    2    3 2    
     6    2    4 am   BACKBONE|DICT|INTERRES
     7    4    5 1    
     8    4   65 1    
     9    5    6 1    
    10    5   25 1    
    11    5   66 1    
    12    6    7 1    
    13    6   67 1    
    14    6   68 1    
    15    7    8 1    
    16    8    9 1    
    17    8   69 1    
    18    8   70 1    
    19    9   10 ar   
    20    9   14 ar   
    21   10   11 ar   
    22   10   71 1    
    23   11   12 ar   
    24   11   61 1    
    25   12   13 ar   
    26   12   72 1    
    27   13   14 ar   
    28   13   15 1    
    29   14   73 1    
    30   15   16 1    
    31   15   74 1    
    32   15   75 1    
    33   16   17 1    
    34   17   18 1    
    35   17   76 1    
    36   17   77 1    
    37   18   19 1    
    38   18   27 1    
    39   18   78 1    
    40   19   20 am   BACKBONE|DICT|INTERRES
    41   19   79 1    
    42   20   21 2    
    43   20   22 1    
    44   22   23 1    
    45   22   24 1    
    46   22   80 1    
    47   23   81 1    
    48   23   82 1    
    49   23   83 1    
    50   24   25 am   BACKBONE|DICT|INTERRES
    51   24   84 1    
    52   25   26 2    
    53   27   28 2    
    54   27   29 am   BACKBONE|DICT|INTERRES
    55   29   30 1    
    56   29   85 1    
    57   30   31 1    
    58   30   32 1    
    59   30   86 1    
    60   31   87 1    
    61   31   88 1    
    62   31   89 1    
    63   32   33 2    
    64   32   34 am   BACKBONE|DICT|INTERRES
    65   34   35 1    
    66   34   90 1    
    67   35   36 1    
    68   35   37 1    
    69   35   91 1    
    70   36   92 1    
    71   36   93 1    
    72   36   94 1    
    73   37   38 2    
    74   37   39 am   BACKBONE|DICT|INTERRES
    75   39   40 1    
    76   39   95 1    
    77   40   41 1    
    78   40   42 1    
    79   40   96 1    
    80   41   97 1    
    81   41   98 1    
    82   41   99 1    
    83   42   43 2    
    84   42   44 am   BACKBONE|DICT|INTERRES
    85   44   45 1    
    86   44  100 1    
    87   45   46 1    
    88   45   47 1    
    89   45  101 1    
    90   46  102 1    
    91   46  103 1    
    92   46  104 1    
    93   47   48 2    
    94   47   49 am   BACKBONE|DICT|INTERRES
    95   49   50 1    
    96   49  105 1    
    97   50   51 1    
    98   50   52 1    
    99   50  106 1    
   100   51  107 1    
   101   51  108 1    
   102   51  109 1    
   103   52   53 2    
   104   52   54 am   BACKBONE|DICT|INTERRES
   105   54   55 1    
   106   54  110 1    
   107   55   56 1    
   108   55   59 1    
   109   55  111 1    
   110   56   57 am   BACKBONE|DICT|INTERRES
   111   56   58 2    
   112   57  112 1    
   113   57  113 1    
   114   59   60 1    
   115   59  114 1    
   116   59  115 1    
   117   60   61 1    
   118   61  116 1    
   119   61  117 1    
@<TRIPOS>SUBSTRUCTURE
     1 UNK         1 GROUP             0       ****    0 ROOT    
