@<TRIPOS>MOLECULE
3R8
117   119    1
SMALL
USER_CHARGES


@<TRIPOS>ATOM
      1 CA         16.0374  -23.5177  -47.6393 C.3       0 UNK        -0.2013 
      2 C          16.5915  -24.6975  -46.8550 C.2       0 UNK         0.4866 
      3 O          17.7725  -25.0155  -46.9826 O.2       0 UNK        -0.5176 
      4 N          15.7501  -25.3394  -46.0343 N.am      1 UNK        -0.4884 
      5 CA         16.0883  -26.5195  -45.2226 C.3       1 UNK         0.0853 
      6 C6         14.8442  -27.4135  -44.9810 C.3       10 UNK        -0.0849 
      7 S7         14.3866  -28.2905  -46.5172 S.3       10 UNK        -0.2776 
      8 C8         14.8084  -30.0309  -46.1440 C.3       10 UNK         0.0316 
      9 C9         16.1732  -30.2054  -45.4832 C.ar      10 UNK        -0.0863 
     10 C10        16.2633  -30.7903  -44.2162 C.ar      10 UNK        -0.1009 
     11 C11        17.4967  -30.9425  -43.5753 C.ar      10 UNK        -0.0712 
     12 C12        18.6542  -30.4941  -44.2268 C.ar      10 UNK        -0.0894 
     13 C13        18.5811  -29.9032  -45.4920 C.ar      10 UNK        -0.0745 
     14 C14        17.3400  -29.7790  -46.1234 C.ar      10 UNK        -0.0972 
     15 C15        19.8406  -29.3967  -46.1804 C.3       10 UNK         0.0209 
     16 S16        20.1672  -27.6471  -45.7900 S.3       10 UNK        -0.2568 
     17 C17        21.0679  -27.7932  -44.2112 C.3       10 UNK        -0.0983 
     18 CA         21.1471  -26.4575  -43.4261 C.3       3 UNK         0.0876 
     19 N          19.8136  -25.9547  -43.0871 N.am      3 UNK        -0.4424 
     20 C          19.4802  -24.6847  -42.8321 C.2       2 UNK         0.4918 
     21 O          20.3019  -23.7660  -42.8011 O.2       2 UNK        -0.4875 
     22 CA         17.9819  -24.4021  -42.5826 C.3       2 UNK         0.0481 
     23 CB         17.6919  -22.9058  -42.3640 C.3       2 UNK        -0.1831 
     24 N          17.1451  -24.8925  -43.6827 N.am      2 UNK        -0.4498 
     25 C          16.8250  -26.1747  -43.9096 C.2       1 UNK         0.5027 
     26 O          17.1348  -27.0808  -43.1346 O.2       1 UNK        -0.4969 
     27 C          22.0222  -26.5871  -42.1602 C.2       3 UNK         0.5005 
     28 O          22.4846  -27.6821  -41.8406 O.2       3 UNK        -0.5279 
     29 N          22.2392  -25.4699  -41.4518 N.am      4 UNK        -0.4463 
     30 CA         22.9634  -25.3923  -40.1753 C.3       4 UNK         0.0283 
     31 CB         22.9078  -23.9476  -39.6535 C.3       4 UNK        -0.1875 
     32 C          24.4213  -25.8905  -40.2241 C.2       4 UNK         0.4949 
     33 O          24.9469  -26.3193  -39.1968 O.2       4 UNK        -0.5039 
     34 N          25.0426  -25.8357  -41.4094 N.am      5 UNK        -0.4663 
     35 CA         26.3896  -26.3460  -41.6687 C.3       5 UNK         0.0242 
     36 CB         26.9455  -25.6569  -42.9261 C.3       5 UNK        -0.1982 
     37 C          26.4532  -27.8779  -41.8261 C.2       5 UNK         0.5017 
     38 O          27.5476  -28.4338  -41.7215 O.2       5 UNK        -0.5012 
     39 N          25.3154  -28.5362  -42.0933 N.am      6 UNK        -0.4439 
     40 CA         25.2294  -29.9828  -42.2798 C.3       6 UNK         0.0297 
     41 CB         24.1396  -30.3038  -43.3175 C.3       6 UNK        -0.2006 
     42 C          24.9364  -30.6445  -40.9282 C.2       6 UNK         0.4892 
     43 O          23.8146  -30.5364  -40.4275 O.2       6 UNK        -0.5089 
     44 N          25.9513  -31.3093  -40.3589 N.am      7 UNK        -0.4243 
     45 CA         25.8800  -32.0374  -39.0888 C.3       7 UNK         0.0196 
     46 CB         27.2639  -32.6188  -38.7546 C.3       7 UNK        -0.2007 
     47 C          24.8112  -33.1414  -39.1382 C.2       7 UNK         0.5020 
     48 O          24.9568  -34.0910  -39.9107 O.2       7 UNK        -0.5147 
     49 N          23.7310  -32.9517  -38.3663 N.am      8 UNK        -0.4734 
     50 CA         22.5147  -33.7784  -38.3280 C.3       8 UNK         0.0238 
     51 CB         22.8140  -35.1443  -37.6734 C.3       8 UNK        -0.1912 
     52 C          21.8177  -33.9181  -39.7004 C.2       8 UNK         0.5038 
     53 O          21.1935  -34.9485  -39.9607 O.2       8 UNK        -0.5046 
     54 N          21.9567  -32.8926  -40.5550 N.am      9 UNK        -0.4200 
     55 CA         21.5124  -32.8625  -41.9592 C.3       9 UNK         0.0839 
     56 C          22.2925  -33.8333  -42.8987 C.2       9 UNK         0.5513 
     57 N          23.4411  -34.3712  -42.5024 N.am      9 UNK        -0.7519 
     58 O          21.8717  -34.0772  -44.0264 O.2       9 UNK        -0.4960 
     59 C59        19.9677  -32.9665  -42.1229 C.3       10 UNK        -0.0876 
     60 S60        19.0961  -31.5957  -41.2905 S.3       10 UNK        -0.2414 
     61 C61        17.5035  -31.5880  -42.1853 C.3       10 UNK         0.0169 
     62 H62        16.5931  -22.6118  -47.3983 H         1 UNK         0.0903 
     63 H63        16.1335  -23.7016  -48.7091 H         1 UNK         0.0903 
     64 H64        14.9849  -23.3387  -47.4199 H         1 UNK         0.0903 
     65 H65        14.7893  -25.0316  -45.9729 H         1 UNK         0.3096 
     66 H66        16.8174  -27.1082  -45.7828 H         1 UNK         0.1121 
     67 H67        13.9961  -26.8145  -44.6453 H         1 UNK         0.0849 
     68 H68        15.0138  -28.1458  -44.1901 H         1 UNK         0.0849 
     69 H69        14.0207  -30.4459  -45.5132 H         1 UNK         0.0865 
     70 H70        14.7867  -30.6056  -47.0709 H         1 UNK         0.0865 
     71 H71        15.3637  -31.1244  -43.7170 H         1 UNK         0.1346 
     72 H72        19.6203  -30.5936  -43.7562 H         1 UNK         0.1412 
     73 H73        17.2769  -29.3223  -47.1020 H         1 UNK         0.1426 
     74 H74        19.7333  -29.4980  -47.2614 H         1 UNK         0.0716 
     75 H75        20.7023  -30.0066  -45.9040 H         1 UNK         0.0716 
     76 H76        20.5928  -28.5561  -43.5947 H         1 UNK         0.0695 
     77 H77        22.0690  -28.1616  -44.4428 H         1 UNK         0.0695 
     78 H78        21.6363  -25.7247  -44.0717 H         1 UNK         0.0983 
     79 H79        19.0659  -26.6414  -43.0823 H         1 UNK         0.3095 
     80 H80        17.7027  -24.9295  -41.6683 H         1 UNK         0.0454 
     81 H81        18.2626  -22.5160  -41.5200 H         1 UNK         0.0851 
     82 H82        17.9562  -22.3104  -43.2388 H         1 UNK         0.0851 
     83 H83        16.6381  -22.7329  -42.1455 H         1 UNK         0.0851 
     84 H84        16.8888  -24.2201  -44.3911 H         1 UNK         0.2976 
     85 H85        21.7960  -24.6184  -41.7843 H         1 UNK         0.3116 
     86 H86        22.4328  -26.0309  -39.4660 H         1 UNK         0.0646 
     87 H87        23.4103  -23.8605  -38.6890 H         1 UNK         0.0847 
     88 H88        21.8795  -23.6147  -39.5113 H         1 UNK         0.0847 
     89 H89        23.3950  -23.2525  -40.3384 H         1 UNK         0.0847 
     90 H90        24.5354  -25.4574  -42.1961 H         1 UNK         0.3040 
     91 H91        27.0307  -26.0823  -40.8242 H         1 UNK         0.1015 
     92 H92        26.3457  -25.8814  -43.8091 H         1 UNK         0.0786 
     93 H93        27.9652  -25.9852  -43.1333 H         1 UNK         0.0786 
     94 H94        26.9753  -24.5737  -42.8053 H         1 UNK         0.0786 
     95 H95        24.4278  -28.0424  -42.0492 H         1 UNK         0.3172 
     96 H96        26.1742  -30.3662  -42.6718 H         1 UNK         0.0595 
     97 H97        24.0865  -31.3770  -43.5027 H         1 UNK         0.0839 
     98 H98        23.1526  -29.9791  -42.9875 H         1 UNK         0.0839 
     99 H99        24.3468  -29.8208  -44.2724 H         1 UNK         0.0839 
    100 H100       26.8362  -31.3409  -40.8448 H         1 UNK         0.2998 
    101 H101       25.6165  -31.3193  -38.3093 H         1 UNK         0.0822 
    102 H102       27.2397  -33.1616  -37.8086 H         1 UNK         0.0787 
    103 H103       27.6061  -33.3158  -39.5210 H         1 UNK         0.0787 
    104 H104       28.0128  -31.8325  -38.6571 H         1 UNK         0.0787 
    105 H105       23.6972  -32.1109  -37.8048 H         1 UNK         0.3055 
    106 H106       21.8030  -33.2540  -37.6881 H         1 UNK         0.1106 
    107 H107       23.4711  -35.7544  -38.2941 H         1 UNK         0.0828 
    108 H108       23.2893  -35.0230  -36.7001 H         1 UNK         0.0828 
    109 H109       21.8972  -35.7134  -37.5143 H         1 UNK         0.0828 
    110 H110       22.5133  -32.0937  -40.2677 H         1 UNK         0.2931 
    111 H111       21.7950  -31.8718  -42.3146 H         1 UNK         0.0412 
    112 H112       23.9338  -34.9864  -43.1299 H         1 UNK         0.3472 
    113 H113       23.8171  -34.1953  -41.5768 H         1 UNK         0.3472 
    114 H114       19.5931  -33.9144  -41.7353 H         1 UNK         0.0970 
    115 H115       19.6947  -32.9526  -43.1791 H         1 UNK         0.0970 
    116 H116       16.7840  -31.0577  -41.5597 H         1 UNK         0.0612 
    117 H117       17.1413  -32.6139  -42.2664 H         1 UNK         0.0612 
@<TRIPOS>BOND
     1    1    2 1    
     2    1   62 1    
     3    1   63 1    
     4    1   64 1    
     5    2    3 2    
     6    2    4 am   BACKBONE|DICT|INTERRES
     7    4    5 1    
     8    4   65 1    
     9    5    6 1    
    10    5   25 1    
    11    5   66 1    
    12    6    7 1    
    13    6   67 1    
    14    6   68 1    
    15    7    8 1    
    16    8    9 1    
    17    8   69 1    
    18    8   70 1    
    19    9   10 ar   
    20    9   14 ar   
    21   10   11 ar   
    22   10   71 1    
    23   11   12 ar   
    24   11   61 1    
    25   12   13 ar   
    26   12   72 1    
    27   13   14 ar   
    28   13   15 1    
    29   14   73 1    
    30   15   16 1    
    31   15   74 1    
    32   15   75 1    
    33   16   17 1    
    34   17   18 1    
    35   17   76 1    
    36   17   77 1    
    37   18   19 1    
    38   18   27 1    
    39   18   78 1    
    40   19   20 am   BACKBONE|DICT|INTERRES
    41   19   79 1    
    42   20   21 2    
    43   20   22 1    
    44   22   23 1    
    45   22   24 1    
    46   22   80 1    
    47   23   81 1    
    48   23   82 1    
    49   23   83 1    
    50   24   25 am   BACKBONE|DICT|INTERRES
    51   24   84 1    
    52   25   26 2    
    53   27   28 2    
    54   27   29 am   BACKBONE|DICT|INTERRES
    55   29   30 1    
    56   29   85 1    
    57   30   31 1    
    58   30   32 1    
    59   30   86 1    
    60   31   87 1    
    61   31   88 1    
    62   31   89 1    
    63   32   33 2    
    64   32   34 am   BACKBONE|DICT|INTERRES
    65   34   35 1    
    66   34   90 1    
    67   35   36 1    
    68   35   37 1    
    69   35   91 1    
    70   36   92 1    
    71   36   93 1    
    72   36   94 1    
    73   37   38 2    
    74   37   39 am   BACKBONE|DICT|INTERRES
    75   39   40 1    
    76   39   95 1    
    77   40   41 1    
    78   40   42 1    
    79   40   96 1    
    80   41   97 1    
    81   41   98 1    
    82   41   99 1    
    83   42   43 2    
    84   42   44 am   BACKBONE|DICT|INTERRES
    85   44   45 1    
    86   44  100 1    
    87   45   46 1    
    88   45   47 1    
    89   45  101 1    
    90   46  102 1    
    91   46  103 1    
    92   46  104 1    
    93   47   48 2    
    94   47   49 am   BACKBONE|DICT|INTERRES
    95   49   50 1    
    96   49  105 1    
    97   50   51 1    
    98   50   52 1    
    99   50  106 1    
   100   51  107 1    
   101   51  108 1    
   102   51  109 1    
   103   52   53 2    
   104   52   54 am   BACKBONE|DICT|INTERRES
   105   54   55 1    
   106   54  110 1    
   107   55   56 1    
   108   55   59 1    
   109   55  111 1    
   110   56   57 am   BACKBONE|DICT|INTERRES
   111   56   58 2    
   112   57  112 1    
   113   57  113 1    
   114   59   60 1    
   115   59  114 1    
   116   59  115 1    
   117   60   61 1    
   118   61  116 1    
   119   61  117 1    
@<TRIPOS>SUBSTRUCTURE
     1 UNK         1 GROUP             0       ****    0 ROOT    
