@<TRIPOS>MOLECULE
3R8
117   119    1
SMALL
USER_CHARGES


@<TRIPOS>ATOM
      1 CA         16.0243  -23.1579  -46.6063 C.3       0 UNK        -0.2013 
      2 C          16.8091  -24.4124  -46.2526 C.2       0 UNK         0.4866 
      3 O          16.8361  -24.8052  -45.0853 O.2       0 UNK        -0.5176 
      4 N          17.4431  -25.0430  -47.2530 N.am      1 UNK        -0.4884 
      5 CA         18.2857  -26.2405  -47.1222 C.3       1 UNK         0.0853 
      6 C6         17.4755  -27.4639  -46.5967 C.3       10 UNK        -0.0849 
      7 S7         18.1815  -29.0777  -47.0728 S.3       10 UNK        -0.2776 
      8 C8         16.9364  -30.2181  -46.3913 C.3       10 UNK         0.0316 
      9 C9         16.9871  -30.2865  -44.8704 C.ar      10 UNK        -0.0863 
     10 C10        17.8560  -31.1790  -44.2365 C.ar      10 UNK        -0.1009 
     11 C11        17.8792  -31.2799  -42.8421 C.ar      10 UNK        -0.0712 
     12 C12        17.0246  -30.4786  -42.0803 C.ar      10 UNK        -0.0894 
     13 C13        16.1611  -29.5708  -42.7009 C.ar      10 UNK        -0.0745 
     14 C14        16.1423  -29.4849  -44.0966 C.ar      10 UNK        -0.0972 
     15 C15        15.2367  -28.6918  -41.8675 C.3       10 UNK         0.0209 
     16 S16        16.1453  -27.5710  -40.7526 S.3       10 UNK        -0.2568 
     17 C17        17.2190  -26.6636  -41.9159 C.3       10 UNK        -0.0983 
     18 CA         18.6970  -27.1192  -41.8004 C.3       3 UNK         0.0876 
     19 N          19.4361  -26.8487  -43.0355 N.am      3 UNK        -0.4424 
     20 C          20.7102  -27.1838  -43.2934 C.2       2 UNK         0.4918 
     21 O          21.4581  -27.7129  -42.4704 O.2       2 UNK        -0.4875 
     22 CA         21.2322  -26.9032  -44.7150 C.3       2 UNK         0.0481 
     23 CB         22.3321  -27.8977  -45.1319 C.3       2 UNK        -0.1831 
     24 N          20.1358  -26.9737  -45.6806 N.am      2 UNK        -0.4498 
     25 C          19.5701  -25.9377  -46.3084 C.2       1 UNK         0.5027 
     26 O          20.0143  -24.7876  -46.2571 O.2       1 UNK        -0.4969 
     27 C          19.4020  -26.5116  -40.5696 C.2       3 UNK         0.5005 
     28 O          19.3575  -25.2939  -40.3801 O.2       3 UNK        -0.5279 
     29 N          20.0854  -27.3736  -39.8000 N.am      4 UNK        -0.4463 
     30 CA         20.9346  -27.0619  -38.6422 C.3       4 UNK         0.0283 
     31 CB         20.0954  -26.4787  -37.4854 C.3       4 UNK        -0.1875 
     32 C          22.1669  -26.1891  -38.9702 C.2       4 UNK         0.4949 
     33 O          22.7778  -25.6426  -38.0507 O.2       4 UNK        -0.5039 
     34 N          22.5317  -26.0815  -40.2562 N.am      5 UNK        -0.4663 
     35 CA         23.6993  -25.3289  -40.7252 C.3       5 UNK         0.0242 
     36 CB         23.4611  -24.8720  -42.1735 C.3       5 UNK        -0.1982 
     37 C          24.9919  -26.1546  -40.6329 C.2       5 UNK         0.5017 
     38 O          26.0736  -25.5760  -40.5242 O.2       5 UNK        -0.5012 
     39 N          24.8558  -27.4834  -40.6765 N.am      6 UNK        -0.4439 
     40 CA         25.9208  -28.4697  -40.5618 C.3       6 UNK         0.0297 
     41 CB         26.6357  -28.6315  -41.9166 C.3       6 UNK        -0.2006 
     42 C          25.2922  -29.7919  -40.1107 C.2       6 UNK         0.4892 
     43 O          24.0824  -29.9807  -40.2712 O.2       6 UNK        -0.5089 
     44 N          26.1269  -30.6881  -39.5723 N.am      7 UNK        -0.4243 
     45 CA         25.7496  -32.0635  -39.2449 C.3       7 UNK         0.0196 
     46 CB         26.8262  -32.6818  -38.3379 C.3       7 UNK        -0.2007 
     47 C          25.5758  -32.8986  -40.5243 C.2       7 UNK         0.5020 
     48 O          26.2990  -32.6736  -41.4977 O.2       7 UNK        -0.5147 
     49 N          24.6406  -33.8583  -40.4811 N.am      8 UNK        -0.4734 
     50 CA         24.2559  -34.7582  -41.5785 C.3       8 UNK         0.0238 
     51 CB         25.3996  -35.7418  -41.9112 C.3       8 UNK        -0.1912 
     52 C          23.7360  -33.9933  -42.8134 C.2       8 UNK         0.5038 
     53 O          24.2023  -34.2260  -43.9305 O.2       8 UNK        -0.5046 
     54 N          22.7778  -33.0871  -42.5761 N.am      9 UNK        -0.4200 
     55 CA         22.0939  -32.2714  -43.5940 C.3       9 UNK         0.0839 
     56 C          21.2621  -33.0576  -44.6503 C.2       9 UNK         0.5513 
     57 N          20.9382  -34.3279  -44.4391 N.am      9 UNK        -0.7519 
     58 O          20.9133  -32.5020  -45.6879 O.2       9 UNK        -0.4960 
     59 C59        21.2797  -31.1037  -42.9618 C.3       10 UNK        -0.0876 
     60 S60        20.3006  -31.5326  -41.4754 S.3       10 UNK        -0.2414 
     61 C61        18.7890  -32.2874  -42.1564 C.3       10 UNK         0.0169 
     62 H62        16.4200  -22.3026  -46.0593 H         1 UNK         0.0903 
     63 H63        14.9767  -23.2820  -46.3334 H         1 UNK         0.0903 
     64 H64        16.0729  -22.9317  -47.6713 H         1 UNK         0.0903 
     65 H65        17.4056  -24.6462  -48.1822 H         1 UNK         0.3096 
     66 H66        18.6253  -26.4685  -48.1341 H         1 UNK         0.1121 
     67 H67        16.4630  -27.4319  -47.0029 H         1 UNK         0.0849 
     68 H68        17.3588  -27.4166  -45.5131 H         1 UNK         0.0849 
     69 H69        15.9420  -29.9220  -46.7292 H         1 UNK         0.0865 
     70 H70        17.1094  -31.2122  -46.8066 H         1 UNK         0.0865 
     71 H71        18.5028  -31.8070  -44.8329 H         1 UNK         0.1346 
     72 H72        17.0347  -30.5569  -41.0016 H         1 UNK         0.1412 
     73 H73        15.4656  -28.7955  -44.5833 H         1 UNK         0.1426 
     74 H74        14.5821  -29.3287  -41.2710 H         1 UNK         0.0716 
     75 H75        14.5843  -28.0956  -42.5075 H         1 UNK         0.0716 
     76 H76        17.1110  -25.5910  -41.7439 H         1 UNK         0.0695 
     77 H77        16.8476  -26.8285  -42.9284 H         1 UNK         0.0695 
     78 H78        18.7051  -28.2061  -41.6949 H         1 UNK         0.0983 
     79 H79        18.9191  -26.3692  -43.7575 H         1 UNK         0.3095 
     80 H80        21.6677  -25.9025  -44.7017 H         1 UNK         0.0454 
     81 H81        21.9703  -28.9263  -45.1263 H         1 UNK         0.0851 
     82 H82        23.1876  -27.8480  -44.4568 H         1 UNK         0.0851 
     83 H83        22.7018  -27.6795  -46.1337 H         1 UNK         0.0851 
     84 H84        19.7034  -27.8827  -45.8022 H         1 UNK         0.2976 
     85 H85        20.1010  -28.3435  -40.0875 H         1 UNK         0.3116 
     86 H86        21.3352  -28.0188  -38.3045 H         1 UNK         0.0646 
     87 H87        19.7210  -25.4816  -37.7187 H         1 UNK         0.0847 
     88 H88        19.2397  -27.1134  -37.2555 H         1 UNK         0.0847 
     89 H89        20.6880  -26.3956  -36.5735 H         1 UNK         0.0847 
     90 H90        22.0032  -26.5932  -40.9569 H         1 UNK         0.3040 
     91 H91        23.8251  -24.4397  -40.1030 H         1 UNK         0.1015 
     92 H92        24.2680  -24.2203  -42.5115 H         1 UNK         0.0786 
     93 H93        22.5302  -24.3123  -42.2681 H         1 UNK         0.0786 
     94 H94        23.4202  -25.7171  -42.8608 H         1 UNK         0.0786 
     95 H95        23.9272  -27.8869  -40.7284 H         1 UNK         0.3172 
     96 H96        26.6333  -28.1443  -39.8007 H         1 UNK         0.0595 
     97 H97        25.9443  -28.9487  -42.6985 H         1 UNK         0.0839 
     98 H98        27.4264  -29.3805  -41.8583 H         1 UNK         0.0839 
     99 H99        27.0988  -27.6984  -42.2379 H         1 UNK         0.0839 
    100 H100       27.1098  -30.4642  -39.5136 H         1 UNK         0.2998 
    101 H101       24.8024  -32.0420  -38.7009 H         1 UNK         0.0822 
    102 H102       26.5596  -33.7008  -38.0539 H         1 UNK         0.0787 
    103 H103       27.7963  -32.7262  -38.8349 H         1 UNK         0.0787 
    104 H104       26.9458  -32.1108  -37.4168 H         1 UNK         0.0787 
    105 H105       24.1093  -33.9634  -39.6268 H         1 UNK         0.3055 
    106 H106       23.4149  -35.3518  -41.2158 H         1 UNK         0.1106 
    107 H107       25.7224  -36.2895  -41.0259 H         1 UNK         0.0828 
    108 H108       25.0773  -36.4791  -42.6475 H         1 UNK         0.0828 
    109 H109       26.2698  -35.2316  -42.3253 H         1 UNK         0.0828 
    110 H110       22.4597  -32.9472  -41.6281 H         1 UNK         0.2931 
    111 H111       22.8921  -31.8038  -44.1743 H         1 UNK         0.0412 
    112 H112       20.4096  -34.8246  -45.1388 H         1 UNK         0.3472 
    113 H113       21.2243  -34.7974  -43.5958 H         1 UNK         0.3472 
    114 H114       21.9857  -30.3351  -42.6431 H         1 UNK         0.0970 
    115 H115       20.6404  -30.6076  -43.6942 H         1 UNK         0.0970 
    116 H116       19.0471  -33.0990  -42.8349 H         1 UNK         0.0612 
    117 H117       18.2440  -32.7555  -41.3354 H         1 UNK         0.0612 
@<TRIPOS>BOND
     1    1    2 1    
     2    1   62 1    
     3    1   63 1    
     4    1   64 1    
     5    2    3 2    
     6    2    4 am   BACKBONE|DICT|INTERRES
     7    4    5 1    
     8    4   65 1    
     9    5    6 1    
    10    5   25 1    
    11    5   66 1    
    12    6    7 1    
    13    6   67 1    
    14    6   68 1    
    15    7    8 1    
    16    8    9 1    
    17    8   69 1    
    18    8   70 1    
    19    9   10 ar   
    20    9   14 ar   
    21   10   11 ar   
    22   10   71 1    
    23   11   12 ar   
    24   11   61 1    
    25   12   13 ar   
    26   12   72 1    
    27   13   14 ar   
    28   13   15 1    
    29   14   73 1    
    30   15   16 1    
    31   15   74 1    
    32   15   75 1    
    33   16   17 1    
    34   17   18 1    
    35   17   76 1    
    36   17   77 1    
    37   18   19 1    
    38   18   27 1    
    39   18   78 1    
    40   19   20 am   BACKBONE|DICT|INTERRES
    41   19   79 1    
    42   20   21 2    
    43   20   22 1    
    44   22   23 1    
    45   22   24 1    
    46   22   80 1    
    47   23   81 1    
    48   23   82 1    
    49   23   83 1    
    50   24   25 am   BACKBONE|DICT|INTERRES
    51   24   84 1    
    52   25   26 2    
    53   27   28 2    
    54   27   29 am   BACKBONE|DICT|INTERRES
    55   29   30 1    
    56   29   85 1    
    57   30   31 1    
    58   30   32 1    
    59   30   86 1    
    60   31   87 1    
    61   31   88 1    
    62   31   89 1    
    63   32   33 2    
    64   32   34 am   BACKBONE|DICT|INTERRES
    65   34   35 1    
    66   34   90 1    
    67   35   36 1    
    68   35   37 1    
    69   35   91 1    
    70   36   92 1    
    71   36   93 1    
    72   36   94 1    
    73   37   38 2    
    74   37   39 am   BACKBONE|DICT|INTERRES
    75   39   40 1    
    76   39   95 1    
    77   40   41 1    
    78   40   42 1    
    79   40   96 1    
    80   41   97 1    
    81   41   98 1    
    82   41   99 1    
    83   42   43 2    
    84   42   44 am   BACKBONE|DICT|INTERRES
    85   44   45 1    
    86   44  100 1    
    87   45   46 1    
    88   45   47 1    
    89   45  101 1    
    90   46  102 1    
    91   46  103 1    
    92   46  104 1    
    93   47   48 2    
    94   47   49 am   BACKBONE|DICT|INTERRES
    95   49   50 1    
    96   49  105 1    
    97   50   51 1    
    98   50   52 1    
    99   50  106 1    
   100   51  107 1    
   101   51  108 1    
   102   51  109 1    
   103   52   53 2    
   104   52   54 am   BACKBONE|DICT|INTERRES
   105   54   55 1    
   106   54  110 1    
   107   55   56 1    
   108   55   59 1    
   109   55  111 1    
   110   56   57 am   BACKBONE|DICT|INTERRES
   111   56   58 2    
   112   57  112 1    
   113   57  113 1    
   114   59   60 1    
   115   59  114 1    
   116   59  115 1    
   117   60   61 1    
   118   61  116 1    
   119   61  117 1    
@<TRIPOS>SUBSTRUCTURE
     1 UNK         1 GROUP             0       ****    0 ROOT    
