@<TRIPOS>MOLECULE
3R8
117   119    1
SMALL
USER_CHARGES


@<TRIPOS>ATOM
      1 CA         14.5663  -28.5939  -39.8811 C.3       0 UNK        -0.2013 
      2 C          15.0956  -27.7158  -41.0050 C.2       0 UNK         0.4866 
      3 O          14.7988  -26.5213  -41.0354 O.2       0 UNK        -0.5176 
      4 N          15.8703  -28.2969  -41.9304 N.am      1 UNK        -0.4884 
      5 CA         16.4713  -27.5942  -43.0718 C.3       1 UNK         0.0853 
      6 C6         16.9826  -28.5592  -44.1660 C.3       10 UNK        -0.0849 
      7 S7         15.6963  -29.6861  -44.8107 S.3       10 UNK        -0.2776 
      8 C8         16.3579  -30.1117  -46.4601 C.3       10 UNK         0.0316 
      9 C9         17.8256  -30.5083  -46.3883 C.ar      10 UNK        -0.0863 
     10 C10        18.2004  -31.7333  -45.8348 C.ar      10 UNK        -0.1009 
     11 C11        19.5510  -32.0434  -45.6444 C.ar      10 UNK        -0.0712 
     12 C12        20.5329  -31.1281  -46.0422 C.ar      10 UNK        -0.0894 
     13 C13        20.1665  -29.9094  -46.6252 C.ar      10 UNK        -0.0745 
     14 C14        18.8127  -29.6163  -46.8106 C.ar      10 UNK        -0.0972 
     15 C15        21.2162  -28.8949  -47.0559 C.3       10 UNK         0.0209 
     16 S16        21.0057  -27.2993  -46.1960 S.3       10 UNK        -0.2568 
     17 C17        22.3158  -27.3903  -44.9396 C.3       10 UNK        -0.0983 
     18 CA         22.1529  -26.2921  -43.8597 C.3       3 UNK         0.0876 
     19 N          21.0965  -26.6431  -42.9032 N.am      3 UNK        -0.4424 
     20 C          20.5713  -25.8048  -42.0010 C.2       2 UNK         0.4918 
     21 O          20.8590  -24.6077  -41.9317 O.2       2 UNK        -0.4875 
     22 CA         19.5441  -26.4150  -41.0239 C.3       2 UNK         0.0481 
     23 CB         18.9770  -25.3802  -40.0303 C.3       2 UNK        -0.1831 
     24 N          18.4455  -27.1279  -41.6889 N.am      2 UNK        -0.4498 
     25 C          17.6067  -26.6499  -42.6252 C.2       1 UNK         0.5027 
     26 O          17.6812  -25.5237  -43.1181 O.2       1 UNK        -0.4969 
     27 C          23.4979  -26.0083  -43.1521 C.2       3 UNK         0.5005 
     28 O          23.7243  -26.4760  -42.0344 O.2       3 UNK        -0.5279 
     29 N          24.3787  -25.2543  -43.8297 N.am      4 UNK        -0.4463 
     30 CA         25.7143  -24.8773  -43.3428 C.3       4 UNK         0.0283 
     31 CB         26.3338  -23.8430  -44.2965 C.3       4 UNK        -0.1875 
     32 C          26.6674  -26.0729  -43.1537 C.2       4 UNK         0.4949 
     33 O          27.5271  -26.0306  -42.2734 O.2       4 UNK        -0.5039 
     34 N          26.4746  -27.1190  -43.9624 N.am      5 UNK        -0.4663 
     35 CA         27.0257  -28.4556  -43.7718 C.3       5 UNK         0.0242 
     36 CB         27.9174  -28.8212  -44.9695 C.3       5 UNK        -0.1982 
     37 C          25.8223  -29.3990  -43.6728 C.2       5 UNK         0.5017 
     38 O          24.8586  -29.2072  -44.4166 O.2       5 UNK        -0.5012 
     39 N          25.8929  -30.3798  -42.7627 N.am      6 UNK        -0.4439 
     40 CA         24.7933  -31.2674  -42.3577 C.3       6 UNK         0.0297 
     41 CB         24.3037  -32.1500  -43.5274 C.3       6 UNK        -0.2006 
     42 C          23.6540  -30.4896  -41.6668 C.2       6 UNK         0.4892 
     43 O          22.4840  -30.6403  -42.0201 O.2       6 UNK        -0.5089 
     44 N          24.0209  -29.6854  -40.6569 N.am      7 UNK        -0.4243 
     45 CA         23.0972  -28.8986  -39.8271 C.3       7 UNK         0.0196 
     46 CB         23.9045  -27.9965  -38.8806 C.3       7 UNK        -0.2007 
     47 C          22.0906  -29.7500  -39.0322 C.2       7 UNK         0.5020 
     48 O          21.0125  -29.2587  -38.6974 O.2       7 UNK        -0.5147 
     49 N          22.4337  -31.0247  -38.7933 N.am      8 UNK        -0.4734 
     50 CA         21.5748  -32.0513  -38.1951 C.3       8 UNK         0.0238 
     51 CB         22.3882  -33.3444  -38.0214 C.3       8 UNK        -0.1912 
     52 C          20.2789  -32.3331  -38.9815 C.2       8 UNK         0.5038 
     53 O          19.3334  -32.8578  -38.3915 O.2       8 UNK        -0.5046 
     54 N          20.2395  -31.9659  -40.2713 N.am      9 UNK        -0.4200 
     55 CA         19.0201  -31.9616  -41.0914 C.3       9 UNK         0.0839 
     56 C          17.9841  -30.8718  -40.6842 C.2       9 UNK         0.5513 
     57 N          18.3215  -29.8882  -39.8549 N.am      9 UNK        -0.7519 
     58 O          16.8468  -30.9120  -41.1442 O.2       9 UNK        -0.4960 
     59 C59        19.3282  -31.8522  -42.6042 C.3       10 UNK        -0.0876 
     60 S60        20.4821  -33.1217  -43.2359 S.3       10 UNK        -0.2414 
     61 C61        19.9323  -33.3516  -44.9621 C.3       10 UNK         0.0169 
     62 H62        15.0384  -28.3225  -38.9374 H         1 UNK         0.0903 
     63 H63        13.4903  -28.4589  -39.7748 H         1 UNK         0.0903 
     64 H64        14.7531  -29.6512  -40.0662 H         1 UNK         0.0903 
     65 H65        16.0834  -29.2886  -41.8509 H         1 UNK         0.3096 
     66 H66        15.6945  -26.9691  -43.5189 H         1 UNK         0.1121 
     67 H67        17.3823  -27.9804  -45.0010 H         1 UNK         0.0849 
     68 H68        17.8078  -29.1685  -43.7915 H         1 UNK         0.0849 
     69 H69        15.7747  -30.9318  -46.8813 H         1 UNK         0.0865 
     70 H70        16.2196  -29.2618  -47.1304 H         1 UNK         0.0865 
     71 H71        17.4357  -32.4214  -45.5005 H         1 UNK         0.1346 
     72 H72        21.5767  -31.3592  -45.8784 H         1 UNK         0.1412 
     73 H73        18.5296  -28.6657  -47.2423 H         1 UNK         0.1426 
     74 H74        22.2255  -29.2778  -46.8948 H         1 UNK         0.0716 
     75 H75        21.1202  -28.7279  -48.1295 H         1 UNK         0.0716 
     76 H76        23.2627  -27.2907  -45.4736 H         1 UNK         0.0695 
     77 H77        22.3211  -28.3840  -44.4862 H         1 UNK         0.0695 
     78 H78        21.8544  -25.3606  -44.3465 H         1 UNK         0.0983 
     79 H79        20.8139  -27.6110  -42.8916 H         1 UNK         0.3095 
     80 H80        20.0850  -27.1626  -40.4418 H         1 UNK         0.0454 
     81 H81        18.3027  -25.8478  -39.3130 H         1 UNK         0.0851 
     82 H82        18.4268  -24.5890  -40.5406 H         1 UNK         0.0851 
     83 H83        19.7768  -24.9062  -39.4600 H         1 UNK         0.0851 
     84 H84        18.2862  -28.0719  -41.3639 H         1 UNK         0.2976 
     85 H85        24.1193  -24.9062  -44.7423 H         1 UNK         0.3116 
     86 H86        25.5873  -24.4060  -42.3658 H         1 UNK         0.0646 
     87 H87        25.7158  -22.9480  -44.3700 H         1 UNK         0.0847 
     88 H88        27.3161  -23.5265  -43.9426 H         1 UNK         0.0847 
     89 H89        26.4655  -24.2462  -45.3014 H         1 UNK         0.0847 
     90 H90        25.6951  -27.0819  -44.6056 H         1 UNK         0.3040 
     91 H91        27.6101  -28.5093  -42.8504 H         1 UNK         0.1015 
     92 H92        27.3609  -28.8080  -45.9078 H         1 UNK         0.0786 
     93 H93        28.3375  -29.8209  -44.8521 H         1 UNK         0.0786 
     94 H94        28.7520  -28.1266  -45.0662 H         1 UNK         0.0786 
     95 H95        26.7453  -30.4706  -42.2263 H         1 UNK         0.3172 
     96 H96        25.2063  -31.9375  -41.6022 H         1 UNK         0.0595 
     97 H97        23.7802  -31.5705  -44.2884 H         1 UNK         0.0839 
     98 H98        23.6058  -32.9084  -43.1710 H         1 UNK         0.0839 
     99 H99        25.1309  -32.6705  -44.0091 H         1 UNK         0.0839 
    100 H100       25.0028  -29.6029  -40.4384 H         1 UNK         0.2998 
    101 H101       22.5150  -28.2627  -40.4966 H         1 UNK         0.0822 
    102 H102       24.5528  -27.3198  -39.4380 H         1 UNK         0.0787 
    103 H103       23.2422  -27.3781  -38.2730 H         1 UNK         0.0787 
    104 H104       24.5269  -28.5777  -38.1991 H         1 UNK         0.0787 
    105 H105       23.3440  -31.3279  -39.1068 H         1 UNK         0.3055 
    106 H106       21.2751  -31.6939  -37.2075 H         1 UNK         0.1106 
    107 H107       23.2613  -33.1842  -37.3886 H         1 UNK         0.0828 
    108 H108       21.7878  -34.1229  -37.5481 H         1 UNK         0.0828 
    109 H109       22.7321  -33.7367  -38.9794 H         1 UNK         0.0828 
    110 H110       21.0607  -31.5543  -40.6998 H         1 UNK         0.2931 
    111 H111       18.5258  -32.9220  -40.9332 H         1 UNK         0.0412 
    112 H112       19.2554  -29.8335  -39.4608 H         1 UNK         0.3472 
    113 H113       17.6161  -29.2432  -39.5413 H         1 UNK         0.3472 
    114 H114       18.3916  -31.9300  -43.1570 H         1 UNK         0.0970 
    115 H115       19.7470  -30.8724  -42.8428 H         1 UNK         0.0970 
    116 H116       20.7302  -33.8376  -45.5250 H         1 UNK         0.0612 
    117 H117       19.0893  -34.0443  -44.9686 H         1 UNK         0.0612 
@<TRIPOS>BOND
     1    1    2 1    
     2    1   62 1    
     3    1   63 1    
     4    1   64 1    
     5    2    3 2    
     6    2    4 am   BACKBONE|DICT|INTERRES
     7    4    5 1    
     8    4   65 1    
     9    5    6 1    
    10    5   25 1    
    11    5   66 1    
    12    6    7 1    
    13    6   67 1    
    14    6   68 1    
    15    7    8 1    
    16    8    9 1    
    17    8   69 1    
    18    8   70 1    
    19    9   10 ar   
    20    9   14 ar   
    21   10   11 ar   
    22   10   71 1    
    23   11   12 ar   
    24   11   61 1    
    25   12   13 ar   
    26   12   72 1    
    27   13   14 ar   
    28   13   15 1    
    29   14   73 1    
    30   15   16 1    
    31   15   74 1    
    32   15   75 1    
    33   16   17 1    
    34   17   18 1    
    35   17   76 1    
    36   17   77 1    
    37   18   19 1    
    38   18   27 1    
    39   18   78 1    
    40   19   20 am   BACKBONE|DICT|INTERRES
    41   19   79 1    
    42   20   21 2    
    43   20   22 1    
    44   22   23 1    
    45   22   24 1    
    46   22   80 1    
    47   23   81 1    
    48   23   82 1    
    49   23   83 1    
    50   24   25 am   BACKBONE|DICT|INTERRES
    51   24   84 1    
    52   25   26 2    
    53   27   28 2    
    54   27   29 am   BACKBONE|DICT|INTERRES
    55   29   30 1    
    56   29   85 1    
    57   30   31 1    
    58   30   32 1    
    59   30   86 1    
    60   31   87 1    
    61   31   88 1    
    62   31   89 1    
    63   32   33 2    
    64   32   34 am   BACKBONE|DICT|INTERRES
    65   34   35 1    
    66   34   90 1    
    67   35   36 1    
    68   35   37 1    
    69   35   91 1    
    70   36   92 1    
    71   36   93 1    
    72   36   94 1    
    73   37   38 2    
    74   37   39 am   BACKBONE|DICT|INTERRES
    75   39   40 1    
    76   39   95 1    
    77   40   41 1    
    78   40   42 1    
    79   40   96 1    
    80   41   97 1    
    81   41   98 1    
    82   41   99 1    
    83   42   43 2    
    84   42   44 am   BACKBONE|DICT|INTERRES
    85   44   45 1    
    86   44  100 1    
    87   45   46 1    
    88   45   47 1    
    89   45  101 1    
    90   46  102 1    
    91   46  103 1    
    92   46  104 1    
    93   47   48 2    
    94   47   49 am   BACKBONE|DICT|INTERRES
    95   49   50 1    
    96   49  105 1    
    97   50   51 1    
    98   50   52 1    
    99   50  106 1    
   100   51  107 1    
   101   51  108 1    
   102   51  109 1    
   103   52   53 2    
   104   52   54 am   BACKBONE|DICT|INTERRES
   105   54   55 1    
   106   54  110 1    
   107   55   56 1    
   108   55   59 1    
   109   55  111 1    
   110   56   57 am   BACKBONE|DICT|INTERRES
   111   56   58 2    
   112   57  112 1    
   113   57  113 1    
   114   59   60 1    
   115   59  114 1    
   116   59  115 1    
   117   60   61 1    
   118   61  116 1    
   119   61  117 1    
@<TRIPOS>SUBSTRUCTURE
     1 UNK         1 GROUP             0       ****    0 ROOT    
