@<TRIPOS>MOLECULE
3R8
117   119    1
SMALL
USER_CHARGES


@<TRIPOS>ATOM
      1 CA         15.9697  -22.5613  -47.7762 C.3       0 UNK        -0.2013 
      2 C          16.6289  -23.9291  -47.8712 C.2       0 UNK         0.4866 
      3 O          16.6109  -24.5458  -48.9367 O.2       0 UNK        -0.5176 
      4 N          17.2116  -24.4074  -46.7680 N.am      1 UNK        -0.4884 
      5 CA         17.9238  -25.6791  -46.6649 C.3       1 UNK         0.0853 
      6 C6         16.9524  -26.8767  -46.4960 C.3       10 UNK        -0.0849 
      7 S7         17.7055  -28.4624  -46.9905 S.3       10 UNK        -0.2776 
      8 C8         16.4289  -29.6421  -46.4504 C.3       10 UNK         0.0316 
      9 C9         16.5145  -29.9302  -44.9581 C.ar      10 UNK        -0.0863 
     10 C10        17.3993  -30.9037  -44.4851 C.ar      10 UNK        -0.1009 
     11 C11        17.4657  -31.1995  -43.1203 C.ar      10 UNK        -0.0712 
     12 C12        16.6296  -30.5241  -42.2286 C.ar      10 UNK        -0.0894 
     13 C13        15.7715  -29.5189  -42.6833 C.ar      10 UNK        -0.0745 
     14 C14        15.7058  -29.2374  -44.0517 C.ar      10 UNK        -0.0972 
     15 C15        14.9366  -28.7188  -41.6925 C.3       10 UNK         0.0209 
     16 S16        15.9654  -27.8702  -40.4456 S.3       10 UNK        -0.2568 
     17 C17        17.0849  -26.8624  -41.4796 C.3       10 UNK        -0.0983 
     18 CA         18.5126  -27.4646  -41.5765 C.3       3 UNK         0.0876 
     19 N          19.2505  -26.8835  -42.6998 N.am      3 UNK        -0.4424 
     20 C          20.4522  -27.2559  -43.1610 C.2       2 UNK         0.4918 
     21 O          21.1495  -28.1218  -42.6304 O.2       2 UNK        -0.4875 
     22 CA         20.9584  -26.5375  -44.4320 C.3       2 UNK         0.0481 
     23 CB         22.1985  -27.2213  -45.0400 C.3       2 UNK        -0.1831 
     24 N          19.9312  -26.4306  -45.4743 N.am      2 UNK        -0.4498 
     25 C          18.9089  -25.5669  -45.4893 C.2       1 UNK         0.5027 
     26 O          18.7066  -24.7368  -44.5972 O.2       1 UNK        -0.4969 
     27 C          19.3084  -27.3403  -40.2606 C.2       3 UNK         0.5005 
     28 O          19.2911  -26.2790  -39.6329 O.2       3 UNK        -0.5279 
     29 N          20.0368  -28.4135  -39.9132 N.am      4 UNK        -0.4463 
     30 CA         20.9802  -28.5317  -38.7942 C.3       4 UNK         0.0283 
     31 CB         20.2326  -28.4892  -37.4450 C.3       4 UNK        -0.1875 
     32 C          22.1514  -27.5260  -38.8552 C.2       4 UNK         0.4949 
     33 O          22.7393  -27.2139  -37.8188 O.2       4 UNK        -0.5039 
     34 N          22.4813  -27.0381  -40.0608 N.am      5 UNK        -0.4663 
     35 CA         23.5498  -26.0577  -40.2919 C.3       5 UNK         0.0242 
     36 CB         23.2611  -25.2959  -41.5946 C.3       5 UNK        -0.1982 
     37 C          24.9490  -26.6966  -40.3370 C.2       5 UNK         0.5017 
     38 O          25.9450  -25.9875  -40.1902 O.2       5 UNK        -0.5012 
     39 N          24.9959  -28.0160  -40.5361 N.am      6 UNK        -0.4439 
     40 CA         26.1787  -28.8646  -40.5291 C.3       6 UNK         0.0297 
     41 CB         26.8098  -28.8891  -41.9330 C.3       6 UNK        -0.2006 
     42 C          25.7266  -30.2640  -40.1019 C.2       6 UNK         0.4892 
     43 O          24.5354  -30.5716  -40.2040 O.2       6 UNK        -0.5089 
     44 N          26.6805  -31.1006  -39.6725 N.am      7 UNK        -0.4243 
     45 CA         26.4444  -32.4831  -39.2325 C.3       7 UNK         0.0196 
     46 CB         27.7526  -33.0705  -38.6786 C.3       7 UNK        -0.2007 
     47 C          25.8626  -33.4010  -40.3248 C.2       7 UNK         0.5020 
     48 O          25.1450  -34.3473  -40.0012 O.2       7 UNK        -0.5147 
     49 N          26.1623  -33.0945  -41.5943 N.am      8 UNK        -0.4734 
     50 CA         25.6005  -33.7672  -42.7684 C.3       8 UNK         0.0238 
     51 CB         26.5070  -33.4923  -43.9799 C.3       8 UNK        -0.1912 
     52 C          24.1501  -33.3492  -43.0809 C.2       8 UNK         0.5038 
     53 O          23.4713  -34.0761  -43.8078 O.2       8 UNK        -0.5046 
     54 N          23.7052  -32.2027  -42.5431 N.am      9 UNK        -0.4200 
     55 CA         22.3959  -31.5782  -42.7846 C.3       9 UNK         0.0839 
     56 C          22.1750  -31.1548  -44.2724 C.2       9 UNK         0.5513 
     57 N          20.9464  -30.8645  -44.6761 N.am      9 UNK        -0.7519 
     58 O          23.1139  -31.0417  -45.0587 O.2       9 UNK        -0.4960 
     59 C59        21.2459  -32.4255  -42.1632 C.3       10 UNK        -0.0876 
     60 S60        19.8009  -31.4220  -41.6767 S.3       10 UNK        -0.2414 
     61 C61        18.4541  -32.2299  -42.6020 C.3       10 UNK         0.0169 
     62 H62        14.9103  -22.6378  -48.0197 H         1 UNK         0.0903 
     63 H63        16.0577  -22.1347  -46.7772 H         1 UNK         0.0903 
     64 H64        16.4327  -21.8716  -48.4815 H         1 UNK         0.0903 
     65 H65        17.2512  -23.8550  -45.9186 H         1 UNK         0.3096 
     66 H66        18.5102  -25.8065  -47.5783 H         1 UNK         0.1121 
     67 H67        16.5813  -26.9374  -45.4718 H         1 UNK         0.0849 
     68 H68        16.0712  -26.7380  -47.1245 H         1 UNK         0.0849 
     69 H69        15.4394  -29.2663  -46.7159 H         1 UNK         0.0865 
     70 H70        16.5547  -30.5721  -47.0070 H         1 UNK         0.0865 
     71 H71        18.0364  -31.4290  -45.1836 H         1 UNK         0.1346 
     72 H72        16.6849  -30.7451  -41.1712 H         1 UNK         0.1412 
     73 H73        15.0299  -28.4737  -44.4114 H         1 UNK         0.1426 
     74 H74        14.2452  -29.3917  -41.1837 H         1 UNK         0.0716 
     75 H75        14.3239  -27.9769  -42.2069 H         1 UNK         0.0716 
     76 H76        17.1109  -25.8452  -41.0847 H         1 UNK         0.0695 
     77 H77        16.6465  -26.7759  -42.4752 H         1 UNK         0.0695 
     78 H78        18.4128  -28.5255  -41.8079 H         1 UNK         0.0983 
     79 H79        18.8008  -26.1106  -43.1781 H         1 UNK         0.3095 
     80 H80        21.2509  -25.5303  -44.1289 H         1 UNK         0.0454 
     81 H81        21.9682  -28.2253  -45.3965 H         1 UNK         0.0851 
     82 H82        23.0046  -27.3183  -44.3127 H         1 UNK         0.0851 
     83 H83        22.5937  -26.6507  -45.8803 H         1 UNK         0.0851 
     84 H84        19.9730  -27.1246  -46.2082 H         1 UNK         0.2976 
     85 H85        20.0217  -29.2082  -40.5419 H         1 UNK         0.3116 
     86 H86        21.4330  -29.5200  -38.8891 H         1 UNK         0.0646 
     87 H87        19.8073  -27.5044  -37.2495 H         1 UNK         0.0847 
     88 H88        20.9028  -28.7233  -36.6170 H         1 UNK         0.0847 
     89 H89        19.4215  -29.2167  -37.4174 H         1 UNK         0.0847 
     90 H90        21.9665  -27.3651  -40.8720 H         1 UNK         0.3040 
     91 H91        23.5476  -25.3371  -39.4707 H         1 UNK         0.1015 
     92 H92        23.9912  -24.5003  -41.7499 H         1 UNK         0.0786 
     93 H93        22.2749  -24.8314  -41.5752 H         1 UNK         0.0786 
     94 H94        23.3101  -25.9532  -42.4613 H         1 UNK         0.0786 
     95 H95        24.1254  -28.5324  -40.5828 H         1 UNK         0.3172 
     96 H96        26.8978  -28.4880  -39.7985 H         1 UNK         0.0595 
     97 H97        27.7026  -29.5151  -41.9547 H         1 UNK         0.0839 
     98 H98        27.1111  -27.8900  -42.2486 H         1 UNK         0.0839 
     99 H99        26.1167  -29.2788  -42.6802 H         1 UNK         0.0839 
    100 H100       27.6338  -30.7686  -39.6269 H         1 UNK         0.2998 
    101 H101       25.7144  -32.4482  -38.4208 H         1 UNK         0.0822 
    102 H102       27.6016  -34.0897  -38.3198 H         1 UNK         0.0787 
    103 H103       28.5339  -33.1054  -39.4390 H         1 UNK         0.0787 
    104 H104       28.1264  -32.4861  -37.8376 H         1 UNK         0.0787 
    105 H105       26.7762  -32.3113  -41.7644 H         1 UNK         0.3055 
    106 H106       25.5933  -34.8439  -42.5825 H         1 UNK         0.1106 
    107 H107       26.1384  -34.0084  -44.8676 H         1 UNK         0.0828 
    108 H108       26.5518  -32.4289  -44.2184 H         1 UNK         0.0828 
    109 H109       27.5243  -33.8425  -43.8038 H         1 UNK         0.0828 
    110 H110       24.3107  -31.6922  -41.9124 H         1 UNK         0.2931 
    111 H111       22.4528  -30.6386  -42.2334 H         1 UNK         0.0412 
    112 H112       20.1854  -30.8807  -44.0138 H         1 UNK         0.3472 
    113 H113       20.7923  -30.5799  -45.6295 H         1 UNK         0.3472 
    114 H114       20.9641  -33.2411  -42.8305 H         1 UNK         0.0970 
    115 H115       21.5971  -32.9093  -41.2503 H         1 UNK         0.0970 
    116 H116       17.9436  -32.9374  -41.9472 H         1 UNK         0.0612 
    117 H117       18.8515  -32.8122  -43.4341 H         1 UNK         0.0612 
@<TRIPOS>BOND
     1    1    2 1    
     2    1   62 1    
     3    1   63 1    
     4    1   64 1    
     5    2    3 2    
     6    2    4 am   BACKBONE|DICT|INTERRES
     7    4    5 1    
     8    4   65 1    
     9    5    6 1    
    10    5   25 1    
    11    5   66 1    
    12    6    7 1    
    13    6   67 1    
    14    6   68 1    
    15    7    8 1    
    16    8    9 1    
    17    8   69 1    
    18    8   70 1    
    19    9   10 ar   
    20    9   14 ar   
    21   10   11 ar   
    22   10   71 1    
    23   11   12 ar   
    24   11   61 1    
    25   12   13 ar   
    26   12   72 1    
    27   13   14 ar   
    28   13   15 1    
    29   14   73 1    
    30   15   16 1    
    31   15   74 1    
    32   15   75 1    
    33   16   17 1    
    34   17   18 1    
    35   17   76 1    
    36   17   77 1    
    37   18   19 1    
    38   18   27 1    
    39   18   78 1    
    40   19   20 am   BACKBONE|DICT|INTERRES
    41   19   79 1    
    42   20   21 2    
    43   20   22 1    
    44   22   23 1    
    45   22   24 1    
    46   22   80 1    
    47   23   81 1    
    48   23   82 1    
    49   23   83 1    
    50   24   25 am   BACKBONE|DICT|INTERRES
    51   24   84 1    
    52   25   26 2    
    53   27   28 2    
    54   27   29 am   BACKBONE|DICT|INTERRES
    55   29   30 1    
    56   29   85 1    
    57   30   31 1    
    58   30   32 1    
    59   30   86 1    
    60   31   87 1    
    61   31   88 1    
    62   31   89 1    
    63   32   33 2    
    64   32   34 am   BACKBONE|DICT|INTERRES
    65   34   35 1    
    66   34   90 1    
    67   35   36 1    
    68   35   37 1    
    69   35   91 1    
    70   36   92 1    
    71   36   93 1    
    72   36   94 1    
    73   37   38 2    
    74   37   39 am   BACKBONE|DICT|INTERRES
    75   39   40 1    
    76   39   95 1    
    77   40   41 1    
    78   40   42 1    
    79   40   96 1    
    80   41   97 1    
    81   41   98 1    
    82   41   99 1    
    83   42   43 2    
    84   42   44 am   BACKBONE|DICT|INTERRES
    85   44   45 1    
    86   44  100 1    
    87   45   46 1    
    88   45   47 1    
    89   45  101 1    
    90   46  102 1    
    91   46  103 1    
    92   46  104 1    
    93   47   48 2    
    94   47   49 am   BACKBONE|DICT|INTERRES
    95   49   50 1    
    96   49  105 1    
    97   50   51 1    
    98   50   52 1    
    99   50  106 1    
   100   51  107 1    
   101   51  108 1    
   102   51  109 1    
   103   52   53 2    
   104   52   54 am   BACKBONE|DICT|INTERRES
   105   54   55 1    
   106   54  110 1    
   107   55   56 1    
   108   55   59 1    
   109   55  111 1    
   110   56   57 am   BACKBONE|DICT|INTERRES
   111   56   58 2    
   112   57  112 1    
   113   57  113 1    
   114   59   60 1    
   115   59  114 1    
   116   59  115 1    
   117   60   61 1    
   118   61  116 1    
   119   61  117 1    
@<TRIPOS>SUBSTRUCTURE
     1 UNK         1 GROUP             0       ****    0 ROOT    
