@<TRIPOS>MOLECULE
3R8
117   119    1
SMALL
USER_CHARGES


@<TRIPOS>ATOM
      1 CA         18.2175  -25.8767  -39.1739 C.3       0 UNK        -0.2013 
      2 C          17.8266  -25.3991  -40.5638 C.2       0 UNK         0.4866 
      3 O          17.1902  -24.3534  -40.7005 O.2       0 UNK        -0.5176 
      4 N          18.1954  -26.1671  -41.5932 N.am      1 UNK        -0.4884 
      5 CA         17.9647  -25.8507  -43.0045 C.3       1 UNK         0.0853 
      6 C6         17.9953  -27.1344  -43.8675 C.3       10 UNK        -0.0849 
      7 S7         16.5883  -28.2490  -43.5366 S.3       10 UNK        -0.2776 
      8 C8         17.4194  -29.7363  -42.8714 C.3       10 UNK         0.0316 
      9 C9         18.5112  -30.3481  -43.7553 C.ar      10 UNK        -0.0863 
     10 C10        19.4447  -31.2020  -43.1613 C.ar      10 UNK        -0.1009 
     11 C11        20.4672  -31.7863  -43.9144 C.ar      10 UNK        -0.0712 
     12 C12        20.5945  -31.4580  -45.2673 C.ar      10 UNK        -0.0894 
     13 C13        19.6902  -30.5800  -45.8717 C.ar      10 UNK        -0.0745 
     14 C14        18.6246  -30.0717  -45.1245 C.ar      10 UNK        -0.0972 
     15 C15        19.8835  -30.1488  -47.3209 C.3       10 UNK         0.0209 
     16 S16        20.0857  -28.3389  -47.4917 S.3       10 UNK        -0.2568 
     17 C17        21.4951  -28.0080  -46.3793 C.3       10 UNK        -0.0983 
     18 CA         21.9579  -26.5269  -46.3965 C.3       3 UNK         0.0876 
     19 N          20.8633  -25.6124  -46.0545 N.am      3 UNK        -0.4424 
     20 C          20.9217  -24.2723  -46.0604 C.2       2 UNK         0.4918 
     21 O          21.8878  -23.6332  -46.4796 O.2       2 UNK        -0.4875 
     22 CA         19.6961  -23.5046  -45.5193 C.3       2 UNK         0.0481 
     23 CB         18.9314  -22.8357  -46.6734 C.3       2 UNK        -0.1831 
     24 N          18.7655  -24.3401  -44.7512 N.am      2 UNK        -0.4498 
     25 C          19.0060  -24.8386  -43.5288 C.2       1 UNK         0.5027 
     26 O          20.0114  -24.5676  -42.8677 O.2       1 UNK        -0.4969 
     27 C          23.1414  -26.3464  -45.4221 C.2       3 UNK         0.5005 
     28 O          22.9179  -26.0915  -44.2364 O.2       3 UNK        -0.5279 
     29 N          24.3747  -26.5426  -45.9120 N.am      4 UNK        -0.4463 
     30 CA         25.6206  -26.4032  -45.1395 C.3       4 UNK         0.0283 
     31 CB         26.8226  -26.6101  -46.0752 C.3       4 UNK        -0.1875 
     32 C          25.7292  -27.3350  -43.9149 C.2       4 UNK         0.4949 
     33 O          26.4528  -27.0162  -42.9717 O.2       4 UNK        -0.5039 
     34 N          24.9944  -28.4535  -43.9456 N.am      5 UNK        -0.4663 
     35 CA         24.8508  -29.4079  -42.8460 C.3       5 UNK         0.0242 
     36 CB         24.3549  -30.7349  -43.4335 C.3       5 UNK        -0.1982 
     37 C          23.9135  -28.9316  -41.7168 C.2       5 UNK         0.5017 
     38 O          23.8990  -29.5654  -40.6605 O.2       5 UNK        -0.5012 
     39 N          23.1540  -27.8471  -41.9425 N.am      6 UNK        -0.4439 
     40 CA         22.2273  -27.1940  -41.0135 C.3       6 UNK         0.0297 
     41 CB         23.0010  -26.4715  -39.8886 C.3       6 UNK        -0.2006 
     42 C          21.1295  -28.1388  -40.4914 C.2       6 UNK         0.4892 
     43 O          20.0995  -28.2809  -41.1498 O.2       6 UNK        -0.5089 
     44 N          21.3533  -28.7336  -39.3134 N.am      7 UNK        -0.4243 
     45 CA         20.4178  -29.6138  -38.6118 C.3       7 UNK         0.0196 
     46 CB         20.0665  -28.9695  -37.2576 C.3       7 UNK        -0.2007 
     47 C          20.9778  -31.0329  -38.4052 C.2       7 UNK         0.5020 
     48 O          20.3291  -31.8263  -37.7221 O.2       7 UNK        -0.5147 
     49 N          22.1541  -31.3523  -38.9718 N.am      8 UNK        -0.4734 
     50 CA         22.8760  -32.6172  -38.7455 C.3       8 UNK         0.0238 
     51 CB         24.2481  -32.5522  -39.4346 C.3       8 UNK        -0.1912 
     52 C          22.1270  -33.8953  -39.1729 C.2       8 UNK         0.5038 
     53 O          22.4430  -34.9732  -38.6674 O.2       8 UNK        -0.5046 
     54 N          21.1533  -33.7518  -40.0784 N.am      9 UNK        -0.4200 
     55 CA         20.2394  -34.8153  -40.5189 C.3       9 UNK         0.0839 
     56 C          19.1079  -35.1346  -39.4969 C.2       9 UNK         0.5513 
     57 N          18.9158  -34.3586  -38.4355 N.am      9 UNK        -0.7519 
     58 O          18.3909  -36.1169  -39.6691 O.2       9 UNK        -0.4960 
     59 C59        19.6529  -34.5180  -41.9253 C.3       10 UNK        -0.0876 
     60 S60        20.9199  -34.4650  -43.2408 S.3       10 UNK        -0.2414 
     61 C61        21.4684  -32.7269  -43.2589 C.3       10 UNK         0.0169 
     62 H62        19.0815  -25.3197  -38.8127 H         1 UNK         0.0903 
     63 H63        17.3949  -25.7266  -38.4751 H         1 UNK         0.0903 
     64 H64        18.4664  -26.9374  -39.1751 H         1 UNK         0.0903 
     65 H65        18.7707  -26.9903  -41.4250 H         1 UNK         0.3096 
     66 H66        16.9809  -25.3851  -43.1014 H         1 UNK         0.1121 
     67 H67        17.9491  -26.9028  -44.9329 H         1 UNK         0.0849 
     68 H68        18.9415  -27.6581  -43.7166 H         1 UNK         0.0849 
     69 H69        16.6618  -30.4978  -42.6830 H         1 UNK         0.0865 
     70 H70        17.8406  -29.4774  -41.8990 H         1 UNK         0.0865 
     71 H71        19.3758  -31.4037  -42.1020 H         1 UNK         0.1346 
     72 H72        21.4099  -31.8727  -45.8441 H         1 UNK         0.1412 
     73 H73        17.9191  -29.4147  -45.6122 H         1 UNK         0.1426 
     74 H74        19.0193  -30.4660  -47.9059 H         1 UNK         0.0716 
     75 H75        20.7520  -30.6415  -47.7606 H         1 UNK         0.0716 
     76 H76        22.3135  -28.6691  -46.6710 H         1 UNK         0.0695 
     77 H77        21.2079  -28.3016  -45.3670 H         1 UNK         0.0695 
     78 H78        22.2955  -26.2716  -47.4032 H         1 UNK         0.0983 
     79 H79        20.0270  -26.0495  -45.7043 H         1 UNK         0.3095 
     80 H80        20.0706  -22.7187  -44.8601 H         1 UNK         0.0454 
     81 H81        18.1045  -22.2288  -46.3043 H         1 UNK         0.0851 
     82 H82        18.5264  -23.5703  -47.3705 H         1 UNK         0.0851 
     83 H83        19.5851  -22.1737  -47.2432 H         1 UNK         0.0851 
     84 H84        17.9064  -24.5927  -45.2198 H         1 UNK         0.2976 
     85 H85        24.4790  -26.7675  -46.8918 H         1 UNK         0.3116 
     86 H86        25.6549  -25.3785  -44.7634 H         1 UNK         0.0646 
     87 H87        27.7630  -26.4843  -45.5364 H         1 UNK         0.0847 
     88 H88        26.8224  -25.8871  -46.8910 H         1 UNK         0.0847 
     89 H89        26.8291  -27.6104  -46.5100 H         1 UNK         0.0847 
     90 H90        24.4457  -28.6315  -44.7734 H         1 UNK         0.3040 
     91 H91        25.8326  -29.5740  -42.3968 H         1 UNK         0.1015 
     92 H92        25.0591  -31.1351  -44.1633 H         1 UNK         0.0786 
     93 H93        23.3920  -30.6082  -43.9289 H         1 UNK         0.0786 
     94 H94        24.2348  -31.4894  -42.6565 H         1 UNK         0.0786 
     95 H95        23.2203  -27.3918  -42.8500 H         1 UNK         0.3172 
     96 H96        21.7133  -26.4261  -41.5941 H         1 UNK         0.0595 
     97 H97        23.6408  -27.1457  -39.3187 H         1 UNK         0.0839 
     98 H98        22.3172  -25.9905  -39.1877 H         1 UNK         0.0839 
     99 H99        23.6384  -25.6887  -40.3000 H         1 UNK         0.0839 
    100 H100       22.2499  -28.5842  -38.8714 H         1 UNK         0.2998 
    101 H101       19.4964  -29.7243  -39.1873 H         1 UNK         0.0822 
    102 H102       19.6712  -27.9621  -37.3826 H         1 UNK         0.0787 
    103 H103       19.3069  -29.5489  -36.7309 H         1 UNK         0.0787 
    104 H104       20.9381  -28.9051  -36.6050 H         1 UNK         0.0787 
    105 H105       22.6323  -30.6591  -39.5414 H         1 UNK         0.3055 
    106 H106       23.0427  -32.7023  -37.6694 H         1 UNK         0.1106 
    107 H107       24.8291  -33.4546  -39.2391 H         1 UNK         0.0828 
    108 H108       24.1488  -32.4570  -40.5154 H         1 UNK         0.0828 
    109 H109       24.8353  -31.7070  -39.0751 H         1 UNK         0.0828 
    110 H110       20.9545  -32.8217  -40.4100 H         1 UNK         0.2931 
    111 H111       20.8243  -35.7334  -40.6029 H         1 UNK         0.0412 
    112 H112       18.1800  -34.5900  -37.7872 H         1 UNK         0.3472 
    113 H113       19.4942  -33.5421  -38.2648 H         1 UNK         0.3472 
    114 H114       18.9540  -35.3069  -42.2101 H         1 UNK         0.0970 
    115 H115       19.0629  -33.6037  -41.9194 H         1 UNK         0.0970 
    116 H116       22.4043  -32.7053  -43.8161 H         1 UNK         0.0612 
    117 H117       21.7119  -32.3803  -42.2557 H         1 UNK         0.0612 
@<TRIPOS>BOND
     1    1    2 1    
     2    1   62 1    
     3    1   63 1    
     4    1   64 1    
     5    2    3 2    
     6    2    4 am   BACKBONE|DICT|INTERRES
     7    4    5 1    
     8    4   65 1    
     9    5    6 1    
    10    5   25 1    
    11    5   66 1    
    12    6    7 1    
    13    6   67 1    
    14    6   68 1    
    15    7    8 1    
    16    8    9 1    
    17    8   69 1    
    18    8   70 1    
    19    9   10 ar   
    20    9   14 ar   
    21   10   11 ar   
    22   10   71 1    
    23   11   12 ar   
    24   11   61 1    
    25   12   13 ar   
    26   12   72 1    
    27   13   14 ar   
    28   13   15 1    
    29   14   73 1    
    30   15   16 1    
    31   15   74 1    
    32   15   75 1    
    33   16   17 1    
    34   17   18 1    
    35   17   76 1    
    36   17   77 1    
    37   18   19 1    
    38   18   27 1    
    39   18   78 1    
    40   19   20 am   BACKBONE|DICT|INTERRES
    41   19   79 1    
    42   20   21 2    
    43   20   22 1    
    44   22   23 1    
    45   22   24 1    
    46   22   80 1    
    47   23   81 1    
    48   23   82 1    
    49   23   83 1    
    50   24   25 am   BACKBONE|DICT|INTERRES
    51   24   84 1    
    52   25   26 2    
    53   27   28 2    
    54   27   29 am   BACKBONE|DICT|INTERRES
    55   29   30 1    
    56   29   85 1    
    57   30   31 1    
    58   30   32 1    
    59   30   86 1    
    60   31   87 1    
    61   31   88 1    
    62   31   89 1    
    63   32   33 2    
    64   32   34 am   BACKBONE|DICT|INTERRES
    65   34   35 1    
    66   34   90 1    
    67   35   36 1    
    68   35   37 1    
    69   35   91 1    
    70   36   92 1    
    71   36   93 1    
    72   36   94 1    
    73   37   38 2    
    74   37   39 am   BACKBONE|DICT|INTERRES
    75   39   40 1    
    76   39   95 1    
    77   40   41 1    
    78   40   42 1    
    79   40   96 1    
    80   41   97 1    
    81   41   98 1    
    82   41   99 1    
    83   42   43 2    
    84   42   44 am   BACKBONE|DICT|INTERRES
    85   44   45 1    
    86   44  100 1    
    87   45   46 1    
    88   45   47 1    
    89   45  101 1    
    90   46  102 1    
    91   46  103 1    
    92   46  104 1    
    93   47   48 2    
    94   47   49 am   BACKBONE|DICT|INTERRES
    95   49   50 1    
    96   49  105 1    
    97   50   51 1    
    98   50   52 1    
    99   50  106 1    
   100   51  107 1    
   101   51  108 1    
   102   51  109 1    
   103   52   53 2    
   104   52   54 am   BACKBONE|DICT|INTERRES
   105   54   55 1    
   106   54  110 1    
   107   55   56 1    
   108   55   59 1    
   109   55  111 1    
   110   56   57 am   BACKBONE|DICT|INTERRES
   111   56   58 2    
   112   57  112 1    
   113   57  113 1    
   114   59   60 1    
   115   59  114 1    
   116   59  115 1    
   117   60   61 1    
   118   61  116 1    
   119   61  117 1    
@<TRIPOS>SUBSTRUCTURE
     1 UNK         1 GROUP             0       ****    0 ROOT    
