@<TRIPOS>MOLECULE
3R8
117   119    1
SMALL
USER_CHARGES


@<TRIPOS>ATOM
      1 CA         24.7925  -26.6308  -45.2957 C.3       0 UNK        -0.2013 
      2 C          23.9097  -27.8694  -45.3191 C.2       0 UNK         0.4866 
      3 O          24.2086  -28.8199  -46.0420 O.2       0 UNK        -0.5176 
      4 N          22.8351  -27.8636  -44.5272 N.am      1 UNK        -0.4884 
      5 CA         21.9003  -28.9661  -44.3203 C.3       1 UNK         0.0853 
      6 C6         21.0445  -29.2888  -45.5726 C.3       10 UNK        -0.0849 
      7 S7         19.9939  -27.9179  -46.1827 S.3       10 UNK        -0.2776 
      8 C8         18.7627  -28.8151  -47.1898 C.3       10 UNK         0.0316 
      9 C9         17.7736  -29.5465  -46.2975 C.ar      10 UNK        -0.0863 
     10 C10        18.0179  -30.8648  -45.9130 C.ar      10 UNK        -0.1009 
     11 C11        17.2344  -31.4801  -44.9337 C.ar      10 UNK        -0.0712 
     12 C12        16.1203  -30.8020  -44.4262 C.ar      10 UNK        -0.0894 
     13 C13        15.8144  -29.5100  -44.8711 C.ar      10 UNK        -0.0745 
     14 C14        16.6502  -28.8849  -45.8007 C.ar      10 UNK        -0.0972 
     15 C15        14.5867  -28.7824  -44.3449 C.3       10 UNK         0.0209 
     16 S16        14.8801  -28.0164  -42.7209 S.3       10 UNK        -0.2568 
     17 C17        16.0055  -26.6330  -43.1215 C.3       10 UNK        -0.0983 
     18 CA         17.1956  -26.5696  -42.1337 C.3       3 UNK         0.0876 
     19 N          18.0317  -27.7763  -42.1837 N.am      3 UNK        -0.4424 
     20 C          18.6100  -28.3227  -41.1070 C.2       2 UNK         0.4918 
     21 O          18.4739  -27.8893  -39.9626 O.2       2 UNK        -0.4875 
     22 CA         19.5078  -29.5531  -41.3262 C.3       2 UNK         0.0481 
     23 CB         18.6896  -30.8375  -41.1261 C.3       2 UNK        -0.1831 
     24 N          20.2331  -29.6080  -42.6067 N.am      2 UNK        -0.4498 
     25 C          21.0756  -28.6611  -43.0510 C.2       1 UNK         0.5027 
     26 O          21.2231  -27.5745  -42.4832 O.2       1 UNK        -0.4969 
     27 C          18.0200  -25.2697  -42.2872 C.2       3 UNK         0.5005 
     28 O          17.4348  -24.1864  -42.2197 O.2       3 UNK        -0.5279 
     29 N          19.3468  -25.3772  -42.4589 N.am      4 UNK        -0.4463 
     30 CA         20.3028  -24.2752  -42.3521 C.3       4 UNK         0.0283 
     31 CB         21.3306  -24.3686  -43.4996 C.3       4 UNK        -0.1875 
     32 C          20.9180  -24.3107  -40.9383 C.2       4 UNK         0.4949 
     33 O          20.1670  -24.3664  -39.9624 O.2       4 UNK        -0.5039 
     34 N          22.2521  -24.2673  -40.8282 N.am      5 UNK        -0.4663 
     35 CA         22.9746  -24.2657  -39.5524 C.3       5 UNK         0.0242 
     36 CB         23.0519  -22.8278  -38.9963 C.3       5 UNK        -0.1982 
     37 C          24.3542  -24.9341  -39.6811 C.2       5 UNK         0.5017 
     38 O          25.3140  -24.4725  -39.0609 O.2       5 UNK        -0.5012 
     39 N          24.4451  -26.0013  -40.4843 N.am      6 UNK        -0.4439 
     40 CA         25.6663  -26.7711  -40.7208 C.3       6 UNK         0.0297 
     41 CB         26.5908  -26.0131  -41.6944 C.3       6 UNK        -0.2006 
     42 C          25.2970  -28.1460  -41.2862 C.2       6 UNK         0.4892 
     43 O          24.1853  -28.3125  -41.7884 O.2       6 UNK        -0.5089 
     44 N          26.2450  -29.0907  -41.2129 N.am      7 UNK        -0.4243 
     45 CA         26.2637  -30.4416  -41.8026 C.3       7 UNK         0.0196 
     46 CB         26.2121  -30.3640  -43.3403 C.3       7 UNK        -0.2007 
     47 C          25.2093  -31.4426  -41.2877 C.2       7 UNK         0.5020 
     48 O          25.5345  -32.6235  -41.1580 O.2       7 UNK        -0.5147 
     49 N          23.9853  -30.9723  -41.0179 N.am      8 UNK        -0.4734 
     50 CA         22.7816  -31.7427  -40.6785 C.3       8 UNK         0.0238 
     51 CB         22.9601  -32.5004  -39.3428 C.3       8 UNK        -0.1912 
     52 C          22.3123  -32.6392  -41.8461 C.2       8 UNK         0.5038 
     53 O          22.6576  -32.3666  -42.9985 O.2       8 UNK        -0.5046 
     54 N          21.5030  -33.6586  -41.5351 N.am      9 UNK        -0.4200 
     55 CA         20.9826  -34.6693  -42.4684 C.3       9 UNK         0.0839 
     56 C          21.0930  -36.0747  -41.8265 C.2       9 UNK         0.5513 
     57 N          21.2069  -37.1181  -42.6362 N.am      9 UNK        -0.7519 
     58 O          21.0470  -36.2319  -40.6072 O.2       9 UNK        -0.4960 
     59 C59        19.5199  -34.3804  -42.9106 C.3       10 UNK        -0.0876 
     60 S60        19.3879  -32.8494  -43.8835 S.3       10 UNK        -0.2414 
     61 C61        17.6356  -32.8478  -44.3921 C.3       10 UNK         0.0169 
     62 H62        24.4079  -25.8686  -44.6185 H         1 UNK         0.0903 
     63 H63        25.7987  -26.8967  -44.9726 H         1 UNK         0.0903 
     64 H64        24.8572  -26.1971  -46.2932 H         1 UNK         0.0903 
     65 H65        22.6619  -27.0958  -43.8910 H         1 UNK         0.3096 
     66 H66        22.5011  -29.8469  -44.0814 H         1 UNK         0.1121 
     67 H67        20.4382  -30.1622  -45.3545 H         1 UNK         0.0849 
     68 H68        21.6925  -29.5981  -46.3933 H         1 UNK         0.0849 
     69 H69        18.2341  -28.1032  -47.8256 H         1 UNK         0.0865 
     70 H70        19.2680  -29.5103  -47.8623 H         1 UNK         0.0865 
     71 H71        18.8722  -31.3908  -46.3161 H         1 UNK         0.1346 
     72 H72        15.4971  -31.2704  -43.6766 H         1 UNK         0.1412 
     73 H73        16.4427  -27.8734  -46.1218 H         1 UNK         0.1426 
     74 H74        13.7600  -29.4885  -44.2542 H         1 UNK         0.0716 
     75 H75        14.2562  -28.0191  -45.0512 H         1 UNK         0.0716 
     76 H76        15.4142  -25.7167  -43.0739 H         1 UNK         0.0695 
     77 H77        16.3650  -26.7051  -44.1466 H         1 UNK         0.0695 
     78 H78        16.7558  -26.4965  -41.1362 H         1 UNK         0.0983 
     79 H79        18.1730  -28.1991  -43.0901 H         1 UNK         0.3095 
     80 H80        20.2636  -29.5158  -40.5404 H         1 UNK         0.0454 
     81 H81        17.9479  -30.9677  -41.9146 H         1 UNK         0.0851 
     82 H82        18.1514  -30.8160  -40.1775 H         1 UNK         0.0851 
     83 H83        19.3270  -31.7201  -41.1077 H         1 UNK         0.0851 
     84 H84        20.1366  -30.4639  -43.1374 H         1 UNK         0.2976 
     85 H85        19.7641  -26.3038  -42.4507 H         1 UNK         0.3116 
     86 H86        19.7875  -23.3178  -42.4500 H         1 UNK         0.0646 
     87 H87        21.9613  -25.2524  -43.4213 H         1 UNK         0.0847 
     88 H88        21.9819  -23.4939  -43.5172 H         1 UNK         0.0847 
     89 H89        20.8310  -24.4092  -44.4678 H         1 UNK         0.0847 
     90 H90        22.8179  -24.2226  -41.6645 H         1 UNK         0.3040 
     91 H91        22.4255  -24.8765  -38.8320 H         1 UNK         0.1015 
     92 H92        23.6126  -22.1710  -39.6622 H         1 UNK         0.0786 
     93 H93        23.5433  -22.8064  -38.0226 H         1 UNK         0.0786 
     94 H94        22.0591  -22.3988  -38.8603 H         1 UNK         0.0786 
     95 H95        23.6164  -26.3871  -40.9239 H         1 UNK         0.3172 
     96 H96        26.1808  -26.9240  -39.7696 H         1 UNK         0.0595 
     97 H97        27.4900  -26.5883  -41.9188 H         1 UNK         0.0839 
     98 H98        26.9185  -25.0616  -41.2757 H         1 UNK         0.0839 
     99 H99        26.0919  -25.8052  -42.6409 H         1 UNK         0.0839 
    100 H100       27.0975  -28.8409  -40.7302 H         1 UNK         0.2998 
    101 H101       27.2354  -30.8584  -41.5322 H         1 UNK         0.0822 
    102 H102       26.3605  -31.3488  -43.7853 H         1 UNK         0.0787 
    103 H103       25.2477  -29.9967  -43.6910 H         1 UNK         0.0787 
    104 H104       26.9871  -29.7075  -43.7356 H         1 UNK         0.0787 
    105 H105       23.8395  -29.9856  -41.2270 H         1 UNK         0.3055 
    106 H106       21.9950  -31.0043  -40.5326 H         1 UNK         0.1106 
    107 H107       22.0064  -32.8624  -38.9578 H         1 UNK         0.0828 
    108 H108       23.6208  -33.3619  -39.4472 H         1 UNK         0.0828 
    109 H109       23.3817  -31.8512  -38.5754 H         1 UNK         0.0828 
    110 H110       21.3061  -33.8532  -40.5633 H         1 UNK         0.2931 
    111 H111       21.6157  -34.6830  -43.3583 H         1 UNK         0.0412 
    112 H112       21.2399  -37.0012  -43.6375 H         1 UNK         0.3472 
    113 H113       21.2687  -38.0428  -42.2384 H         1 UNK         0.3472 
    114 H114       18.8618  -34.3070  -42.0429 H         1 UNK         0.0970 
    115 H115       19.1344  -35.1978  -43.5232 H         1 UNK         0.0970 
    116 H116       17.4760  -33.6076  -45.1580 H         1 UNK         0.0612 
    117 H117       17.0154  -33.1182  -43.5361 H         1 UNK         0.0612 
@<TRIPOS>BOND
     1    1    2 1    
     2    1   62 1    
     3    1   63 1    
     4    1   64 1    
     5    2    3 2    
     6    2    4 am   BACKBONE|DICT|INTERRES
     7    4    5 1    
     8    4   65 1    
     9    5    6 1    
    10    5   25 1    
    11    5   66 1    
    12    6    7 1    
    13    6   67 1    
    14    6   68 1    
    15    7    8 1    
    16    8    9 1    
    17    8   69 1    
    18    8   70 1    
    19    9   10 ar   
    20    9   14 ar   
    21   10   11 ar   
    22   10   71 1    
    23   11   12 ar   
    24   11   61 1    
    25   12   13 ar   
    26   12   72 1    
    27   13   14 ar   
    28   13   15 1    
    29   14   73 1    
    30   15   16 1    
    31   15   74 1    
    32   15   75 1    
    33   16   17 1    
    34   17   18 1    
    35   17   76 1    
    36   17   77 1    
    37   18   19 1    
    38   18   27 1    
    39   18   78 1    
    40   19   20 am   BACKBONE|DICT|INTERRES
    41   19   79 1    
    42   20   21 2    
    43   20   22 1    
    44   22   23 1    
    45   22   24 1    
    46   22   80 1    
    47   23   81 1    
    48   23   82 1    
    49   23   83 1    
    50   24   25 am   BACKBONE|DICT|INTERRES
    51   24   84 1    
    52   25   26 2    
    53   27   28 2    
    54   27   29 am   BACKBONE|DICT|INTERRES
    55   29   30 1    
    56   29   85 1    
    57   30   31 1    
    58   30   32 1    
    59   30   86 1    
    60   31   87 1    
    61   31   88 1    
    62   31   89 1    
    63   32   33 2    
    64   32   34 am   BACKBONE|DICT|INTERRES
    65   34   35 1    
    66   34   90 1    
    67   35   36 1    
    68   35   37 1    
    69   35   91 1    
    70   36   92 1    
    71   36   93 1    
    72   36   94 1    
    73   37   38 2    
    74   37   39 am   BACKBONE|DICT|INTERRES
    75   39   40 1    
    76   39   95 1    
    77   40   41 1    
    78   40   42 1    
    79   40   96 1    
    80   41   97 1    
    81   41   98 1    
    82   41   99 1    
    83   42   43 2    
    84   42   44 am   BACKBONE|DICT|INTERRES
    85   44   45 1    
    86   44  100 1    
    87   45   46 1    
    88   45   47 1    
    89   45  101 1    
    90   46  102 1    
    91   46  103 1    
    92   46  104 1    
    93   47   48 2    
    94   47   49 am   BACKBONE|DICT|INTERRES
    95   49   50 1    
    96   49  105 1    
    97   50   51 1    
    98   50   52 1    
    99   50  106 1    
   100   51  107 1    
   101   51  108 1    
   102   51  109 1    
   103   52   53 2    
   104   52   54 am   BACKBONE|DICT|INTERRES
   105   54   55 1    
   106   54  110 1    
   107   55   56 1    
   108   55   59 1    
   109   55  111 1    
   110   56   57 am   BACKBONE|DICT|INTERRES
   111   56   58 2    
   112   57  112 1    
   113   57  113 1    
   114   59   60 1    
   115   59  114 1    
   116   59  115 1    
   117   60   61 1    
   118   61  116 1    
   119   61  117 1    
@<TRIPOS>SUBSTRUCTURE
     1 UNK         1 GROUP             0       ****    0 ROOT    
