@<TRIPOS>MOLECULE
3R8
117   119    1
SMALL
USER_CHARGES


@<TRIPOS>ATOM
      1 CA         13.8759  -23.5296  -45.5747 C.3       0 UNK        -0.2013 
      2 C          14.7741  -24.1769  -44.5305 C.2       0 UNK         0.4866 
      3 O          14.9198  -23.6316  -43.4359 O.2       0 UNK        -0.5176 
      4 N          15.3642  -25.3326  -44.8685 N.am      1 UNK        -0.4884 
      5 CA         16.2958  -26.1322  -44.0562 C.3       1 UNK         0.0853 
      6 C6         15.6657  -26.6553  -42.7291 C.3       10 UNK        -0.0849 
      7 S7         14.5259  -28.0389  -43.0622 S.3       10 UNK        -0.2776 
      8 C8         15.4937  -29.4721  -42.4718 C.3       10 UNK         0.0316 
      9 C9         16.8919  -29.5458  -43.0793 C.ar      10 UNK        -0.0863 
     10 C10        18.0202  -29.5223  -42.2530 C.ar      10 UNK        -0.1009 
     11 C11        19.3040  -29.6107  -42.7996 C.ar      10 UNK        -0.0712 
     12 C12        19.4579  -29.7112  -44.1852 C.ar      10 UNK        -0.0894 
     13 C13        18.3396  -29.7047  -45.0242 C.ar      10 UNK        -0.0745 
     14 C14        17.0600  -29.6442  -44.4638 C.ar      10 UNK        -0.0972 
     15 C15        18.5033  -29.7652  -46.5357 C.3       10 UNK         0.0209 
     16 S16        18.8949  -28.1272  -47.2375 S.3       10 UNK        -0.2568 
     17 C17        20.7204  -28.1090  -47.1552 C.3       10 UNK        -0.0983 
     18 CA         21.3129  -26.8955  -46.3863 C.3       3 UNK         0.0876 
     19 N          20.7287  -26.7689  -45.0448 N.am      3 UNK        -0.4424 
     20 C          20.7759  -25.6990  -44.2399 C.2       2 UNK         0.4918 
     21 O          21.3761  -24.6575  -44.5134 O.2       2 UNK        -0.4875 
     22 CA         19.9826  -25.8225  -42.9264 C.3       2 UNK         0.0481 
     23 CB         20.1052  -24.5800  -42.0203 C.3       2 UNK        -0.1831 
     24 N          18.5778  -26.1688  -43.1725 N.am      2 UNK        -0.4498 
     25 C          17.6705  -25.4530  -43.8577 C.2       1 UNK         0.5027 
     26 O          17.9040  -24.3493  -44.3572 O.2       1 UNK        -0.4969 
     27 C          22.8616  -26.9474  -46.3525 C.2       3 UNK         0.5005 
     28 O          23.4511  -27.9593  -46.7376 O.2       3 UNK        -0.5279 
     29 N          23.4911  -25.8676  -45.8648 N.am      4 UNK        -0.4463 
     30 CA         24.9339  -25.6922  -45.6395 C.3       4 UNK         0.0283 
     31 CB         25.7062  -25.6796  -46.9761 C.3       4 UNK        -0.1875 
     32 C          25.5144  -26.6970  -44.6212 C.2       4 UNK         0.4949 
     33 O          26.6812  -27.0792  -44.7240 O.2       4 UNK        -0.5039 
     34 N          24.6868  -27.1021  -43.6525 N.am      5 UNK        -0.4663 
     35 CA         24.9826  -28.0683  -42.6014 C.3       5 UNK         0.0242 
     36 CB         24.9263  -29.4999  -43.1735 C.3       5 UNK        -0.1982 
     37 C          23.9517  -27.8921  -41.4811 C.2       5 UNK         0.5017 
     38 O          22.9278  -27.2348  -41.6881 O.2       5 UNK        -0.5012 
     39 N          24.2251  -28.5134  -40.3324 N.am      6 UNK        -0.4439 
     40 CA         23.3289  -28.6291  -39.1885 C.3       6 UNK         0.0297 
     41 CB         23.4419  -27.3842  -38.2917 C.3       6 UNK        -0.2006 
     42 C          23.7196  -29.9010  -38.4302 C.2       6 UNK         0.4892 
     43 O          24.8950  -30.2782  -38.4582 O.2       6 UNK        -0.5089 
     44 N          22.7339  -30.5374  -37.7822 N.am      7 UNK        -0.4243 
     45 CA         22.8012  -31.7783  -36.9913 C.3       7 UNK         0.0196 
     46 CB         23.7348  -31.6265  -35.7741 C.3       7 UNK        -0.2007 
     47 C          23.1484  -33.0389  -37.8057 C.2       7 UNK         0.5020 
     48 O          22.4099  -34.0218  -37.7430 O.2       7 UNK        -0.5147 
     49 N          24.2390  -32.9854  -38.5808 N.am      8 UNK        -0.4734 
     50 CA         24.7280  -34.0532  -39.4629 C.3       8 UNK         0.0238 
     51 CB         26.1024  -33.6490  -40.0206 C.3       8 UNK        -0.1912 
     52 C          23.7640  -34.4041  -40.6114 C.2       8 UNK         0.5038 
     53 O          23.8351  -35.5121  -41.1442 O.2       8 UNK        -0.5046 
     54 N          22.8768  -33.4631  -40.9532 N.am      9 UNK        -0.4200 
     55 CA         21.7412  -33.6413  -41.8654 C.3       9 UNK         0.0839 
     56 C          20.6015  -34.5552  -41.3215 C.2       9 UNK         0.5513 
     57 N          20.5756  -34.9113  -40.0413 N.am      9 UNK        -0.7519 
     58 O          19.7295  -34.9612  -42.0853 O.2       9 UNK        -0.4960 
     59 C59        21.2026  -32.2714  -42.3553 C.3       10 UNK        -0.0876 
     60 S60        20.7458  -31.1430  -40.9914 S.3       10 UNK        -0.2414 
     61 C61        20.5238  -29.5808  -41.8915 C.3       10 UNK         0.0169 
     62 H62        13.8194  -24.1198  -46.4892 H         1 UNK         0.0903 
     63 H63        12.8657  -23.4165  -45.1822 H         1 UNK         0.0903 
     64 H64        14.2540  -22.5407  -45.8327 H         1 UNK         0.0903 
     65 H65        15.2030  -25.6977  -45.7970 H         1 UNK         0.3096 
     66 H66        16.5301  -26.9928  -44.6829 H         1 UNK         0.1121 
     67 H67        16.4118  -26.9950  -42.0106 H         1 UNK         0.0849 
     68 H68        15.1189  -25.8697  -42.2078 H         1 UNK         0.0849 
     69 H69        15.5466  -29.4326  -41.3826 H         1 UNK         0.0865 
     70 H70        14.9531  -30.3876  -42.7158 H         1 UNK         0.0865 
     71 H71        17.9045  -29.4505  -41.1797 H         1 UNK         0.1346 
     72 H72        20.4493  -29.7904  -44.6090 H         1 UNK         0.1412 
     73 H73        16.1894  -29.6545  -45.1059 H         1 UNK         0.1426 
     74 H74        17.5801  -30.1217  -46.9953 H         1 UNK         0.0716 
     75 H75        19.2687  -30.4935  -46.8076 H         1 UNK         0.0716 
     76 H76        21.0877  -28.1110  -48.1832 H         1 UNK         0.0695 
     77 H77        21.0709  -29.0446  -46.7175 H         1 UNK         0.0695 
     78 H78        21.0442  -25.9953  -46.9437 H         1 UNK         0.0983 
     79 H79        20.1770  -27.5585  -44.7441 H         1 UNK         0.3095 
     80 H80        20.4132  -26.6622  -42.3824 H         1 UNK         0.0454 
     81 H81        21.1478  -24.3969  -41.7575 H         1 UNK         0.0851 
     82 H82        19.5557  -24.7130  -41.0887 H         1 UNK         0.0851 
     83 H83        19.7304  -23.6790  -42.5065 H         1 UNK         0.0851 
     84 H84        18.2999  -27.0827  -42.8406 H         1 UNK         0.2976 
     85 H85        22.8941  -25.1249  -45.5049 H         1 UNK         0.3116 
     86 H86        25.0496  -24.7069  -45.1857 H         1 UNK         0.0646 
     87 H87        25.6969  -26.6571  -47.4590 H         1 UNK         0.0847 
     88 H88        25.2832  -24.9563  -47.6730 H         1 UNK         0.0847 
     89 H89        26.7504  -25.4054  -46.8218 H         1 UNK         0.0847 
     90 H90        23.7574  -26.7046  -43.5909 H         1 UNK         0.3040 
     91 H91        25.9761  -27.8646  -42.1958 H         1 UNK         0.1015 
     92 H92        25.6634  -29.6425  -43.9638 H         1 UNK         0.0786 
     93 H93        25.1338  -30.2455  -42.4050 H         1 UNK         0.0786 
     94 H94        23.9442  -29.7254  -43.5917 H         1 UNK         0.0786 
     95 H95        25.0726  -29.0613  -40.2380 H         1 UNK         0.3172 
     96 H96        22.3014  -28.7328  -39.5424 H         1 UNK         0.0595 
     97 H97        24.4588  -27.2457  -37.9224 H         1 UNK         0.0839 
     98 H98        22.7864  -27.4655  -37.4237 H         1 UNK         0.0839 
     99 H99        23.1551  -26.4805  -38.8299 H         1 UNK         0.0839 
    100 H100       21.8054  -30.1445  -37.8602 H         1 UNK         0.2998 
    101 H101       21.7920  -31.9316  -36.6047 H         1 UNK         0.0822 
    102 H102       23.7039  -32.5191  -35.1477 H         1 UNK         0.0787 
    103 H103       23.4376  -30.7833  -35.1505 H         1 UNK         0.0787 
    104 H104       24.7739  -31.4750  -36.0677 H         1 UNK         0.0787 
    105 H105       24.7568  -32.1083  -38.5786 H         1 UNK         0.3055 
    106 H106       24.8488  -34.9551  -38.8589 H         1 UNK         0.1106 
    107 H107       26.0440  -32.7353  -40.6137 H         1 UNK         0.0828 
    108 H108       26.8227  -33.4833  -39.2193 H         1 UNK         0.0828 
    109 H109       26.5096  -34.4307  -40.6635 H         1 UNK         0.0828 
    110 H110       22.8886  -32.5935  -40.4421 H         1 UNK         0.2931 
    111 H111       22.1285  -34.1582  -42.7456 H         1 UNK         0.0412 
    112 H112       21.2783  -34.5823  -39.3898 H         1 UNK         0.3472 
    113 H113       19.8323  -35.5075  -39.7137 H         1 UNK         0.3472 
    114 H114       21.9656  -31.7833  -42.9636 H         1 UNK         0.0970 
    115 H115       20.3411  -32.4041  -43.0131 H         1 UNK         0.0970 
    116 H116       20.4148  -28.7729  -41.1670 H         1 UNK         0.0612 
    117 H117       21.4269  -29.3625  -42.4625 H         1 UNK         0.0612 
@<TRIPOS>BOND
     1    1    2 1    
     2    1   62 1    
     3    1   63 1    
     4    1   64 1    
     5    2    3 2    
     6    2    4 am   BACKBONE|DICT|INTERRES
     7    4    5 1    
     8    4   65 1    
     9    5    6 1    
    10    5   25 1    
    11    5   66 1    
    12    6    7 1    
    13    6   67 1    
    14    6   68 1    
    15    7    8 1    
    16    8    9 1    
    17    8   69 1    
    18    8   70 1    
    19    9   10 ar   
    20    9   14 ar   
    21   10   11 ar   
    22   10   71 1    
    23   11   12 ar   
    24   11   61 1    
    25   12   13 ar   
    26   12   72 1    
    27   13   14 ar   
    28   13   15 1    
    29   14   73 1    
    30   15   16 1    
    31   15   74 1    
    32   15   75 1    
    33   16   17 1    
    34   17   18 1    
    35   17   76 1    
    36   17   77 1    
    37   18   19 1    
    38   18   27 1    
    39   18   78 1    
    40   19   20 am   BACKBONE|DICT|INTERRES
    41   19   79 1    
    42   20   21 2    
    43   20   22 1    
    44   22   23 1    
    45   22   24 1    
    46   22   80 1    
    47   23   81 1    
    48   23   82 1    
    49   23   83 1    
    50   24   25 am   BACKBONE|DICT|INTERRES
    51   24   84 1    
    52   25   26 2    
    53   27   28 2    
    54   27   29 am   BACKBONE|DICT|INTERRES
    55   29   30 1    
    56   29   85 1    
    57   30   31 1    
    58   30   32 1    
    59   30   86 1    
    60   31   87 1    
    61   31   88 1    
    62   31   89 1    
    63   32   33 2    
    64   32   34 am   BACKBONE|DICT|INTERRES
    65   34   35 1    
    66   34   90 1    
    67   35   36 1    
    68   35   37 1    
    69   35   91 1    
    70   36   92 1    
    71   36   93 1    
    72   36   94 1    
    73   37   38 2    
    74   37   39 am   BACKBONE|DICT|INTERRES
    75   39   40 1    
    76   39   95 1    
    77   40   41 1    
    78   40   42 1    
    79   40   96 1    
    80   41   97 1    
    81   41   98 1    
    82   41   99 1    
    83   42   43 2    
    84   42   44 am   BACKBONE|DICT|INTERRES
    85   44   45 1    
    86   44  100 1    
    87   45   46 1    
    88   45   47 1    
    89   45  101 1    
    90   46  102 1    
    91   46  103 1    
    92   46  104 1    
    93   47   48 2    
    94   47   49 am   BACKBONE|DICT|INTERRES
    95   49   50 1    
    96   49  105 1    
    97   50   51 1    
    98   50   52 1    
    99   50  106 1    
   100   51  107 1    
   101   51  108 1    
   102   51  109 1    
   103   52   53 2    
   104   52   54 am   BACKBONE|DICT|INTERRES
   105   54   55 1    
   106   54  110 1    
   107   55   56 1    
   108   55   59 1    
   109   55  111 1    
   110   56   57 am   BACKBONE|DICT|INTERRES
   111   56   58 2    
   112   57  112 1    
   113   57  113 1    
   114   59   60 1    
   115   59  114 1    
   116   59  115 1    
   117   60   61 1    
   118   61  116 1    
   119   61  117 1    
@<TRIPOS>SUBSTRUCTURE
     1 UNK         1 GROUP             0       ****    0 ROOT    
