@<TRIPOS>MOLECULE
3R8
117   119    1
SMALL
USER_CHARGES


@<TRIPOS>ATOM
      1 CA         16.8395  -22.5678  -43.8061 C.3       0 UNK        -0.2013 
      2 C          17.2829  -23.3506  -42.5723 C.2       0 UNK         0.4866 
      3 O          17.4011  -22.7633  -41.4991 O.2       0 UNK        -0.5176 
      4 N          17.5344  -24.6655  -42.6585 N.am      1 UNK        -0.4884 
      5 CA         17.4759  -25.5135  -43.8581 C.3       1 UNK         0.0853 
      6 C6         17.6095  -27.0147  -43.4994 C.3       10 UNK        -0.0849 
      7 S7         16.1695  -27.6556  -42.5833 S.3       10 UNK        -0.2776 
      8 C8         15.3552  -28.6947  -43.8460 C.3       10 UNK         0.0316 
      9 C9         16.2439  -29.8389  -44.3224 C.ar      10 UNK        -0.0863 
     10 C10        16.6230  -30.8499  -43.4352 C.ar      10 UNK        -0.1009 
     11 C11        17.4611  -31.8865  -43.8555 C.ar      10 UNK        -0.0712 
     12 C12        17.9082  -31.9171  -45.1805 C.ar      10 UNK        -0.0894 
     13 C13        17.5352  -30.9143  -46.0802 C.ar      10 UNK        -0.0745 
     14 C14        16.6948  -29.8828  -45.6467 C.ar      10 UNK        -0.0972 
     15 C15        18.0291  -30.9560  -47.5225 C.3       10 UNK         0.0209 
     16 S16        19.7865  -30.4890  -47.6871 S.3       10 UNK        -0.2568 
     17 C17        19.7387  -28.7117  -47.2659 C.3       10 UNK        -0.0983 
     18 CA         21.0066  -28.1607  -46.5595 C.3       3 UNK         0.0876 
     19 N          20.7959  -26.7510  -46.2272 N.am      3 UNK        -0.4424 
     20 C          21.6158  -25.9106  -45.5842 C.2       2 UNK         0.4918 
     21 O          22.7791  -26.1764  -45.2820 O.2       2 UNK        -0.4875 
     22 CA         21.0081  -24.5605  -45.1478 C.3       2 UNK         0.0481 
     23 CB         20.9020  -23.5765  -46.3288 C.3       2 UNK        -0.1831 
     24 N          19.7297  -24.7093  -44.4296 N.am      2 UNK        -0.4498 
     25 C          18.5583  -25.1698  -44.8975 C.2       1 UNK         0.5027 
     26 O          18.3337  -25.3940  -46.0872 O.2       1 UNK        -0.4969 
     27 C          21.3877  -28.9562  -45.2905 C.2       3 UNK         0.5005 
     28 O          20.5266  -29.1950  -44.4424 O.2       3 UNK        -0.5279 
     29 N          22.6851  -29.2853  -45.1711 N.am      4 UNK        -0.4463 
     30 CA         23.3326  -30.0173  -44.0725 C.3       4 UNK         0.0283 
     31 CB         22.9278  -31.5041  -44.1125 C.3       4 UNK        -0.1875 
     32 C          23.1333  -29.3963  -42.6733 C.2       4 UNK         0.4949 
     33 O          23.2310  -30.1149  -41.6745 O.2       4 UNK        -0.5039 
     34 N          22.8648  -28.0834  -42.6182 N.am      5 UNK        -0.4663 
     35 CA         22.5620  -27.3327  -41.3994 C.3       5 UNK         0.0242 
     36 CB         22.1360  -25.9041  -41.7690 C.3       5 UNK        -0.1982 
     37 C          23.7501  -27.3285  -40.4273 C.2       5 UNK         0.5017 
     38 O          24.8103  -26.8038  -40.7714 O.2       5 UNK        -0.5012 
     39 N          23.5556  -27.9616  -39.2629 N.am      6 UNK        -0.4439 
     40 CA         24.5239  -28.2205  -38.1882 C.3       6 UNK         0.0297 
     41 CB         25.1504  -26.9161  -37.6529 C.3       6 UNK        -0.2006 
     42 C          25.5977  -29.2738  -38.5308 C.2       6 UNK         0.4892 
     43 O          26.3329  -29.6805  -37.6300 O.2       6 UNK        -0.5089 
     44 N          25.6595  -29.7274  -39.7903 N.am      7 UNK        -0.4243 
     45 CA         26.5003  -30.8395  -40.2341 C.3       7 UNK         0.0196 
     46 CB         26.7854  -30.7048  -41.7388 C.3       7 UNK        -0.2007 
     47 C          25.8321  -32.1875  -39.9262 C.2       7 UNK         0.5020 
     48 O          26.5205  -33.1289  -39.5316 O.2       7 UNK        -0.5147 
     49 N          24.5049  -32.2465  -40.0915 N.am      8 UNK        -0.4734 
     50 CA         23.6735  -33.4078  -39.7718 C.3       8 UNK         0.0238 
     51 CB         23.7255  -34.4390  -40.9147 C.3       8 UNK        -0.1912 
     52 C          22.2230  -33.0102  -39.4678 C.2       8 UNK         0.5038 
     53 O          21.6068  -33.6291  -38.5992 O.2       8 UNK        -0.5046 
     54 N          21.7026  -32.0067  -40.1834 N.am      9 UNK        -0.4200 
     55 CA         20.3226  -31.5176  -40.0777 C.3       9 UNK         0.0839 
     56 C          20.2417  -30.2340  -39.2108 C.2       9 UNK         0.5513 
     57 N          19.0581  -29.8981  -38.7180 N.am      9 UNK        -0.7519 
     58 O          21.2250  -29.5282  -38.9923 O.2       9 UNK        -0.4960 
     59 C59        19.7122  -31.2909  -41.4851 C.3       10 UNK        -0.0876 
     60 S60        19.6523  -32.8409  -42.4542 S.3       10 UNK        -0.2414 
     61 C61        17.8880  -32.9716  -42.8781 C.3       10 UNK         0.0169 
     62 H62        16.4104  -21.6103  -43.5109 H         1 UNK         0.0903 
     63 H63        17.6883  -22.3623  -44.4577 H         1 UNK         0.0903 
     64 H64        16.0783  -23.1011  -44.3736 H         1 UNK         0.0903 
     65 H65        17.7783  -25.1544  -41.8085 H         1 UNK         0.3096 
     66 H66        16.5083  -25.3674  -44.3423 H         1 UNK         0.1121 
     67 H67        17.7529  -27.6178  -44.3973 H         1 UNK         0.0849 
     68 H68        18.5026  -27.1905  -42.8958 H         1 UNK         0.0849 
     69 H69        14.4378  -29.1085  -43.4251 H         1 UNK         0.0865 
     70 H70        15.0491  -28.0641  -44.6822 H         1 UNK         0.0865 
     71 H71        16.2777  -30.8161  -42.4109 H         1 UNK         0.1346 
     72 H72        18.5625  -32.7140  -45.5067 H         1 UNK         0.1412 
     73 H73        16.4036  -29.1046  -46.3390 H         1 UNK         0.1426 
     74 H74        17.4255  -30.3050  -48.1570 H         1 UNK         0.0716 
     75 H75        17.8984  -31.9656  -47.9147 H         1 UNK         0.0716 
     76 H76        18.8671  -28.5190  -46.6403 H         1 UNK         0.0695 
     77 H77        19.5647  -28.1597  -48.1909 H         1 UNK         0.0695 
     78 H78        21.8361  -28.2117  -47.2674 H         1 UNK         0.0983 
     79 H79        19.8558  -26.4028  -46.3942 H         1 UNK         0.3095 
     80 H80        21.6997  -24.1233  -44.4258 H         1 UNK         0.0454 
     81 H81        20.2578  -23.9495  -47.1251 H         1 UNK         0.0851 
     82 H82        21.8833  -23.3956  -46.7692 H         1 UNK         0.0851 
     83 H83        20.5102  -22.6122  -46.0059 H         1 UNK         0.0851 
     84 H84        19.7829  -24.5561  -43.4319 H         1 UNK         0.2976 
     85 H85        23.3122  -28.9748  -45.9010 H         1 UNK         0.3116 
     86 H86        24.4047  -29.9645  -44.2662 H         1 UNK         0.0646 
     87 H87        23.4735  -32.0858  -43.3691 H         1 UNK         0.0847 
     88 H88        23.1401  -31.9471  -45.0852 H         1 UNK         0.0847 
     89 H89        21.8642  -31.6313  -43.9148 H         1 UNK         0.0847 
     90 H90        22.8453  -27.5657  -43.4879 H         1 UNK         0.3040 
     91 H91        21.7096  -27.8178  -40.9204 H         1 UNK         0.1015 
     92 H92        22.9084  -25.3857  -42.3389 H         1 UNK         0.0786 
     93 H93        21.9336  -25.3119  -40.8754 H         1 UNK         0.0786 
     94 H94        21.2238  -25.9148  -42.3632 H         1 UNK         0.0786 
     95 H95        22.6580  -28.4317  -39.1338 H         1 UNK         0.3172 
     96 H96        23.9360  -28.6533  -37.3773 H         1 UNK         0.0595 
     97 H97        25.8202  -26.4552  -38.3792 H         1 UNK         0.0839 
     98 H98        25.7377  -27.1084  -36.7541 H         1 UNK         0.0839 
     99 H99        24.3854  -26.1862  -37.3886 H         1 UNK         0.0839 
    100 H100       25.0018  -29.3550  -40.4624 H         1 UNK         0.2998 
    101 H101       27.4535  -30.8015  -39.7019 H         1 UNK         0.0822 
    102 H102       27.2542  -29.7482  -41.9702 H         1 UNK         0.0787 
    103 H103       27.4647  -31.4892  -42.0752 H         1 UNK         0.0787 
    104 H104       25.8766  -30.7871  -42.3347 H         1 UNK         0.0787 
    105 H105       24.0290  -31.4172  -40.4323 H         1 UNK         0.3055 
    106 H106       24.0666  -33.8753  -38.8657 H         1 UNK         0.1106 
    107 H107       23.1104  -35.3094  -40.6822 H         1 UNK         0.0828 
    108 H108       23.3562  -34.0209  -41.8514 H         1 UNK         0.0828 
    109 H109       24.7406  -34.7981  -41.0841 H         1 UNK         0.0828 
    110 H110       22.2803  -31.4949  -40.8418 H         1 UNK         0.2931 
    111 H111       19.7140  -32.2727  -39.5758 H         1 UNK         0.0412 
    112 H112       18.2416  -30.4663  -38.8815 H         1 UNK         0.3472 
    113 H113       18.9828  -29.0647  -38.1561 H         1 UNK         0.3472 
    114 H114       18.7061  -30.8775  -41.4035 H         1 UNK         0.0970 
    115 H115       20.2916  -30.5550  -42.0459 H         1 UNK         0.0970 
    116 H116       17.2929  -32.9366  -41.9642 H         1 UNK         0.0612 
    117 H117       17.7058  -33.9490  -43.3267 H         1 UNK         0.0612 
@<TRIPOS>BOND
     1    1    2 1    
     2    1   62 1    
     3    1   63 1    
     4    1   64 1    
     5    2    3 2    
     6    2    4 am   BACKBONE|DICT|INTERRES
     7    4    5 1    
     8    4   65 1    
     9    5    6 1    
    10    5   25 1    
    11    5   66 1    
    12    6    7 1    
    13    6   67 1    
    14    6   68 1    
    15    7    8 1    
    16    8    9 1    
    17    8   69 1    
    18    8   70 1    
    19    9   10 ar   
    20    9   14 ar   
    21   10   11 ar   
    22   10   71 1    
    23   11   12 ar   
    24   11   61 1    
    25   12   13 ar   
    26   12   72 1    
    27   13   14 ar   
    28   13   15 1    
    29   14   73 1    
    30   15   16 1    
    31   15   74 1    
    32   15   75 1    
    33   16   17 1    
    34   17   18 1    
    35   17   76 1    
    36   17   77 1    
    37   18   19 1    
    38   18   27 1    
    39   18   78 1    
    40   19   20 am   BACKBONE|DICT|INTERRES
    41   19   79 1    
    42   20   21 2    
    43   20   22 1    
    44   22   23 1    
    45   22   24 1    
    46   22   80 1    
    47   23   81 1    
    48   23   82 1    
    49   23   83 1    
    50   24   25 am   BACKBONE|DICT|INTERRES
    51   24   84 1    
    52   25   26 2    
    53   27   28 2    
    54   27   29 am   BACKBONE|DICT|INTERRES
    55   29   30 1    
    56   29   85 1    
    57   30   31 1    
    58   30   32 1    
    59   30   86 1    
    60   31   87 1    
    61   31   88 1    
    62   31   89 1    
    63   32   33 2    
    64   32   34 am   BACKBONE|DICT|INTERRES
    65   34   35 1    
    66   34   90 1    
    67   35   36 1    
    68   35   37 1    
    69   35   91 1    
    70   36   92 1    
    71   36   93 1    
    72   36   94 1    
    73   37   38 2    
    74   37   39 am   BACKBONE|DICT|INTERRES
    75   39   40 1    
    76   39   95 1    
    77   40   41 1    
    78   40   42 1    
    79   40   96 1    
    80   41   97 1    
    81   41   98 1    
    82   41   99 1    
    83   42   43 2    
    84   42   44 am   BACKBONE|DICT|INTERRES
    85   44   45 1    
    86   44  100 1    
    87   45   46 1    
    88   45   47 1    
    89   45  101 1    
    90   46  102 1    
    91   46  103 1    
    92   46  104 1    
    93   47   48 2    
    94   47   49 am   BACKBONE|DICT|INTERRES
    95   49   50 1    
    96   49  105 1    
    97   50   51 1    
    98   50   52 1    
    99   50  106 1    
   100   51  107 1    
   101   51  108 1    
   102   51  109 1    
   103   52   53 2    
   104   52   54 am   BACKBONE|DICT|INTERRES
   105   54   55 1    
   106   54  110 1    
   107   55   56 1    
   108   55   59 1    
   109   55  111 1    
   110   56   57 am   BACKBONE|DICT|INTERRES
   111   56   58 2    
   112   57  112 1    
   113   57  113 1    
   114   59   60 1    
   115   59  114 1    
   116   59  115 1    
   117   60   61 1    
   118   61  116 1    
   119   61  117 1    
@<TRIPOS>SUBSTRUCTURE
     1 UNK         1 GROUP             0       ****    0 ROOT    
