@<TRIPOS>MOLECULE
3R8
117   119    1
SMALL
USER_CHARGES


@<TRIPOS>ATOM
      1 CA         13.5073  -24.2746  -41.6628 C.3       0 UNK        -0.2013 
      2 C          14.4249  -24.3298  -42.8748 C.2       0 UNK         0.4866 
      3 O          15.1354  -23.3633  -43.1507 O.2       0 UNK        -0.5176 
      4 N          14.4186  -25.4554  -43.6004 N.am      1 UNK        -0.4884 
      5 CA         15.2468  -25.6927  -44.7914 C.3       1 UNK         0.0853 
      6 C6         14.6321  -26.7817  -45.7080 C.3       10 UNK        -0.0849 
      7 S7         14.3611  -28.3907  -44.8804 S.3       10 UNK        -0.2776 
      8 C8         15.2988  -29.5382  -45.9436 C.3       10 UNK         0.0316 
      9 C9         16.7857  -29.5889  -45.6096 C.ar      10 UNK        -0.0863 
     10 C10        17.2094  -30.1504  -44.4017 C.ar      10 UNK        -0.1009 
     11 C11        18.5714  -30.2897  -44.1198 C.ar      10 UNK        -0.0712 
     12 C12        19.5179  -29.8616  -45.0554 C.ar      10 UNK        -0.0894 
     13 C13        19.1091  -29.2930  -46.2656 C.ar      10 UNK        -0.0745 
     14 C14        17.7418  -29.1512  -46.5330 C.ar      10 UNK        -0.0972 
     15 C15        20.1383  -28.8957  -47.3158 C.3       10 UNK         0.0209 
     16 S16        20.5779  -27.1308  -47.2382 S.3       10 UNK        -0.2568 
     17 C17        21.8471  -27.0853  -45.9264 C.3       10 UNK        -0.0983 
     18 CA         21.4311  -26.1670  -44.7517 C.3       3 UNK         0.0876 
     19 N          20.2560  -26.6931  -44.0600 N.am      3 UNK        -0.4424 
     20 C          19.5211  -26.0358  -43.1575 C.2       2 UNK         0.4918 
     21 O          19.7514  -24.8896  -42.7657 O.2       2 UNK        -0.4875 
     22 CA         18.2877  -26.7936  -42.6367 C.3       2 UNK         0.0481 
     23 CB         18.2151  -26.7437  -41.1014 C.3       2 UNK        -0.1831 
     24 N          17.0126  -26.3285  -43.1933 N.am      2 UNK        -0.4498 
     25 C          16.7229  -26.0058  -44.4664 C.2       1 UNK         0.5027 
     26 O          17.5407  -25.9634  -45.3850 O.2       1 UNK        -0.4969 
     27 C          22.6138  -25.9384  -43.7888 C.2       3 UNK         0.5005 
     28 O          22.7529  -26.6512  -42.7898 O.2       3 UNK        -0.5279 
     29 N          23.4762  -24.9748  -44.1473 N.am      4 UNK        -0.4463 
     30 CA         24.6424  -24.5134  -43.3802 C.3       4 UNK         0.0283 
     31 CB         25.2677  -23.3074  -44.1012 C.3       4 UNK        -0.1875 
     32 C          25.7170  -25.5803  -43.0922 C.2       4 UNK         0.4949 
     33 O          26.5637  -25.3555  -42.2272 O.2       4 UNK        -0.5039 
     34 N          25.6597  -26.7215  -43.7936 N.am      5 UNK        -0.4663 
     35 CA         26.4632  -27.9166  -43.5237 C.3       5 UNK         0.0242 
     36 CB         26.2338  -28.9415  -44.6463 C.3       5 UNK        -0.1982 
     37 C          26.1741  -28.5515  -42.1487 C.2       5 UNK         0.5017 
     38 O          27.0727  -29.1833  -41.5918 O.2       5 UNK        -0.5012 
     39 N          24.9510  -28.3530  -41.6257 N.am      6 UNK        -0.4439 
     40 CA         24.4605  -28.7970  -40.3174 C.3       6 UNK         0.0297 
     41 CB         25.1268  -27.9772  -39.1887 C.3       6 UNK        -0.2006 
     42 C          24.5690  -30.3249  -40.1433 C.2       6 UNK         0.4892 
     43 O          23.8496  -31.0515  -40.8312 O.2       6 UNK        -0.5089 
     44 N          25.4334  -30.7792  -39.2203 N.am      7 UNK        -0.4243 
     45 CA         25.7560  -32.1810  -38.9078 C.3       7 UNK         0.0196 
     46 CB         26.5483  -32.8137  -40.0719 C.3       7 UNK        -0.2007 
     47 C          24.5289  -33.0246  -38.5061 C.2       7 UNK         0.5020 
     48 O          24.4654  -34.2122  -38.8285 O.2       7 UNK        -0.5147 
     49 N          23.5487  -32.3768  -37.8556 N.am      8 UNK        -0.4734 
     50 CA         22.2258  -32.9042  -37.4852 C.3       8 UNK         0.0238 
     51 CB         22.3603  -33.9606  -36.3674 C.3       8 UNK        -0.1912 
     52 C          21.4011  -33.4207  -38.6861 C.2       8 UNK         0.5038 
     53 O          20.5242  -34.2663  -38.4998 O.2       8 UNK        -0.5046 
     54 N          21.6998  -32.9142  -39.8924 N.am      9 UNK        -0.4200 
     55 CA         21.1683  -33.3803  -41.1807 C.3       9 UNK         0.0839 
     56 C          21.6718  -34.7968  -41.6050 C.2       9 UNK         0.5513 
     57 N          22.7358  -35.3295  -41.0130 N.am      9 UNK        -0.7519 
     58 O          21.1096  -35.4210  -42.5010 O.2       9 UNK        -0.4960 
     59 C59        19.6251  -33.1969  -41.2865 C.3       10 UNK        -0.0876 
     60 S60        19.0852  -32.7315  -42.9645 S.3       10 UNK        -0.2414 
     61 C61        19.0153  -30.9218  -42.8116 C.3       10 UNK         0.0169 
     62 H62        14.0910  -24.1120  -40.7571 H         1 UNK         0.0903 
     63 H63        12.8006  -23.4514  -41.7649 H         1 UNK         0.0903 
     64 H64        12.9383  -25.1959  -41.5390 H         1 UNK         0.0903 
     65 H65        13.8158  -26.2238  -43.3374 H         1 UNK         0.3096 
     66 H66        15.2654  -24.7647  -45.3681 H         1 UNK         0.1121 
     67 H67        15.2471  -26.9188  -46.5998 H         1 UNK         0.0849 
     68 H68        13.6658  -26.4357  -46.0780 H         1 UNK         0.0849 
     69 H69        14.8838  -30.5390  -45.8154 H         1 UNK         0.0865 
     70 H70        15.1383  -29.2850  -46.9927 H         1 UNK         0.0865 
     71 H71        16.4755  -30.5004  -43.6882 H         1 UNK         0.1346 
     72 H72        20.5715  -29.9946  -44.8500 H         1 UNK         0.1412 
     73 H73        17.4250  -28.7255  -47.4753 H         1 UNK         0.1426 
     74 H74        21.0377  -29.5072  -47.2275 H         1 UNK         0.0716 
     75 H75        19.7361  -29.1043  -48.3083 H         1 UNK         0.0716 
     76 H76        22.7675  -26.7267  -46.3912 H         1 UNK         0.0695 
     77 H77        22.0627  -28.0945  -45.5710 H         1 UNK         0.0695 
     78 H78        21.1479  -25.1931  -45.1581 H         1 UNK         0.0983 
     79 H79        19.9418  -27.6031  -44.3635 H         1 UNK         0.3095 
     80 H80        18.3871  -27.8404  -42.9204 H         1 UNK         0.0454 
     81 H81        17.4243  -27.3887  -40.7180 H         1 UNK         0.0851 
     82 H82        18.0300  -25.7316  -40.7394 H         1 UNK         0.0851 
     83 H83        19.1514  -27.0827  -40.6557 H         1 UNK         0.0851 
     84 H84        16.2379  -26.3038  -42.5475 H         1 UNK         0.2976 
     85 H85        23.2911  -24.4681  -45.0020 H         1 UNK         0.3116 
     86 H86        24.2728  -24.1743  -42.4103 H         1 UNK         0.0646 
     87 H87        24.5515  -22.4932  -44.2127 H         1 UNK         0.0847 
     88 H88        26.1156  -22.9114  -43.5401 H         1 UNK         0.0847 
     89 H89        25.6325  -23.5752  -45.0936 H         1 UNK         0.0847 
     90 H90        24.9378  -26.8068  -44.4932 H         1 UNK         0.3040 
     91 H91        27.5152  -27.6226  -43.5317 H         1 UNK         0.1015 
     92 H92        25.1915  -29.2594  -44.6968 H         1 UNK         0.0786 
     93 H93        26.8392  -29.8352  -44.4873 H         1 UNK         0.0786 
     94 H94        26.5101  -28.5345  -45.6192 H         1 UNK         0.0786 
     95 H95        24.2805  -27.8207  -42.1741 H         1 UNK         0.3172 
     96 H96        23.3942  -28.5665  -40.3010 H         1 UNK         0.0595 
     97 H97        26.2094  -28.1065  -39.1631 H         1 UNK         0.0839 
     98 H98        24.7312  -28.2531  -38.2102 H         1 UNK         0.0839 
     99 H99        24.9318  -26.9124  -39.3189 H         1 UNK         0.0839 
    100 H100       25.9677  -30.0881  -38.7119 H         1 UNK         0.2998 
    101 H101       26.4085  -32.1620  -38.0337 H         1 UNK         0.0822 
    102 H102       26.9149  -33.8059  -39.8058 H         1 UNK         0.0787 
    103 H103       25.9327  -32.9221  -40.9658 H         1 UNK         0.0787 
    104 H104       27.4157  -32.2085  -40.3358 H         1 UNK         0.0787 
    105 H105       23.7002  -31.3985  -37.6505 H         1 UNK         0.3055 
    106 H106       21.6605  -32.0637  -37.0790 H         1 UNK         0.1106 
    107 H107       22.9327  -33.5756  -35.5236 H         1 UNK         0.0828 
    108 H108       21.3824  -34.2547  -35.9843 H         1 UNK         0.0828 
    109 H109       22.8543  -34.8653  -36.7233 H         1 UNK         0.0828 
    110 H110       22.4588  -32.2446  -39.9672 H         1 UNK         0.2931 
    111 H111       21.6308  -32.7031  -41.8997 H         1 UNK         0.0412 
    112 H112       23.0525  -36.2405  -41.3044 H         1 UNK         0.3472 
    113 H113       23.2276  -34.8414  -40.2715 H         1 UNK         0.3472 
    114 H114       19.1024  -34.1056  -40.9821 H         1 UNK         0.0970 
    115 H115       19.2814  -32.4248  -40.5963 H         1 UNK         0.0970 
    116 H116       19.9962  -30.5431  -42.5193 H         1 UNK         0.0612 
    117 H117       18.3238  -30.6472  -42.0133 H         1 UNK         0.0612 
@<TRIPOS>BOND
     1    1    2 1    
     2    1   62 1    
     3    1   63 1    
     4    1   64 1    
     5    2    3 2    
     6    2    4 am   BACKBONE|DICT|INTERRES
     7    4    5 1    
     8    4   65 1    
     9    5    6 1    
    10    5   25 1    
    11    5   66 1    
    12    6    7 1    
    13    6   67 1    
    14    6   68 1    
    15    7    8 1    
    16    8    9 1    
    17    8   69 1    
    18    8   70 1    
    19    9   10 ar   
    20    9   14 ar   
    21   10   11 ar   
    22   10   71 1    
    23   11   12 ar   
    24   11   61 1    
    25   12   13 ar   
    26   12   72 1    
    27   13   14 ar   
    28   13   15 1    
    29   14   73 1    
    30   15   16 1    
    31   15   74 1    
    32   15   75 1    
    33   16   17 1    
    34   17   18 1    
    35   17   76 1    
    36   17   77 1    
    37   18   19 1    
    38   18   27 1    
    39   18   78 1    
    40   19   20 am   BACKBONE|DICT|INTERRES
    41   19   79 1    
    42   20   21 2    
    43   20   22 1    
    44   22   23 1    
    45   22   24 1    
    46   22   80 1    
    47   23   81 1    
    48   23   82 1    
    49   23   83 1    
    50   24   25 am   BACKBONE|DICT|INTERRES
    51   24   84 1    
    52   25   26 2    
    53   27   28 2    
    54   27   29 am   BACKBONE|DICT|INTERRES
    55   29   30 1    
    56   29   85 1    
    57   30   31 1    
    58   30   32 1    
    59   30   86 1    
    60   31   87 1    
    61   31   88 1    
    62   31   89 1    
    63   32   33 2    
    64   32   34 am   BACKBONE|DICT|INTERRES
    65   34   35 1    
    66   34   90 1    
    67   35   36 1    
    68   35   37 1    
    69   35   91 1    
    70   36   92 1    
    71   36   93 1    
    72   36   94 1    
    73   37   38 2    
    74   37   39 am   BACKBONE|DICT|INTERRES
    75   39   40 1    
    76   39   95 1    
    77   40   41 1    
    78   40   42 1    
    79   40   96 1    
    80   41   97 1    
    81   41   98 1    
    82   41   99 1    
    83   42   43 2    
    84   42   44 am   BACKBONE|DICT|INTERRES
    85   44   45 1    
    86   44  100 1    
    87   45   46 1    
    88   45   47 1    
    89   45  101 1    
    90   46  102 1    
    91   46  103 1    
    92   46  104 1    
    93   47   48 2    
    94   47   49 am   BACKBONE|DICT|INTERRES
    95   49   50 1    
    96   49  105 1    
    97   50   51 1    
    98   50   52 1    
    99   50  106 1    
   100   51  107 1    
   101   51  108 1    
   102   51  109 1    
   103   52   53 2    
   104   52   54 am   BACKBONE|DICT|INTERRES
   105   54   55 1    
   106   54  110 1    
   107   55   56 1    
   108   55   59 1    
   109   55  111 1    
   110   56   57 am   BACKBONE|DICT|INTERRES
   111   56   58 2    
   112   57  112 1    
   113   57  113 1    
   114   59   60 1    
   115   59  114 1    
   116   59  115 1    
   117   60   61 1    
   118   61  116 1    
   119   61  117 1    
@<TRIPOS>SUBSTRUCTURE
     1 UNK         1 GROUP             0       ****    0 ROOT    
