@<TRIPOS>MOLECULE
3R8
117   119    1
SMALL
USER_CHARGES


@<TRIPOS>ATOM
      1 CA         21.9245  -27.0653  -46.8515 C.3       0 UNK        -0.2013 
      2 C          21.0836  -26.4348  -47.9580 C.2       0 UNK         0.4866 
      3 O          21.6418  -26.0126  -48.9689 O.2       0 UNK        -0.5176 
      4 N          19.7513  -26.3542  -47.8342 N.am      1 UNK        -0.4884 
      5 CA         18.9296  -26.7355  -46.6794 C.3       1 UNK         0.0853 
      6 C6         17.4236  -26.7604  -47.0404 C.3       10 UNK        -0.0849 
      7 S7         17.0483  -28.0501  -48.2747 S.3       10 UNK        -0.2776 
      8 C8         15.9873  -29.1884  -47.3228 C.3       10 UNK         0.0316 
      9 C9         16.6603  -29.7348  -46.0678 C.ar      10 UNK        -0.0863 
     10 C10        17.8855  -30.4029  -46.1496 C.ar      10 UNK        -0.1009 
     11 C11        18.4848  -30.9337  -45.0040 C.ar      10 UNK        -0.0712 
     12 C12        17.8435  -30.8026  -43.7672 C.ar      10 UNK        -0.0894 
     13 C13        16.6237  -30.1270  -43.6683 C.ar      10 UNK        -0.0745 
     14 C14        16.0369  -29.5995  -44.8234 C.ar      10 UNK        -0.0972 
     15 C15        15.9164  -29.9941  -42.3256 C.3       10 UNK         0.0209 
     16 S16        15.7890  -28.2523  -41.8081 S.3       10 UNK        -0.2568 
     17 C17        16.8033  -28.2030  -40.2903 C.3       10 UNK        -0.0983 
     18 CA         18.3223  -28.0387  -40.5513 C.3       3 UNK         0.0876 
     19 N          18.6116  -26.9812  -41.5201 N.am      3 UNK        -0.4424 
     20 C          19.8168  -26.6696  -42.0074 C.2       2 UNK         0.4918 
     21 O          20.8687  -27.2383  -41.6971 O.2       2 UNK        -0.4875 
     22 CA         19.8124  -25.6064  -43.1070 C.3       2 UNK         0.0481 
     23 CB         21.1001  -24.7612  -43.1369 C.3       2 UNK        -0.1831 
     24 N          19.6113  -26.3191  -44.3640 N.am      2 UNK        -0.4498 
     25 C          19.1758  -25.7721  -45.5034 C.2       1 UNK         0.5027 
     26 O          18.9572  -24.5679  -45.6519 O.2       1 UNK        -0.4969 
     27 C          19.0767  -27.7950  -39.2292 C.2       3 UNK         0.5005 
     28 O          18.9891  -26.6957  -38.6766 O.2       3 UNK        -0.5279 
     29 N          19.8090  -28.8170  -38.7677 N.am      4 UNK        -0.4463 
     30 CA         20.6844  -28.8302  -37.5896 C.3       4 UNK         0.0283 
     31 CB         19.8691  -28.6366  -36.2929 C.3       4 UNK        -0.1875 
     32 C          21.8878  -27.8668  -37.6824 C.2       4 UNK         0.4949 
     33 O          22.4586  -27.5256  -36.6449 O.2       4 UNK        -0.5039 
     34 N          22.2660  -27.4538  -38.9013 N.am      5 UNK        -0.4663 
     35 CA         23.3660  -26.5210  -39.1507 C.3       5 UNK         0.0242 
     36 CB         22.8047  -25.1302  -39.4882 C.3       5 UNK        -0.1982 
     37 C          24.3079  -27.0275  -40.2483 C.2       5 UNK         0.5017 
     38 O          25.5147  -27.0982  -40.0093 O.2       5 UNK        -0.5012 
     39 N          23.7682  -27.3725  -41.4273 N.am      6 UNK        -0.4439 
     40 CA         24.5512  -27.8021  -42.5933 C.3       6 UNK         0.0297 
     41 CB         23.7789  -27.4988  -43.8912 C.3       6 UNK        -0.2006 
     42 C          25.0112  -29.2687  -42.4982 C.2       6 UNK         0.4892 
     43 O          24.5651  -30.1044  -43.2860 O.2       6 UNK        -0.5089 
     44 N          25.9060  -29.5425  -41.5376 N.am      7 UNK        -0.4243 
     45 CA         26.6097  -30.8075  -41.2923 C.3       7 UNK         0.0196 
     46 CB         27.7047  -31.0194  -42.3623 C.3       7 UNK        -0.2007 
     47 C          25.6447  -31.9991  -41.1551 C.2       7 UNK         0.5020 
     48 O          25.0221  -32.1514  -40.1040 O.2       7 UNK        -0.5147 
     49 N          25.5058  -32.7942  -42.2256 N.am      8 UNK        -0.4734 
     50 CA         24.5767  -33.9231  -42.3428 C.3       8 UNK         0.0238 
     51 CB         24.8087  -34.6282  -43.6888 C.3       8 UNK        -0.1912 
     52 C          23.0931  -33.5391  -42.1863 C.2       8 UNK         0.5038 
     53 O          22.2974  -34.3956  -41.7981 O.2       8 UNK        -0.5046 
     54 N          22.7510  -32.2719  -42.4588 N.am      9 UNK        -0.4200 
     55 CA         21.4363  -31.6876  -42.1597 C.3       9 UNK         0.0839 
     56 C          21.1723  -31.4465  -40.6473 C.2       9 UNK         0.5513 
     57 N          22.1504  -31.5627  -39.7568 N.am      9 UNK        -0.7519 
     58 O          20.0421  -31.1450  -40.2739 O.2       9 UNK        -0.4960 
     59 C59        21.1705  -30.3937  -42.9734 C.3       10 UNK        -0.0876 
     60 S60        21.2466  -30.6220  -44.7833 S.3       10 UNK        -0.2414 
     61 C61        19.8035  -31.6841  -45.1187 C.3       10 UNK         0.0169 
     62 H62        21.4857  -27.9911  -46.4835 H         1 UNK         0.0903 
     63 H63        22.9201  -27.3069  -47.2232 H         1 UNK         0.0903 
     64 H64        22.0426  -26.3711  -46.0213 H         1 UNK         0.0903 
     65 H65        19.2325  -25.9355  -48.5927 H         1 UNK         0.3096 
     66 H66        19.2094  -27.7454  -46.3729 H         1 UNK         0.1121 
     67 H67        17.1052  -25.7963  -47.4423 H         1 UNK         0.0849 
     68 H68        16.8138  -26.9266  -46.1498 H         1 UNK         0.0849 
     69 H69        15.0587  -28.6726  -47.0732 H         1 UNK         0.0865 
     70 H70        15.7071  -30.0257  -47.9632 H         1 UNK         0.0865 
     71 H71        18.3691  -30.5151  -47.1107 H         1 UNK         0.1346 
     72 H72        18.2895  -31.2351  -42.8822 H         1 UNK         0.1412 
     73 H73        15.0861  -29.0891  -44.7480 H         1 UNK         0.1426 
     74 H74        16.4236  -30.5822  -41.5593 H         1 UNK         0.0716 
     75 H75        14.9112  -30.4089  -42.4112 H         1 UNK         0.0716 
     76 H76        16.6105  -29.1008  -39.7000 H         1 UNK         0.0695 
     77 H77        16.4304  -27.3683  -39.6928 H         1 UNK         0.0695 
     78 H78        18.6835  -28.9681  -40.9944 H         1 UNK         0.0983 
     79 H79        17.8045  -26.4767  -41.8562 H         1 UNK         0.3095 
     80 H80        18.9661  -24.9361  -42.9406 H         1 UNK         0.0454 
     81 H81        21.9930  -25.3774  -43.2047 H         1 UNK         0.0851 
     82 H82        21.1858  -24.1612  -42.2312 H         1 UNK         0.0851 
     83 H83        21.1090  -24.0677  -43.9773 H         1 UNK         0.0851 
     84 H84        19.7522  -27.3194  -44.3120 H         1 UNK         0.2976 
     85 H85        19.8145  -29.6824  -39.3092 H         1 UNK         0.3116 
     86 H86        21.1132  -29.8317  -37.5519 H         1 UNK         0.0646 
     87 H87        19.4723  -27.6244  -36.2106 H         1 UNK         0.0847 
     88 H88        20.4861  -28.8138  -35.4113 H         1 UNK         0.0847 
     89 H89        19.0310  -29.3315  -36.2427 H         1 UNK         0.0847 
     90 H90        21.7403  -27.7675  -39.7076 H         1 UNK         0.3040 
     91 H91        23.9800  -26.4172  -38.2530 H         1 UNK         0.1015 
     92 H92        22.1274  -25.1653  -40.3396 H         1 UNK         0.0786 
     93 H93        23.6049  -24.4295  -39.7302 H         1 UNK         0.0786 
     94 H94        22.2531  -24.7152  -38.6445 H         1 UNK         0.0786 
     95 H95        22.7609  -27.3076  -41.5495 H         1 UNK         0.3172 
     96 H96        25.4643  -27.2041  -42.6366 H         1 UNK         0.0595 
     97 H97        24.2584  -27.9596  -44.7562 H         1 UNK         0.0839 
     98 H98        23.7590  -26.4282  -44.0878 H         1 UNK         0.0839 
     99 H99        22.7518  -27.8594  -43.8591 H         1 UNK         0.0839 
    100 H100       26.1267  -28.7823  -40.9009 H         1 UNK         0.2998 
    101 H101       27.1073  -30.7058  -40.3265 H         1 UNK         0.0822 
    102 H102       28.2336  -31.9606  -42.2055 H         1 UNK         0.0787 
    103 H103       27.3008  -31.0279  -43.3754 H         1 UNK         0.0787 
    104 H104       28.4498  -30.2249  -42.3167 H         1 UNK         0.0787 
    105 H105       26.0271  -32.5517  -43.0558 H         1 UNK         0.3055 
    106 H106       24.8104  -34.6249  -41.5393 H         1 UNK         0.1106 
    107 H107       24.1516  -35.4927  -43.7951 H         1 UNK         0.0828 
    108 H108       24.6110  -33.9637  -44.5309 H         1 UNK         0.0828 
    109 H109       25.8330  -34.9904  -43.7776 H         1 UNK         0.0828 
    110 H110       23.4628  -31.6257  -42.7891 H         1 UNK         0.2931 
    111 H111       20.6867  -32.4228  -42.4509 H         1 UNK         0.0412 
    112 H112       23.0943  -31.8106  -40.0365 H         1 UNK         0.3472 
    113 H113       21.9446  -31.4408  -38.7797 H         1 UNK         0.3472 
    114 H114       21.9075  -29.6399  -42.6992 H         1 UNK         0.0970 
    115 H115       20.2078  -29.9507  -42.7213 H         1 UNK         0.0970 
    116 H116       19.9097  -32.0836  -46.1283 H         1 UNK         0.0612 
    117 H117       19.8027  -32.5543  -44.4635 H         1 UNK         0.0612 
@<TRIPOS>BOND
     1    1    2 1    
     2    1   62 1    
     3    1   63 1    
     4    1   64 1    
     5    2    3 2    
     6    2    4 am   BACKBONE|DICT|INTERRES
     7    4    5 1    
     8    4   65 1    
     9    5    6 1    
    10    5   25 1    
    11    5   66 1    
    12    6    7 1    
    13    6   67 1    
    14    6   68 1    
    15    7    8 1    
    16    8    9 1    
    17    8   69 1    
    18    8   70 1    
    19    9   10 ar   
    20    9   14 ar   
    21   10   11 ar   
    22   10   71 1    
    23   11   12 ar   
    24   11   61 1    
    25   12   13 ar   
    26   12   72 1    
    27   13   14 ar   
    28   13   15 1    
    29   14   73 1    
    30   15   16 1    
    31   15   74 1    
    32   15   75 1    
    33   16   17 1    
    34   17   18 1    
    35   17   76 1    
    36   17   77 1    
    37   18   19 1    
    38   18   27 1    
    39   18   78 1    
    40   19   20 am   BACKBONE|DICT|INTERRES
    41   19   79 1    
    42   20   21 2    
    43   20   22 1    
    44   22   23 1    
    45   22   24 1    
    46   22   80 1    
    47   23   81 1    
    48   23   82 1    
    49   23   83 1    
    50   24   25 am   BACKBONE|DICT|INTERRES
    51   24   84 1    
    52   25   26 2    
    53   27   28 2    
    54   27   29 am   BACKBONE|DICT|INTERRES
    55   29   30 1    
    56   29   85 1    
    57   30   31 1    
    58   30   32 1    
    59   30   86 1    
    60   31   87 1    
    61   31   88 1    
    62   31   89 1    
    63   32   33 2    
    64   32   34 am   BACKBONE|DICT|INTERRES
    65   34   35 1    
    66   34   90 1    
    67   35   36 1    
    68   35   37 1    
    69   35   91 1    
    70   36   92 1    
    71   36   93 1    
    72   36   94 1    
    73   37   38 2    
    74   37   39 am   BACKBONE|DICT|INTERRES
    75   39   40 1    
    76   39   95 1    
    77   40   41 1    
    78   40   42 1    
    79   40   96 1    
    80   41   97 1    
    81   41   98 1    
    82   41   99 1    
    83   42   43 2    
    84   42   44 am   BACKBONE|DICT|INTERRES
    85   44   45 1    
    86   44  100 1    
    87   45   46 1    
    88   45   47 1    
    89   45  101 1    
    90   46  102 1    
    91   46  103 1    
    92   46  104 1    
    93   47   48 2    
    94   47   49 am   BACKBONE|DICT|INTERRES
    95   49   50 1    
    96   49  105 1    
    97   50   51 1    
    98   50   52 1    
    99   50  106 1    
   100   51  107 1    
   101   51  108 1    
   102   51  109 1    
   103   52   53 2    
   104   52   54 am   BACKBONE|DICT|INTERRES
   105   54   55 1    
   106   54  110 1    
   107   55   56 1    
   108   55   59 1    
   109   55  111 1    
   110   56   57 am   BACKBONE|DICT|INTERRES
   111   56   58 2    
   112   57  112 1    
   113   57  113 1    
   114   59   60 1    
   115   59  114 1    
   116   59  115 1    
   117   60   61 1    
   118   61  116 1    
   119   61  117 1    
@<TRIPOS>SUBSTRUCTURE
     1 UNK         1 GROUP             0       ****    0 ROOT    
