@<TRIPOS>MOLECULE
3R8
117   119    1
SMALL
USER_CHARGES


@<TRIPOS>ATOM
      1 CA         19.6457  -22.7239  -49.5913 C.3       0 UNK        -0.2013 
      2 C          20.1554  -23.3758  -48.3148 C.2       0 UNK         0.4866 
      3 O          20.9415  -22.7667  -47.5890 O.2       0 UNK        -0.5176 
      4 N          19.7154  -24.6109  -48.0359 N.am      1 UNK        -0.4884 
      5 CA         20.0877  -25.3824  -46.8410 C.3       1 UNK         0.0853 
      6 C6         19.7341  -26.8846  -47.0139 C.3       10 UNK        -0.0849 
      7 S7         20.8891  -27.9825  -46.1311 S.3       10 UNK        -0.2776 
      8 C8         20.0345  -29.5862  -46.2657 C.3       10 UNK         0.0316 
      9 C9         19.3450  -29.9619  -44.9624 C.ar      10 UNK        -0.0863 
     10 C10        20.1073  -30.4684  -43.9061 C.ar      10 UNK        -0.1009 
     11 C11        19.5022  -30.8284  -42.7007 C.ar      10 UNK        -0.0712 
     12 C12        18.1192  -30.6913  -42.5600 C.ar      10 UNK        -0.0894 
     13 C13        17.3404  -30.1832  -43.6059 C.ar      10 UNK        -0.0745 
     14 C14        17.9605  -29.8218  -44.8091 C.ar      10 UNK        -0.0972 
     15 C15        15.8336  -30.0191  -43.4274 C.3       10 UNK         0.0209 
     16 S16        15.4000  -29.0441  -41.9428 S.3       10 UNK        -0.2568 
     17 C17        15.6105  -27.3209  -42.5079 C.3       10 UNK        -0.0983 
     18 CA         17.0925  -26.8723  -42.6158 C.3       3 UNK         0.0876 
     19 N          17.2907  -25.8229  -43.6154 N.am      3 UNK        -0.4424 
     20 C          16.9349  -24.5351  -43.5255 C.2       2 UNK         0.4918 
     21 O          16.2532  -24.0769  -42.6082 O.2       2 UNK        -0.4875 
     22 CA         17.4254  -23.5896  -44.6445 C.3       2 UNK         0.0481 
     23 CB         18.1411  -22.3562  -44.0563 C.3       2 UNK        -0.1831 
     24 N          18.2585  -24.2207  -45.6836 N.am      2 UNK        -0.4498 
     25 C          19.4628  -24.8050  -45.5517 C.2       1 UNK         0.5027 
     26 O          20.0511  -24.9273  -44.4760 O.2       1 UNK        -0.4969 
     27 C          17.8005  -26.5487  -41.2797 C.2       3 UNK         0.5005 
     28 O          17.2588  -26.7864  -40.1978 O.2       3 UNK        -0.5279 
     29 N          19.0205  -26.0037  -41.3949 N.am      4 UNK        -0.4463 
     30 CA         19.9652  -25.8165  -40.2956 C.3       4 UNK         0.0283 
     31 CB         21.0310  -24.8008  -40.7409 C.3       4 UNK        -0.1875 
     32 C          20.6222  -27.1529  -39.9083 C.2       4 UNK         0.4949 
     33 O          20.5717  -28.1144  -40.6793 O.2       4 UNK        -0.5039 
     34 N          21.2790  -27.1831  -38.7417 N.am      5 UNK        -0.4663 
     35 CA         22.0358  -28.3303  -38.2218 C.3       5 UNK         0.0242 
     36 CB         22.2260  -28.1535  -36.7035 C.3       5 UNK        -0.1982 
     37 C          23.3719  -28.5431  -38.9679 C.2       5 UNK         0.5017 
     38 O          24.4428  -28.4802  -38.3607 O.2       5 UNK        -0.5012 
     39 N          23.2760  -28.7559  -40.2844 N.am      6 UNK        -0.4439 
     40 CA         24.3817  -29.0041  -41.2059 C.3       6 UNK         0.0297 
     41 CB         23.8528  -28.8661  -42.6442 C.3       6 UNK        -0.2006 
     42 C          25.0112  -30.3909  -41.0003 C.2       6 UNK         0.4892 
     43 O          24.3697  -31.2935  -40.4545 O.2       6 UNK        -0.5089 
     44 N          26.2366  -30.5548  -41.5182 N.am      7 UNK        -0.4243 
     45 CA         27.0234  -31.7962  -41.4917 C.3       7 UNK         0.0196 
     46 CB         28.4148  -31.5191  -42.0844 C.3       7 UNK        -0.2007 
     47 C          26.3655  -32.9964  -42.2024 C.2       7 UNK         0.5020 
     48 O          26.7551  -34.1348  -41.9430 O.2       7 UNK        -0.5147 
     49 N          25.3699  -32.7314  -43.0606 N.am      8 UNK        -0.4734 
     50 CA         24.4903  -33.7355  -43.6646 C.3       8 UNK         0.0238 
     51 CB         23.6203  -33.0620  -44.7391 C.3       8 UNK        -0.1912 
     52 C          23.6016  -34.4624  -42.6363 C.2       8 UNK         0.5038 
     53 O          23.2559  -35.6221  -42.8668 O.2       8 UNK        -0.5046 
     54 N          23.2609  -33.7799  -41.5348 N.am      9 UNK        -0.4200 
     55 CA         22.5167  -34.3331  -40.3945 C.3       9 UNK         0.0839 
     56 C          23.4512  -34.6066  -39.1879 C.2       9 UNK         0.5513 
     57 N          24.4273  -33.7490  -38.9134 N.am      9 UNK        -0.7519 
     58 O          23.2905  -35.6087  -38.4965 O.2       9 UNK        -0.4960 
     59 C59        21.3410  -33.4201  -39.9637 C.3       10 UNK        -0.0876 
     60 S60        20.1467  -33.1305  -41.3123 S.3       10 UNK        -0.2414 
     61 C61        20.3429  -31.3392  -41.5417 C.3       10 UNK         0.0169 
     62 H62        20.4811  -22.4803  -50.2472 H         1 UNK         0.0903 
     63 H63        18.9639  -23.3742  -50.1389 H         1 UNK         0.0903 
     64 H64        19.1174  -21.8004  -49.3556 H         1 UNK         0.0903 
     65 H65        19.0817  -25.0654  -48.6791 H         1 UNK         0.3096 
     66 H66        21.1714  -25.2896  -46.7333 H         1 UNK         0.1121 
     67 H67        19.7954  -27.1656  -48.0668 H         1 UNK         0.0849 
     68 H68        18.7073  -27.1005  -46.7108 H         1 UNK         0.0849 
     69 H69        19.3237  -29.5738  -47.0935 H         1 UNK         0.0865 
     70 H70        20.7696  -30.3528  -46.5163 H         1 UNK         0.0865 
     71 H71        21.1767  -30.5714  -44.0228 H         1 UNK         0.1346 
     72 H72        17.6498  -30.9690  -41.6260 H         1 UNK         0.1412 
     73 H73        17.3675  -29.4302  -45.6245 H         1 UNK         0.1426 
     74 H74        15.3897  -31.0108  -43.3320 H         1 UNK         0.0716 
     75 H75        15.3779  -29.5629  -44.3075 H         1 UNK         0.0716 
     76 H76        15.0551  -26.6578  -41.8423 H         1 UNK         0.0695 
     77 H77        15.1210  -27.2376  -43.4795 H         1 UNK         0.0695 
     78 H78        17.6683  -27.7046  -43.0104 H         1 UNK         0.0983 
     79 H79        17.8598  -26.0818  -44.4069 H         1 UNK         0.3095 
     80 H80        16.5279  -23.2381  -45.1553 H         1 UNK         0.0454 
     81 H81        18.4626  -21.6717  -44.8412 H         1 UNK         0.0851 
     82 H82        19.0201  -22.6357  -43.4744 H         1 UNK         0.0851 
     83 H83        17.4798  -21.7975  -43.3930 H         1 UNK         0.0851 
     84 H84        17.8697  -24.1927  -46.6164 H         1 UNK         0.2976 
     85 H85        19.3873  -25.8490  -42.3253 H         1 UNK         0.3116 
     86 H86        19.4318  -25.4210  -39.4286 H         1 UNK         0.0646 
     87 H87        21.6030  -25.1653  -41.5957 H         1 UNK         0.0847 
     88 H88        20.5786  -23.8503  -41.0245 H         1 UNK         0.0847 
     89 H89        21.7405  -24.5925  -39.9392 H         1 UNK         0.0847 
     90 H90        21.3058  -26.3422  -38.1823 H         1 UNK         0.3040 
     91 H91        21.4418  -29.2343  -38.3762 H         1 UNK         0.1015 
     92 H92        22.7525  -29.0070  -36.2738 H         1 UNK         0.0786 
     93 H93        21.2676  -28.0761  -36.1897 H         1 UNK         0.0786 
     94 H94        22.8064  -27.2602  -36.4695 H         1 UNK         0.0786 
     95 H95        22.3380  -28.7488  -40.6778 H         1 UNK         0.3172 
     96 H96        25.1466  -28.2443  -41.0330 H         1 UNK         0.0595 
     97 H97        24.6543  -28.9747  -43.3759 H         1 UNK         0.0839 
     98 H98        23.4006  -27.8877  -42.8093 H         1 UNK         0.0839 
     99 H99        23.0995  -29.6209  -42.8710 H         1 UNK         0.0839 
    100 H100       26.6762  -29.7618  -41.9639 H         1 UNK         0.2998 
    101 H101       27.1471  -32.0796  -40.4443 H         1 UNK         0.0822 
    102 H102       29.0400  -32.4127  -42.0498 H         1 UNK         0.0787 
    103 H103       28.9371  -30.7410  -41.5274 H         1 UNK         0.0787 
    104 H104       28.3537  -31.2049  -43.1272 H         1 UNK         0.0787 
    105 H105       25.1400  -31.7636  -43.2295 H         1 UNK         0.3055 
    106 H106       25.1178  -34.4890  -44.1460 H         1 UNK         0.1106 
    107 H107       24.2310  -32.6016  -45.5159 H         1 UNK         0.0828 
    108 H108       22.9724  -33.7908  -45.2283 H         1 UNK         0.0828 
    109 H109       22.9771  -32.2911  -44.3133 H         1 UNK         0.0828 
    110 H110       23.6346  -32.8473  -41.3979 H         1 UNK         0.2931 
    111 H111       22.0835  -35.2945  -40.6775 H         1 UNK         0.0412 
    112 H112       24.5183  -32.8870  -39.4425 H         1 UNK         0.3472 
    113 H113       25.0377  -33.9287  -38.1324 H         1 UNK         0.3472 
    114 H114       21.7170  -32.4655  -39.5894 H         1 UNK         0.0970 
    115 H115       20.7955  -33.8735  -39.1338 H         1 UNK         0.0970 
    116 H116       21.3976  -31.1099  -41.7022 H         1 UNK         0.0612 
    117 H117       20.0492  -30.8247  -40.6255 H         1 UNK         0.0612 
@<TRIPOS>BOND
     1    1    2 1    
     2    1   62 1    
     3    1   63 1    
     4    1   64 1    
     5    2    3 2    
     6    2    4 am   BACKBONE|DICT|INTERRES
     7    4    5 1    
     8    4   65 1    
     9    5    6 1    
    10    5   25 1    
    11    5   66 1    
    12    6    7 1    
    13    6   67 1    
    14    6   68 1    
    15    7    8 1    
    16    8    9 1    
    17    8   69 1    
    18    8   70 1    
    19    9   10 ar   
    20    9   14 ar   
    21   10   11 ar   
    22   10   71 1    
    23   11   12 ar   
    24   11   61 1    
    25   12   13 ar   
    26   12   72 1    
    27   13   14 ar   
    28   13   15 1    
    29   14   73 1    
    30   15   16 1    
    31   15   74 1    
    32   15   75 1    
    33   16   17 1    
    34   17   18 1    
    35   17   76 1    
    36   17   77 1    
    37   18   19 1    
    38   18   27 1    
    39   18   78 1    
    40   19   20 am   BACKBONE|DICT|INTERRES
    41   19   79 1    
    42   20   21 2    
    43   20   22 1    
    44   22   23 1    
    45   22   24 1    
    46   22   80 1    
    47   23   81 1    
    48   23   82 1    
    49   23   83 1    
    50   24   25 am   BACKBONE|DICT|INTERRES
    51   24   84 1    
    52   25   26 2    
    53   27   28 2    
    54   27   29 am   BACKBONE|DICT|INTERRES
    55   29   30 1    
    56   29   85 1    
    57   30   31 1    
    58   30   32 1    
    59   30   86 1    
    60   31   87 1    
    61   31   88 1    
    62   31   89 1    
    63   32   33 2    
    64   32   34 am   BACKBONE|DICT|INTERRES
    65   34   35 1    
    66   34   90 1    
    67   35   36 1    
    68   35   37 1    
    69   35   91 1    
    70   36   92 1    
    71   36   93 1    
    72   36   94 1    
    73   37   38 2    
    74   37   39 am   BACKBONE|DICT|INTERRES
    75   39   40 1    
    76   39   95 1    
    77   40   41 1    
    78   40   42 1    
    79   40   96 1    
    80   41   97 1    
    81   41   98 1    
    82   41   99 1    
    83   42   43 2    
    84   42   44 am   BACKBONE|DICT|INTERRES
    85   44   45 1    
    86   44  100 1    
    87   45   46 1    
    88   45   47 1    
    89   45  101 1    
    90   46  102 1    
    91   46  103 1    
    92   46  104 1    
    93   47   48 2    
    94   47   49 am   BACKBONE|DICT|INTERRES
    95   49   50 1    
    96   49  105 1    
    97   50   51 1    
    98   50   52 1    
    99   50  106 1    
   100   51  107 1    
   101   51  108 1    
   102   51  109 1    
   103   52   53 2    
   104   52   54 am   BACKBONE|DICT|INTERRES
   105   54   55 1    
   106   54  110 1    
   107   55   56 1    
   108   55   59 1    
   109   55  111 1    
   110   56   57 am   BACKBONE|DICT|INTERRES
   111   56   58 2    
   112   57  112 1    
   113   57  113 1    
   114   59   60 1    
   115   59  114 1    
   116   59  115 1    
   117   60   61 1    
   118   61  116 1    
   119   61  117 1    
@<TRIPOS>SUBSTRUCTURE
     1 UNK         1 GROUP             0       ****    0 ROOT    
