@<TRIPOS>MOLECULE
3R8
117   119    1
SMALL
USER_CHARGES


@<TRIPOS>ATOM
      1 CA         20.8977  -23.6017  -40.3482 C.3       0 UNK        -0.2013 
      2 C          19.4434  -23.8858  -40.6911 C.2       0 UNK         0.4866 
      3 O          18.6218  -22.9685  -40.6842 O.2       0 UNK        -0.5176 
      4 N          19.1180  -25.1512  -40.9797 N.am      1 UNK        -0.4884 
      5 CA         17.7792  -25.5964  -41.3889 C.3       1 UNK         0.0853 
      6 C6         17.5368  -27.1036  -41.1007 C.3       10 UNK        -0.0849 
      7 S7         18.8739  -28.1983  -41.6936 S.3       10 UNK        -0.2776 
      8 C8         18.0725  -29.1371  -43.0335 C.3       10 UNK         0.0316 
      9 C9         19.0877  -29.8570  -43.9176 C.ar      10 UNK        -0.0863 
     10 C10        20.0989  -30.6413  -43.3521 C.ar      10 UNK        -0.1009 
     11 C11        21.0309  -31.2998  -44.1579 C.ar      10 UNK        -0.0712 
     12 C12        20.9492  -31.1691  -45.5476 C.ar      10 UNK        -0.0894 
     13 C13        19.9424  -30.3935  -46.1326 C.ar      10 UNK        -0.0745 
     14 C14        19.0098  -29.7508  -45.3107 C.ar      10 UNK        -0.0972 
     15 C15        19.8561  -30.2793  -47.6533 C.3       10 UNK         0.0209 
     16 S16        19.7482  -28.5614  -48.2639 S.3       10 UNK        -0.2568 
     17 C17        21.3327  -27.8589  -47.6887 C.3       10 UNK        -0.0983 
     18 CA         21.3419  -26.3007  -47.6429 C.3       3 UNK         0.0876 
     19 N          20.1746  -25.7351  -46.9383 N.am      3 UNK        -0.4424 
     20 C          19.8557  -25.9403  -45.6533 C.2       2 UNK         0.4918 
     21 O          20.5873  -26.5323  -44.8566 O.2       2 UNK        -0.4875 
     22 CA         18.5167  -25.3637  -45.1709 C.3       2 UNK         0.0481 
     23 CB         17.3294  -26.0528  -45.8784 C.3       2 UNK        -0.1831 
     24 N          18.4686  -25.5608  -43.7256 N.am      2 UNK        -0.4498 
     25 C          17.5038  -25.2337  -42.8610 C.2       1 UNK         0.5027 
     26 O          16.4569  -24.6616  -43.1679 O.2       1 UNK        -0.4969 
     27 C          22.7018  -25.7729  -47.1164 C.2       3 UNK         0.5005 
     28 O          23.7408  -26.3498  -47.4436 O.2       3 UNK        -0.5279 
     29 N          22.6720  -24.7117  -46.2912 N.am      4 UNK        -0.4463 
     30 CA         23.7642  -24.2045  -45.4483 C.3       4 UNK         0.0283 
     31 CB         24.8990  -23.6048  -46.3062 C.3       4 UNK        -0.1875 
     32 C          24.2670  -25.2515  -44.4275 C.2       4 UNK         0.4949 
     33 O          25.4499  -25.2504  -44.0819 O.2       4 UNK        -0.5039 
     34 N          23.3639  -26.1292  -43.9726 N.am      5 UNK        -0.4663 
     35 CA         23.6274  -27.2432  -43.0668 C.3       5 UNK         0.0242 
     36 CB         23.4361  -28.5500  -43.8573 C.3       5 UNK        -0.1982 
     37 C          22.6773  -27.1882  -41.8605 C.2       5 UNK         0.5017 
     38 O          21.7738  -26.3491  -41.8123 O.2       5 UNK        -0.5012 
     39 N          22.9082  -28.0948  -40.9060 N.am      6 UNK        -0.4439 
     40 CA         22.0720  -28.3265  -39.7312 C.3       6 UNK         0.0297 
     41 CB         22.9149  -28.1065  -38.4641 C.3       6 UNK        -0.2006 
     42 C          21.5439  -29.7654  -39.7813 C.2       6 UNK         0.4892 
     43 O          22.1716  -30.6283  -40.3989 O.2       6 UNK        -0.5089 
     44 N          20.4200  -30.0061  -39.0930 N.am      7 UNK        -0.4243 
     45 CA         19.6693  -31.2703  -39.0717 C.3       7 UNK         0.0196 
     46 CB         18.3254  -31.0306  -38.3637 C.3       7 UNK        -0.2007 
     47 C          20.4062  -32.4787  -38.4569 C.2       7 UNK         0.5020 
     48 O          19.8826  -33.5926  -38.5079 O.2       7 UNK        -0.5147 
     49 N          21.6121  -32.2599  -37.9149 N.am      8 UNK        -0.4734 
     50 CA         22.5236  -33.2739  -37.3752 C.3       8 UNK         0.0238 
     51 CB         23.7491  -32.5665  -36.7730 C.3       8 UNK        -0.1912 
     52 C          22.9659  -34.3503  -38.3878 C.2       8 UNK         0.5038 
     53 O          23.4493  -35.3992  -37.9588 O.2       8 UNK        -0.5046 
     54 N          22.7832  -34.0966  -39.6927 N.am      9 UNK        -0.4200 
     55 CA         22.9331  -35.0961  -40.7614 C.3       9 UNK         0.0839 
     56 C          21.8969  -36.2615  -40.7207 C.2       9 UNK         0.5513 
     57 N          20.7856  -36.1441  -40.0008 N.am      9 UNK        -0.7519 
     58 O          22.1156  -37.2952  -41.3473 O.2       9 UNK        -0.4960 
     59 C59        23.0142  -34.4393  -42.1655 C.3       10 UNK        -0.0876 
     60 S60        21.4733  -33.6095  -42.6965 S.3       10 UNK        -0.2414 
     61 C61        22.1361  -32.1317  -43.5224 C.3       10 UNK         0.0169 
     62 H62        21.4479  -23.3232  -41.2465 H         1 UNK         0.0903 
     63 H63        20.9699  -22.7830  -39.6328 H         1 UNK         0.0903 
     64 H64        21.3798  -24.4742  -39.9075 H         1 UNK         0.0903 
     65 H65        19.8564  -25.8456  -41.0498 H         1 UNK         0.3096 
     66 H66        17.0480  -25.0408  -40.7965 H         1 UNK         0.1121 
     67 H67        16.5756  -27.4301  -41.5027 H         1 UNK         0.0849 
     68 H68        17.4613  -27.2489  -40.0221 H         1 UNK         0.0849 
     69 H69        17.4665  -28.4542  -43.6294 H         1 UNK         0.0865 
     70 H70        17.3889  -29.8689  -42.6015 H         1 UNK         0.0865 
     71 H71        20.1682  -30.7375  -42.2782 H         1 UNK         0.1346 
     72 H72        21.6707  -31.6743  -46.1748 H         1 UNK         0.1412 
     73 H73        18.2272  -29.1616  -45.7652 H         1 UNK         0.1426 
     74 H74        18.9748  -30.8249  -47.9924 H         1 UNK         0.0716 
     75 H75        20.7143  -30.7588  -48.1267 H         1 UNK         0.0716 
     76 H76        22.1157  -28.2283  -48.3533 H         1 UNK         0.0695 
     77 H77        21.5602  -28.2625  -46.7005 H         1 UNK         0.0695 
     78 H78        21.2707  -25.9435  -48.6713 H         1 UNK         0.0983 
     79 H79        19.5318  -25.2146  -47.5186 H         1 UNK         0.3095 
     80 H80        18.5043  -24.2927  -45.3791 H         1 UNK         0.0454 
     81 H81        17.2587  -27.1063  -45.6150 H         1 UNK         0.0851 
     82 H82        17.4200  -25.9964  -46.9635 H         1 UNK         0.0851 
     83 H83        16.3802  -25.5835  -45.6223 H         1 UNK         0.0851 
     84 H84        19.2914  -26.0400  -43.3702 H         1 UNK         0.2976 
     85 H85        21.7635  -24.3099  -46.1077 H         1 UNK         0.3116 
     86 H86        23.3375  -23.3931  -44.8570 H         1 UNK         0.0646 
     87 H87        25.4310  -24.3717  -46.8696 H         1 UNK         0.0847 
     88 H88        25.6336  -23.0960  -45.6810 H         1 UNK         0.0847 
     89 H89        24.5163  -22.8713  -47.0155 H         1 UNK         0.0847 
     90 H90        22.3933  -26.0532  -44.2661 H         1 UNK         0.3040 
     91 H91        24.6508  -27.1951  -42.6888 H         1 UNK         0.1015 
     92 H92        24.0630  -28.5701  -44.7490 H         1 UNK         0.0786 
     93 H93        22.4000  -28.6727  -44.1781 H         1 UNK         0.0786 
     94 H94        23.7011  -29.4206  -43.2581 H         1 UNK         0.0786 
     95 H95        23.6075  -28.8059  -41.0713 H         1 UNK         0.3172 
     96 H96        21.2213  -27.6420  -39.7184 H         1 UNK         0.0595 
     97 H97        23.7603  -28.7943  -38.4146 H         1 UNK         0.0839 
     98 H98        23.3088  -27.0907  -38.4251 H         1 UNK         0.0839 
     99 H99        22.3187  -28.2552  -37.5629 H         1 UNK         0.0839 
    100 H100       19.9940  -29.2357  -38.5982 H         1 UNK         0.2998 
    101 H101       19.4589  -31.5378  -40.1091 H         1 UNK         0.0822 
    102 H102       17.7111  -31.9323  -38.3692 H         1 UNK         0.0787 
    103 H103       18.4655  -30.7378  -37.3225 H         1 UNK         0.0787 
    104 H104       17.7498  -30.2490  -38.8606 H         1 UNK         0.0787 
    105 H105       21.9646  -31.3149  -37.9509 H         1 UNK         0.3055 
    106 H106       21.9955  -33.7948  -36.5736 H         1 UNK         0.1106 
    107 H107       24.4392  -33.2867  -36.3310 H         1 UNK         0.0828 
    108 H108       24.3024  -32.0066  -37.5282 H         1 UNK         0.0828 
    109 H109       23.4605  -31.8729  -35.9830 H         1 UNK         0.0828 
    110 H110       22.3853  -33.2075  -39.9634 H         1 UNK         0.2931 
    111 H111       23.9024  -35.5697  -40.5929 H         1 UNK         0.0412 
    112 H112       20.5798  -35.2875  -39.4992 H         1 UNK         0.3472 
    113 H113       20.1280  -36.9071  -39.9812 H         1 UNK         0.3472 
    114 H114       23.8344  -33.7199  -42.1771 H         1 UNK         0.0970 
    115 H115       23.2736  -35.1876  -42.9168 H         1 UNK         0.0970 
    116 H116       22.8652  -32.4399  -44.2732 H         1 UNK         0.0612 
    117 H117       22.6760  -31.5251  -42.7961 H         1 UNK         0.0612 
@<TRIPOS>BOND
     1    1    2 1    
     2    1   62 1    
     3    1   63 1    
     4    1   64 1    
     5    2    3 2    
     6    2    4 am   BACKBONE|DICT|INTERRES
     7    4    5 1    
     8    4   65 1    
     9    5    6 1    
    10    5   25 1    
    11    5   66 1    
    12    6    7 1    
    13    6   67 1    
    14    6   68 1    
    15    7    8 1    
    16    8    9 1    
    17    8   69 1    
    18    8   70 1    
    19    9   10 ar   
    20    9   14 ar   
    21   10   11 ar   
    22   10   71 1    
    23   11   12 ar   
    24   11   61 1    
    25   12   13 ar   
    26   12   72 1    
    27   13   14 ar   
    28   13   15 1    
    29   14   73 1    
    30   15   16 1    
    31   15   74 1    
    32   15   75 1    
    33   16   17 1    
    34   17   18 1    
    35   17   76 1    
    36   17   77 1    
    37   18   19 1    
    38   18   27 1    
    39   18   78 1    
    40   19   20 am   BACKBONE|DICT|INTERRES
    41   19   79 1    
    42   20   21 2    
    43   20   22 1    
    44   22   23 1    
    45   22   24 1    
    46   22   80 1    
    47   23   81 1    
    48   23   82 1    
    49   23   83 1    
    50   24   25 am   BACKBONE|DICT|INTERRES
    51   24   84 1    
    52   25   26 2    
    53   27   28 2    
    54   27   29 am   BACKBONE|DICT|INTERRES
    55   29   30 1    
    56   29   85 1    
    57   30   31 1    
    58   30   32 1    
    59   30   86 1    
    60   31   87 1    
    61   31   88 1    
    62   31   89 1    
    63   32   33 2    
    64   32   34 am   BACKBONE|DICT|INTERRES
    65   34   35 1    
    66   34   90 1    
    67   35   36 1    
    68   35   37 1    
    69   35   91 1    
    70   36   92 1    
    71   36   93 1    
    72   36   94 1    
    73   37   38 2    
    74   37   39 am   BACKBONE|DICT|INTERRES
    75   39   40 1    
    76   39   95 1    
    77   40   41 1    
    78   40   42 1    
    79   40   96 1    
    80   41   97 1    
    81   41   98 1    
    82   41   99 1    
    83   42   43 2    
    84   42   44 am   BACKBONE|DICT|INTERRES
    85   44   45 1    
    86   44  100 1    
    87   45   46 1    
    88   45   47 1    
    89   45  101 1    
    90   46  102 1    
    91   46  103 1    
    92   46  104 1    
    93   47   48 2    
    94   47   49 am   BACKBONE|DICT|INTERRES
    95   49   50 1    
    96   49  105 1    
    97   50   51 1    
    98   50   52 1    
    99   50  106 1    
   100   51  107 1    
   101   51  108 1    
   102   51  109 1    
   103   52   53 2    
   104   52   54 am   BACKBONE|DICT|INTERRES
   105   54   55 1    
   106   54  110 1    
   107   55   56 1    
   108   55   59 1    
   109   55  111 1    
   110   56   57 am   BACKBONE|DICT|INTERRES
   111   56   58 2    
   112   57  112 1    
   113   57  113 1    
   114   59   60 1    
   115   59  114 1    
   116   59  115 1    
   117   60   61 1    
   118   61  116 1    
   119   61  117 1    
@<TRIPOS>SUBSTRUCTURE
     1 UNK         1 GROUP             0       ****    0 ROOT    
