@<TRIPOS>MOLECULE
3R8
117   119    1
SMALL
USER_CHARGES


@<TRIPOS>ATOM
      1 CA         14.8448  -24.5978  -49.4535 C.3       0 UNK        -0.2013 
      2 C          15.4732  -25.0356  -48.1382 C.2       0 UNK         0.4866 
      3 O          14.8387  -24.8978  -47.0920 O.2       0 UNK        -0.5176 
      4 N          16.7051  -25.5627  -48.2013 N.am      1 UNK        -0.4884 
      5 CA         17.5493  -26.0337  -47.0907 C.3       1 UNK         0.0853 
      6 C6         16.8848  -27.1326  -46.2128 C.3       10 UNK        -0.0849 
      7 S7         16.6531  -28.7095  -47.0950 S.3       10 UNK        -0.2776 
      8 C8         15.7637  -29.6914  -45.8374 C.3       10 UNK         0.0316 
      9 C9         16.4432  -29.6546  -44.4723 C.ar      10 UNK        -0.0863 
     10 C10        17.6882  -30.2638  -44.2840 C.ar      10 UNK        -0.1009 
     11 C11        18.3260  -30.1995  -43.0415 C.ar      10 UNK        -0.0712 
     12 C12        17.6980  -29.5501  -41.9754 C.ar      10 UNK        -0.0894 
     13 C13        16.4670  -28.9163  -42.1565 C.ar      10 UNK        -0.0745 
     14 C14        15.8404  -28.9786  -43.4052 C.ar      10 UNK        -0.0972 
     15 C15        15.8196  -28.1513  -41.0111 C.3       10 UNK         0.0209 
     16 S16        16.2668  -26.3837  -41.0501 S.3       10 UNK        -0.2568 
     17 C17        17.8327  -26.3334  -40.1065 C.3       10 UNK        -0.0983 
     18 CA         19.1000  -26.4028  -40.9950 C.3       3 UNK         0.0876 
     19 N          19.0884  -25.4146  -42.0843 N.am      3 UNK        -0.4424 
     20 C          19.8891  -25.4685  -43.1557 C.2       2 UNK         0.4918 
     21 O          20.7878  -26.3002  -43.2966 O.2       2 UNK        -0.4875 
     22 CA         19.6159  -24.4637  -44.2765 C.3       2 UNK         0.0481 
     23 CB         20.8925  -23.7223  -44.7097 C.3       2 UNK        -0.1831 
     24 N          19.0881  -25.2503  -45.3810 N.am      2 UNK        -0.4498 
     25 C          18.0984  -24.8913  -46.2055 C.2       1 UNK         0.5027 
     26 O          17.6357  -23.7491  -46.2606 O.2       1 UNK        -0.4969 
     27 C          20.3879  -26.3728  -40.1408 C.2       3 UNK         0.5005 
     28 O          20.6689  -27.3417  -39.4333 O.2       3 UNK        -0.5279 
     29 N          21.1778  -25.2952  -40.2657 N.am      4 UNK        -0.4463 
     30 CA         22.5124  -25.1190  -39.6839 C.3       4 UNK         0.0283 
     31 CB         22.9554  -23.6620  -39.8998 C.3       4 UNK        -0.1875 
     32 C          23.5840  -26.0950  -40.2178 C.2       4 UNK         0.4949 
     33 O          24.6865  -26.1159  -39.6706 O.2       4 UNK        -0.5039 
     34 N          23.2564  -26.8851  -41.2542 N.am      5 UNK        -0.4663 
     35 CA         24.0832  -27.9568  -41.8220 C.3       5 UNK         0.0242 
     36 CB         23.3172  -28.6120  -42.9837 C.3       5 UNK        -0.1982 
     37 C          24.5202  -29.0259  -40.8019 C.2       5 UNK         0.5017 
     38 O          25.6232  -29.5583  -40.9341 O.2       5 UNK        -0.5012 
     39 N          23.6657  -29.2973  -39.8008 N.am      6 UNK        -0.4439 
     40 CA         23.9020  -30.1720  -38.6456 C.3       6 UNK         0.0297 
     41 CB         24.8562  -29.4783  -37.6473 C.3       6 UNK        -0.2006 
     42 C          24.3549  -31.5851  -39.0619 C.2       6 UNK         0.4892 
     43 O          23.5422  -32.3390  -39.5955 O.2       6 UNK        -0.5089 
     44 N          25.6376  -31.9121  -38.8498 N.am      7 UNK        -0.4243 
     45 CA         26.2606  -33.1849  -39.2268 C.3       7 UNK         0.0196 
     46 CB         27.7030  -33.2178  -38.6970 C.3       7 UNK        -0.2007 
     47 C          26.2375  -33.4757  -40.7393 C.2       7 UNK         0.5020 
     48 O          26.2138  -34.6456  -41.1226 O.2       7 UNK        -0.5147 
     49 N          26.2087  -32.4264  -41.5750 N.am      8 UNK        -0.4734 
     50 CA         26.0956  -32.5417  -43.0335 C.3       8 UNK         0.0238 
     51 CB         26.6065  -31.2499  -43.6932 C.3       8 UNK        -0.1912 
     52 C          24.6741  -32.8939  -43.5162 C.2       8 UNK         0.5038 
     53 O          24.5089  -33.1938  -44.6993 O.2       8 UNK        -0.5046 
     54 N          23.6823  -32.8699  -42.6132 N.am      9 UNK        -0.4200 
     55 CA         22.3099  -33.3383  -42.8607 C.3       9 UNK         0.0839 
     56 C          22.1857  -34.8851  -43.0130 C.2       9 UNK         0.5513 
     57 N          23.1647  -35.6757  -42.5850 N.am      9 UNK        -0.7519 
     58 O          21.1929  -35.3773  -43.5419 O.2       9 UNK        -0.4960 
     59 C59        21.3433  -32.7857  -41.7790 C.3       10 UNK        -0.0876 
     60 S60        19.6363  -32.5360  -42.3688 S.3       10 UNK        -0.2414 
     61 C61        19.7131  -30.7876  -42.8533 C.3       10 UNK         0.0169 
     62 H62        14.6208  -23.5317  -49.4250 H         1 UNK         0.0903 
     63 H63        15.5011  -24.7833  -50.3036 H         1 UNK         0.0903 
     64 H64        13.9131  -25.1373  -49.6216 H         1 UNK         0.0903 
     65 H65        17.1488  -25.6199  -49.1078 H         1 UNK         0.3096 
     66 H66        18.4260  -26.4758  -47.5680 H         1 UNK         0.1121 
     67 H67        15.9283  -26.8010  -45.8076 H         1 UNK         0.0849 
     68 H68        17.5052  -27.3560  -45.3436 H         1 UNK         0.0849 
     69 H69        14.7383  -29.3249  -45.7669 H         1 UNK         0.0865 
     70 H70        15.6935  -30.7255  -46.1777 H         1 UNK         0.0865 
     71 H71        18.1707  -30.7662  -45.1115 H         1 UNK         0.1346 
     72 H72        18.1853  -29.5092  -41.0107 H         1 UNK         0.1412 
     73 H73        14.8888  -28.4846  -43.5484 H         1 UNK         0.1426 
     74 H74        16.0883  -28.5906  -40.0494 H         1 UNK         0.0716 
     75 H75        14.7344  -28.2360  -41.0861 H         1 UNK         0.0716 
     76 H76        17.8341  -25.4088  -39.5262 H         1 UNK         0.0695 
     77 H77        17.8326  -27.1440  -39.3753 H         1 UNK         0.0695 
     78 H78        19.1093  -27.3786  -41.4783 H         1 UNK         0.0983 
     79 H79        18.3488  -24.7272  -42.0512 H         1 UNK         0.3095 
     80 H80        18.8751  -23.7363  -43.9373 H         1 UNK         0.0454 
     81 H81        21.3155  -23.1561  -43.8792 H         1 UNK         0.0851 
     82 H82        21.6624  -24.4096  -45.0630 H         1 UNK         0.0851 
     83 H83        20.6839  -23.0151  -45.5125 H         1 UNK         0.0851 
     84 H84        19.4229  -26.2053  -45.4018 H         1 UNK         0.2976 
     85 H85        20.8552  -24.5559  -40.8729 H         1 UNK         0.3116 
     86 H86        22.4296  -25.2962  -38.6096 H         1 UNK         0.0646 
     87 H87        23.9259  -23.4746  -39.4380 H         1 UNK         0.0847 
     88 H88        22.2498  -22.9602  -39.4548 H         1 UNK         0.0847 
     89 H89        23.0488  -23.4212  -40.9596 H         1 UNK         0.0847 
     90 H90        22.3468  -26.7545  -41.6790 H         1 UNK         0.3040 
     91 H91        24.9916  -27.4978  -42.2176 H         1 UNK         0.1015 
     92 H92        23.1117  -27.8929  -43.7771 H         1 UNK         0.0786 
     93 H93        22.3632  -29.0247  -42.6546 H         1 UNK         0.0786 
     94 H94        23.8862  -29.4280  -43.4289 H         1 UNK         0.0786 
     95 H95        22.7782  -28.8109  -39.8056 H         1 UNK         0.3172 
     96 H96        22.9387  -30.2956  -38.1486 H         1 UNK         0.0595 
     97 H97        24.4290  -28.5400  -37.2928 H         1 UNK         0.0839 
     98 H98        25.8242  -29.2438  -38.0917 H         1 UNK         0.0839 
     99 H99        25.0311  -30.0997  -36.7678 H         1 UNK         0.0839 
    100 H100       26.2417  -31.2159  -38.4378 H         1 UNK         0.2998 
    101 H101       25.6972  -33.9821  -38.7372 H         1 UNK         0.0822 
    102 H102       27.7312  -33.1093  -37.6126 H         1 UNK         0.0787 
    103 H103       28.1859  -34.1659  -38.9383 H         1 UNK         0.0787 
    104 H104       28.3104  -32.4228  -39.1317 H         1 UNK         0.0787 
    105 H105       26.1874  -31.4860  -41.1891 H         1 UNK         0.3055 
    106 H106       26.7439  -33.3575  -43.3616 H         1 UNK         0.1106 
    107 H107       26.0036  -30.3857  -43.4202 H         1 UNK         0.0828 
    108 H108       27.6374  -31.0407  -43.4075 H         1 UNK         0.0828 
    109 H109       26.5839  -31.3304  -44.7809 H         1 UNK         0.0828 
    110 H110       23.9011  -32.6366  -41.6516 H         1 UNK         0.2931 
    111 H111       22.0136  -32.9099  -43.8204 H         1 UNK         0.0412 
    112 H112       23.0754  -36.6736  -42.6959 H         1 UNK         0.3472 
    113 H113       23.9915  -35.2890  -42.1539 H         1 UNK         0.3472 
    114 H114       21.7059  -31.8280  -41.4034 H         1 UNK         0.0970 
    115 H115       21.3217  -33.4384  -40.9040 H         1 UNK         0.0970 
    116 H116       20.2945  -30.6922  -43.7717 H         1 UNK         0.0612 
    117 H117       20.2443  -30.2147  -42.0917 H         1 UNK         0.0612 
@<TRIPOS>BOND
     1    1    2 1    
     2    1   62 1    
     3    1   63 1    
     4    1   64 1    
     5    2    3 2    
     6    2    4 am   BACKBONE|DICT|INTERRES
     7    4    5 1    
     8    4   65 1    
     9    5    6 1    
    10    5   25 1    
    11    5   66 1    
    12    6    7 1    
    13    6   67 1    
    14    6   68 1    
    15    7    8 1    
    16    8    9 1    
    17    8   69 1    
    18    8   70 1    
    19    9   10 ar   
    20    9   14 ar   
    21   10   11 ar   
    22   10   71 1    
    23   11   12 ar   
    24   11   61 1    
    25   12   13 ar   
    26   12   72 1    
    27   13   14 ar   
    28   13   15 1    
    29   14   73 1    
    30   15   16 1    
    31   15   74 1    
    32   15   75 1    
    33   16   17 1    
    34   17   18 1    
    35   17   76 1    
    36   17   77 1    
    37   18   19 1    
    38   18   27 1    
    39   18   78 1    
    40   19   20 am   BACKBONE|DICT|INTERRES
    41   19   79 1    
    42   20   21 2    
    43   20   22 1    
    44   22   23 1    
    45   22   24 1    
    46   22   80 1    
    47   23   81 1    
    48   23   82 1    
    49   23   83 1    
    50   24   25 am   BACKBONE|DICT|INTERRES
    51   24   84 1    
    52   25   26 2    
    53   27   28 2    
    54   27   29 am   BACKBONE|DICT|INTERRES
    55   29   30 1    
    56   29   85 1    
    57   30   31 1    
    58   30   32 1    
    59   30   86 1    
    60   31   87 1    
    61   31   88 1    
    62   31   89 1    
    63   32   33 2    
    64   32   34 am   BACKBONE|DICT|INTERRES
    65   34   35 1    
    66   34   90 1    
    67   35   36 1    
    68   35   37 1    
    69   35   91 1    
    70   36   92 1    
    71   36   93 1    
    72   36   94 1    
    73   37   38 2    
    74   37   39 am   BACKBONE|DICT|INTERRES
    75   39   40 1    
    76   39   95 1    
    77   40   41 1    
    78   40   42 1    
    79   40   96 1    
    80   41   97 1    
    81   41   98 1    
    82   41   99 1    
    83   42   43 2    
    84   42   44 am   BACKBONE|DICT|INTERRES
    85   44   45 1    
    86   44  100 1    
    87   45   46 1    
    88   45   47 1    
    89   45  101 1    
    90   46  102 1    
    91   46  103 1    
    92   46  104 1    
    93   47   48 2    
    94   47   49 am   BACKBONE|DICT|INTERRES
    95   49   50 1    
    96   49  105 1    
    97   50   51 1    
    98   50   52 1    
    99   50  106 1    
   100   51  107 1    
   101   51  108 1    
   102   51  109 1    
   103   52   53 2    
   104   52   54 am   BACKBONE|DICT|INTERRES
   105   54   55 1    
   106   54  110 1    
   107   55   56 1    
   108   55   59 1    
   109   55  111 1    
   110   56   57 am   BACKBONE|DICT|INTERRES
   111   56   58 2    
   112   57  112 1    
   113   57  113 1    
   114   59   60 1    
   115   59  114 1    
   116   59  115 1    
   117   60   61 1    
   118   61  116 1    
   119   61  117 1    
@<TRIPOS>SUBSTRUCTURE
     1 UNK         1 GROUP             0       ****    0 ROOT    
