@<TRIPOS>MOLECULE
3R8
117   119    1
SMALL
USER_CHARGES


@<TRIPOS>ATOM
      1 CA         18.3644  -24.4302  -39.6596 C.3       0 UNK        -0.2013 
      2 C          17.7307  -24.7392  -41.0078 C.2       0 UNK         0.4866 
      3 O          16.5158  -24.6142  -41.1610 O.2       0 UNK        -0.5176 
      4 N          18.5480  -25.1413  -41.9839 N.am      1 UNK        -0.4884 
      5 CA         18.1712  -25.4648  -43.3583 C.3       1 UNK         0.0853 
      6 C6         17.4098  -26.8150  -43.4697 C.3       10 UNK        -0.0849 
      7 S7         16.3605  -26.8933  -44.9563 S.3       10 UNK        -0.2776 
      8 C8         15.7722  -28.6185  -44.8764 C.3       10 UNK         0.0316 
      9 C9         16.8485  -29.6662  -45.1592 C.ar      10 UNK        -0.0863 
     10 C10        16.8579  -30.8583  -44.4275 C.ar      10 UNK        -0.1009 
     11 C11        17.7713  -31.8756  -44.7219 C.ar      10 UNK        -0.0712 
     12 C12        18.6805  -31.6909  -45.7693 C.ar      10 UNK        -0.0894 
     13 C13        18.7280  -30.4816  -46.4705 C.ar      10 UNK        -0.0745 
     14 C14        17.7931  -29.4846  -46.1760 C.ar      10 UNK        -0.0972 
     15 C15        19.7768  -30.2399  -47.5532 C.3       10 UNK         0.0209 
     16 S16        21.4887  -30.7112  -47.0985 S.3       10 UNK        -0.2568 
     17 C17        21.6666  -30.2380  -45.3420 C.3       10 UNK        -0.0983 
     18 CA         22.1145  -28.7756  -45.1087 C.3       3 UNK         0.0876 
     19 N          21.1869  -27.7939  -45.6718 N.am      3 UNK        -0.4424 
     20 C          21.5618  -26.6125  -46.1784 C.2       2 UNK         0.4918 
     21 O          22.7324  -26.2777  -46.3617 O.2       2 UNK        -0.4875 
     22 CA         20.4347  -25.6103  -46.4931 C.3       2 UNK         0.0481 
     23 CB         19.8768  -25.8445  -47.9059 C.3       2 UNK        -0.1831 
     24 N          19.3326  -25.6184  -45.5213 N.am      2 UNK        -0.4498 
     25 C          19.4618  -25.4396  -44.1988 C.2       1 UNK         0.5027 
     26 O          20.5490  -25.2868  -43.6344 O.2       1 UNK        -0.4969 
     27 C          22.2726  -28.5214  -43.5983 C.2       3 UNK         0.5005 
     28 O          23.3966  -28.3731  -43.1186 O.2       3 UNK        -0.5279 
     29 N          21.1399  -28.4991  -42.8750 N.am      4 UNK        -0.4463 
     30 CA         21.0374  -28.5349  -41.4085 C.3       4 UNK         0.0283 
     31 CB         19.5602  -28.6719  -41.0058 C.3       4 UNK        -0.1875 
     32 C          21.6994  -27.3729  -40.6421 C.2       4 UNK         0.4949 
     33 O          21.8702  -27.4796  -39.4283 O.2       4 UNK        -0.5039 
     34 N          22.0725  -26.2908  -41.3376 N.am      5 UNK        -0.4663 
     35 CA         22.9121  -25.2183  -40.7973 C.3       5 UNK         0.0242 
     36 CB         22.8781  -24.0170  -41.7555 C.3       5 UNK        -0.1982 
     37 C          24.3676  -25.6568  -40.5331 C.2       5 UNK         0.5017 
     38 O          25.0368  -25.0189  -39.7191 O.2       5 UNK        -0.5012 
     39 N          24.8308  -26.7148  -41.2153 N.am      6 UNK        -0.4439 
     40 CA         26.1734  -27.2847  -41.0777 C.3       6 UNK         0.0297 
     41 CB         26.9646  -27.0399  -42.3735 C.3       6 UNK        -0.2006 
     42 C          26.1305  -28.7851  -40.7473 C.2       6 UNK         0.4892 
     43 O          26.9095  -29.2358  -39.9060 O.2       6 UNK        -0.5089 
     44 N          25.2441  -29.5343  -41.4152 N.am      7 UNK        -0.4243 
     45 CA         25.0465  -30.9719  -41.2285 C.3       7 UNK         0.0196 
     46 CB         24.4398  -31.5527  -42.5190 C.3       7 UNK        -0.2007 
     47 C          24.1324  -31.2708  -40.0296 C.2       7 UNK         0.5020 
     48 O          23.4653  -30.3769  -39.5098 O.2       7 UNK        -0.5147 
     49 N          24.0661  -32.5524  -39.6527 N.am      8 UNK        -0.4734 
     50 CA         23.1853  -33.0743  -38.6001 C.3       8 UNK         0.0238 
     51 CB         23.8970  -34.2504  -37.9049 C.3       8 UNK        -0.1912 
     52 C          21.7905  -33.4845  -39.1236 C.2       8 UNK         0.5038 
     53 O          21.0953  -34.2406  -38.4427 O.2       8 UNK        -0.5046 
     54 N          21.4176  -33.0200  -40.3253 N.am      9 UNK        -0.4200 
     55 CA         20.1463  -33.3180  -41.0026 C.3       9 UNK         0.0839 
     56 C          18.9010  -32.8325  -40.2102 C.2       9 UNK         0.5513 
     57 N          17.8286  -33.6119  -40.1965 N.am      9 UNK        -0.7519 
     58 O          18.8899  -31.7424  -39.6440 O.2       9 UNK        -0.4960 
     59 C59        20.1417  -32.7740  -42.4604 C.3       10 UNK        -0.0876 
     60 S60        19.3583  -33.9418  -43.6228 S.3       10 UNK        -0.2414 
     61 C61        17.7268  -33.1771  -43.9232 C.3       10 UNK         0.0169 
     62 H62        17.9138  -25.0479  -38.8833 H         1 UNK         0.0903 
     63 H63        19.4381  -24.6194  -39.6608 H         1 UNK         0.0903 
     64 H64        18.2037  -23.3842  -39.3998 H         1 UNK         0.0903 
     65 H65        19.5521  -25.1580  -41.8436 H         1 UNK         0.3096 
     66 H66        17.5343  -24.6527  -43.7169 H         1 UNK         0.1121 
     67 H67        16.7496  -26.9528  -42.6122 H         1 UNK         0.0849 
     68 H68        18.0933  -27.6648  -43.4575 H         1 UNK         0.0849 
     69 H69        15.3178  -28.7859  -43.8984 H         1 UNK         0.0865 
     70 H70        14.9739  -28.7449  -45.6087 H         1 UNK         0.0865 
     71 H71        16.1310  -31.0079  -43.6404 H         1 UNK         0.1346 
     72 H72        19.3828  -32.4740  -46.0191 H         1 UNK         0.1412 
     73 H73        17.7909  -28.5682  -46.7497 H         1 UNK         0.1426 
     74 H74        19.4901  -30.7961  -48.4464 H         1 UNK         0.0716 
     75 H75        19.7878  -29.1893  -47.8440 H         1 UNK         0.0716 
     76 H76        20.7543  -30.4596  -44.7921 H         1 UNK         0.0695 
     77 H77        22.4151  -30.9149  -44.9261 H         1 UNK         0.0695 
     78 H78        23.0986  -28.6546  -45.5677 H         1 UNK         0.0983 
     79 H79        20.2020  -27.9885  -45.5867 H         1 UNK         0.3095 
     80 H80        20.8757  -24.6118  -46.4671 H         1 UNK         0.0454 
     81 H81        19.3504  -26.7956  -47.9840 H         1 UNK         0.0851 
     82 H82        19.1832  -25.0543  -48.1936 H         1 UNK         0.0851 
     83 H83        20.6779  -25.8530  -48.6465 H         1 UNK         0.0851 
     84 H84        18.4009  -25.7567  -45.8905 H         1 UNK         0.2976 
     85 H85        20.2696  -28.6113  -43.3697 H         1 UNK         0.3116 
     86 H86        21.5481  -29.4448  -41.0896 H         1 UNK         0.0646 
     87 H87        18.9944  -27.7674  -41.2205 H         1 UNK         0.0847 
     88 H88        19.0759  -29.5066  -41.5124 H         1 UNK         0.0847 
     89 H89        19.4694  -28.8578  -39.9345 H         1 UNK         0.0847 
     90 H90        21.8402  -26.2361  -42.3237 H         1 UNK         0.3040 
     91 H91        22.4915  -24.9035  -39.8396 H         1 UNK         0.1015 
     92 H92        23.2373  -24.2848  -42.7501 H         1 UNK         0.0786 
     93 H93        23.5051  -23.2034  -41.3882 H         1 UNK         0.0786 
     94 H94        21.8675  -23.6219  -41.8598 H         1 UNK         0.0786 
     95 H95        24.1993  -27.1876  -41.8572 H         1 UNK         0.3172 
     96 H96        26.7088  -26.7970  -40.2606 H         1 UNK         0.0595 
     97 H97        27.9667  -27.4659  -42.3068 H         1 UNK         0.0839 
     98 H98        27.0783  -25.9738  -42.5707 H         1 UNK         0.0839 
     99 H99        26.4740  -27.4892  -43.2381 H         1 UNK         0.0839 
    100 H100       24.6112  -29.0835  -42.0732 H         1 UNK         0.2998 
    101 H101       26.0163  -31.4422  -41.0515 H         1 UNK         0.0822 
    102 H102       24.3866  -32.6413  -42.4797 H         1 UNK         0.0787 
    103 H103       23.4284  -31.1834  -42.6884 H         1 UNK         0.0787 
    104 H104       25.0399  -31.2937  -43.3917 H         1 UNK         0.0787 
    105 H105       24.6258  -33.2347  -40.1460 H         1 UNK         0.3055 
    106 H106       23.0187  -32.2965  -37.8511 H         1 UNK         0.1106 
    107 H107       24.8720  -33.9521  -37.5191 H         1 UNK         0.0828 
    108 H108       23.3179  -34.6165  -37.0560 H         1 UNK         0.0828 
    109 H109       24.0463  -35.0905  -38.5840 H         1 UNK         0.0828 
    110 H110       22.0376  -32.3751  -40.7881 H         1 UNK         0.2931 
    111 H111       20.1052  -34.4089  -41.0408 H         1 UNK         0.0412 
    112 H112       17.8292  -34.5033  -40.6674 H         1 UNK         0.3472 
    113 H113       17.0079  -33.3086  -39.6960 H         1 UNK         0.3472 
    114 H114       19.6785  -31.7878  -42.5338 H         1 UNK         0.0970 
    115 H115       21.1619  -32.6379  -42.8220 H         1 UNK         0.0970 
    116 H116       17.1091  -33.8907  -44.4694 H         1 UNK         0.0612 
    117 H117       17.2365  -33.0176  -42.9620 H         1 UNK         0.0612 
@<TRIPOS>BOND
     1    1    2 1    
     2    1   62 1    
     3    1   63 1    
     4    1   64 1    
     5    2    3 2    
     6    2    4 am   BACKBONE|DICT|INTERRES
     7    4    5 1    
     8    4   65 1    
     9    5    6 1    
    10    5   25 1    
    11    5   66 1    
    12    6    7 1    
    13    6   67 1    
    14    6   68 1    
    15    7    8 1    
    16    8    9 1    
    17    8   69 1    
    18    8   70 1    
    19    9   10 ar   
    20    9   14 ar   
    21   10   11 ar   
    22   10   71 1    
    23   11   12 ar   
    24   11   61 1    
    25   12   13 ar   
    26   12   72 1    
    27   13   14 ar   
    28   13   15 1    
    29   14   73 1    
    30   15   16 1    
    31   15   74 1    
    32   15   75 1    
    33   16   17 1    
    34   17   18 1    
    35   17   76 1    
    36   17   77 1    
    37   18   19 1    
    38   18   27 1    
    39   18   78 1    
    40   19   20 am   BACKBONE|DICT|INTERRES
    41   19   79 1    
    42   20   21 2    
    43   20   22 1    
    44   22   23 1    
    45   22   24 1    
    46   22   80 1    
    47   23   81 1    
    48   23   82 1    
    49   23   83 1    
    50   24   25 am   BACKBONE|DICT|INTERRES
    51   24   84 1    
    52   25   26 2    
    53   27   28 2    
    54   27   29 am   BACKBONE|DICT|INTERRES
    55   29   30 1    
    56   29   85 1    
    57   30   31 1    
    58   30   32 1    
    59   30   86 1    
    60   31   87 1    
    61   31   88 1    
    62   31   89 1    
    63   32   33 2    
    64   32   34 am   BACKBONE|DICT|INTERRES
    65   34   35 1    
    66   34   90 1    
    67   35   36 1    
    68   35   37 1    
    69   35   91 1    
    70   36   92 1    
    71   36   93 1    
    72   36   94 1    
    73   37   38 2    
    74   37   39 am   BACKBONE|DICT|INTERRES
    75   39   40 1    
    76   39   95 1    
    77   40   41 1    
    78   40   42 1    
    79   40   96 1    
    80   41   97 1    
    81   41   98 1    
    82   41   99 1    
    83   42   43 2    
    84   42   44 am   BACKBONE|DICT|INTERRES
    85   44   45 1    
    86   44  100 1    
    87   45   46 1    
    88   45   47 1    
    89   45  101 1    
    90   46  102 1    
    91   46  103 1    
    92   46  104 1    
    93   47   48 2    
    94   47   49 am   BACKBONE|DICT|INTERRES
    95   49   50 1    
    96   49  105 1    
    97   50   51 1    
    98   50   52 1    
    99   50  106 1    
   100   51  107 1    
   101   51  108 1    
   102   51  109 1    
   103   52   53 2    
   104   52   54 am   BACKBONE|DICT|INTERRES
   105   54   55 1    
   106   54  110 1    
   107   55   56 1    
   108   55   59 1    
   109   55  111 1    
   110   56   57 am   BACKBONE|DICT|INTERRES
   111   56   58 2    
   112   57  112 1    
   113   57  113 1    
   114   59   60 1    
   115   59  114 1    
   116   59  115 1    
   117   60   61 1    
   118   61  116 1    
   119   61  117 1    
@<TRIPOS>SUBSTRUCTURE
     1 UNK         1 GROUP             0       ****    0 ROOT    
