@<TRIPOS>MOLECULE
3R8
117   119    1
SMALL
USER_CHARGES


@<TRIPOS>ATOM
      1 CA         16.1090  -22.4550  -45.9509 C.3       0 UNK        -0.2013 
      2 C          16.9947  -23.6796  -45.7801 C.2       0 UNK         0.4866 
      3 O          18.0211  -23.7943  -46.4517 O.2       0 UNK        -0.5176 
      4 N          16.6170  -24.5950  -44.8789 N.am      1 UNK        -0.4884 
      5 CA         17.3198  -25.8511  -44.5840 C.3       1 UNK         0.0853 
      6 C6         16.3644  -26.9130  -43.9773 C.3       10 UNK        -0.0849 
      7 S7         15.0973  -27.4347  -45.1839 S.3       10 UNK        -0.2776 
      8 C8         15.0315  -29.2453  -44.9360 C.3       10 UNK         0.0316 
      9 C9         16.3515  -29.9761  -45.1839 C.ar      10 UNK        -0.0863 
     10 C10        16.7418  -31.0015  -44.3125 C.ar      10 UNK        -0.1009 
     11 C11        17.9359  -31.6986  -44.5204 C.ar      10 UNK        -0.0712 
     12 C12        18.7266  -31.3850  -45.6263 C.ar      10 UNK        -0.0894 
     13 C13        18.3916  -30.3143  -46.4592 C.ar      10 UNK        -0.0745 
     14 C14        17.1857  -29.6362  -46.2579 C.ar      10 UNK        -0.0972 
     15 C15        19.4030  -29.8264  -47.4893 C.3       10 UNK         0.0209 
     16 S16        20.4925  -28.5116  -46.8149 S.3       10 UNK        -0.2568 
     17 C17        20.8698  -29.1441  -45.1398 C.3       10 UNK        -0.0983 
     18 CA         21.7549  -28.2552  -44.2369 C.3       3 UNK         0.0876 
     19 N          21.3464  -26.8526  -44.3057 N.am      3 UNK        -0.4424 
     20 C          21.6936  -25.8403  -43.4986 C.2       2 UNK         0.4918 
     21 O          22.5658  -25.9121  -42.6302 O.2       2 UNK        -0.4875 
     22 CA         20.8474  -24.5591  -43.6358 C.3       2 UNK         0.0481 
     23 CB         21.5909  -23.5151  -44.4817 C.3       2 UNK        -0.1831 
     24 N          19.5146  -24.7998  -44.2142 N.am      2 UNK        -0.4498 
     25 C          18.5719  -25.6130  -43.7102 C.2       1 UNK         0.5027 
     26 O          18.6946  -26.1958  -42.6312 O.2       1 UNK        -0.4969 
     27 C          21.6816  -28.8361  -42.8077 C.2       3 UNK         0.5005 
     28 O          22.5568  -29.6105  -42.4271 O.2       3 UNK        -0.5279 
     29 N          20.6536  -28.4424  -42.0365 N.am      4 UNK        -0.4463 
     30 CA         20.4134  -28.9046  -40.6684 C.3       4 UNK         0.0283 
     31 CB         19.0748  -28.3483  -40.1621 C.3       4 UNK        -0.1875 
     32 C          21.5490  -28.5642  -39.6908 C.2       4 UNK         0.4949 
     33 O          21.7435  -29.3060  -38.7283 O.2       4 UNK        -0.5039 
     34 N          22.2865  -27.4821  -39.9738 N.am      5 UNK        -0.4663 
     35 CA         23.5154  -27.1091  -39.2798 C.3       5 UNK         0.0242 
     36 CB         23.5529  -25.5832  -39.0933 C.3       5 UNK        -0.1982 
     37 C          24.7501  -27.5919  -40.0558 C.2       5 UNK         0.5017 
     38 O          25.6465  -28.1751  -39.4476 O.2       5 UNK        -0.5012 
     39 N          24.7813  -27.3395  -41.3743 N.am      6 UNK        -0.4439 
     40 CA         25.9370  -27.5864  -42.2450 C.3       6 UNK         0.0297 
     41 CB         25.7103  -26.9079  -43.6055 C.3       6 UNK        -0.2006 
     42 C          26.2971  -29.0718  -42.4304 C.2       6 UNK         0.4892 
     43 O          27.4818  -29.4075  -42.4096 O.2       6 UNK        -0.5089 
     44 N          25.2819  -29.9271  -42.6018 N.am      7 UNK        -0.4243 
     45 CA         25.4073  -31.3841  -42.7101 C.3       7 UNK         0.0196 
     46 CB         24.5498  -31.8730  -43.8918 C.3       7 UNK        -0.2007 
     47 C          24.9881  -32.0892  -41.4068 C.2       7 UNK         0.5020 
     48 O          25.1027  -33.3122  -41.3261 O.2       7 UNK        -0.5147 
     49 N          24.5151  -31.3154  -40.4176 N.am      8 UNK        -0.4734 
     50 CA         24.0872  -31.7264  -39.0752 C.3       8 UNK         0.0238 
     51 CB         25.2716  -32.3172  -38.2795 C.3       8 UNK        -0.1912 
     52 C          22.8423  -32.6383  -39.0557 C.2       8 UNK         0.5038 
     53 O          22.6670  -33.3900  -38.0945 O.2       8 UNK        -0.5046 
     54 N          21.9949  -32.5625  -40.0936 N.am      9 UNK        -0.4200 
     55 CA         20.7481  -33.3423  -40.1996 C.3       9 UNK         0.0839 
     56 C          19.5580  -32.8146  -39.3429 C.2       9 UNK         0.5513 
     57 N          19.6848  -31.7050  -38.6238 N.am      9 UNK        -0.7519 
     58 O          18.5019  -33.4411  -39.3124 O.2       9 UNK        -0.4960 
     59 C59        20.3611  -33.6392  -41.6741 C.3       10 UNK        -0.0876 
     60 S60        19.9130  -32.1674  -42.6542 S.3       10 UNK        -0.2414 
     61 C61        18.4195  -32.7470  -43.5281 C.3       10 UNK         0.0169 
     62 H62        16.6719  -21.5502  -45.7232 H         1 UNK         0.0903 
     63 H63        15.7575  -22.3879  -46.9801 H         1 UNK         0.0903 
     64 H64        15.2379  -22.4868  -45.2967 H         1 UNK         0.0903 
     65 H65        15.7708  -24.4418  -44.3483 H         1 UNK         0.3096 
     66 H66        17.6940  -26.2604  -45.5259 H         1 UNK         0.1121 
     67 H67        15.8705  -26.5288  -43.0830 H         1 UNK         0.0849 
     68 H68        16.9246  -27.7937  -43.6572 H         1 UNK         0.0849 
     69 H69        14.6746  -29.4353  -43.9224 H         1 UNK         0.0865 
     70 H70        14.2781  -29.6602  -45.6066 H         1 UNK         0.0865 
     71 H71        16.1232  -31.2489  -43.4604 H         1 UNK         0.1346 
     72 H72        19.6639  -31.9050  -45.7706 H         1 UNK         0.1412 
     73 H73        16.9205  -28.8158  -46.9105 H         1 UNK         0.1426 
     74 H74        20.0211  -30.6581  -47.8311 H         1 UNK         0.0716 
     75 H75        18.8865  -29.4464  -48.3718 H         1 UNK         0.0716 
     76 H76        19.9080  -29.2715  -44.6410 H         1 UNK         0.0695 
     77 H77        21.3118  -30.1381  -45.2347 H         1 UNK         0.0695 
     78 H78        22.7872  -28.3182  -44.5822 H         1 UNK         0.0983 
     79 H79        20.6504  -26.6590  -45.0105 H         1 UNK         0.3095 
     80 H80        20.7045  -24.1533  -42.6325 H         1 UNK         0.0454 
     81 H81        21.7411  -23.8573  -45.5064 H         1 UNK         0.0851 
     82 H82        21.0445  -22.5726  -44.5192 H         1 UNK         0.0851 
     83 H83        22.5747  -23.3010  -44.0614 H         1 UNK         0.0851 
     84 H84        19.3009  -24.3428  -45.0974 H         1 UNK         0.2976 
     85 H85        19.9895  -27.7684  -42.4041 H         1 UNK         0.3116 
     86 H86        20.3358  -29.9910  -40.7079 H         1 UNK         0.0646 
     87 H87        19.0851  -27.2590  -40.1083 H         1 UNK         0.0847 
     88 H88        18.2510  -28.6449  -40.8117 H         1 UNK         0.0847 
     89 H89        18.8497  -28.7228  -39.1628 H         1 UNK         0.0847 
     90 H90        22.0564  -26.9518  -40.8054 H         1 UNK         0.3040 
     91 H91        23.5415  -27.5704  -38.2896 H         1 UNK         0.1015 
     92 H92        23.5159  -25.0533  -40.0461 H         1 UNK         0.0786 
     93 H93        24.4665  -25.2749  -38.5828 H         1 UNK         0.0786 
     94 H94        22.7133  -25.2400  -38.4887 H         1 UNK         0.0786 
     95 H95        23.9987  -26.8431  -41.7924 H         1 UNK         0.3172 
     96 H96        26.7979  -27.1039  -41.7773 H         1 UNK         0.0595 
     97 H97        26.5762  -27.0389  -44.2560 H         1 UNK         0.0839 
     98 H98        25.5505  -25.8353  -43.4927 H         1 UNK         0.0839 
     99 H99        24.8473  -27.3202  -44.1264 H         1 UNK         0.0839 
    100 H100       24.3232  -29.5810  -42.5809 H         1 UNK         0.2998 
    101 H101       26.4454  -31.6596  -42.9067 H         1 UNK         0.0822 
    102 H102       24.6843  -32.9433  -44.0537 H         1 UNK         0.0787 
    103 H103       23.4860  -31.7040  -43.7216 H         1 UNK         0.0787 
    104 H104       24.8259  -31.3688  -44.8179 H         1 UNK         0.0787 
    105 H105       24.4551  -30.3244  -40.6058 H         1 UNK         0.3055 
    106 H106       23.7926  -30.8112  -38.5619 H         1 UNK         0.1106 
    107 H107       26.1328  -31.6492  -38.2967 H         1 UNK         0.0828 
    108 H108       25.0044  -32.4686  -37.2329 H         1 UNK         0.0828 
    109 H109       25.5861  -33.2830  -38.6758 H         1 UNK         0.0828 
    110 H110       22.1870  -31.9111  -40.8419 H         1 UNK         0.2931 
    111 H111       20.9660  -34.3214  -39.7683 H         1 UNK         0.0412 
    112 H112       18.9060  -31.3949  -38.0652 H         1 UNK         0.3472 
    113 H113       20.5442  -31.1730  -38.6290 H         1 UNK         0.3472 
    114 H114       21.1934  -34.1344  -42.1766 H         1 UNK         0.0970 
    115 H115       19.5396  -34.3574  -41.7022 H         1 UNK         0.0970 
    116 H116       18.6440  -33.6726  -44.0602 H         1 UNK         0.0612 
    117 H117       17.6431  -32.9803  -42.7977 H         1 UNK         0.0612 
@<TRIPOS>BOND
     1    1    2 1    
     2    1   62 1    
     3    1   63 1    
     4    1   64 1    
     5    2    3 2    
     6    2    4 am   BACKBONE|DICT|INTERRES
     7    4    5 1    
     8    4   65 1    
     9    5    6 1    
    10    5   25 1    
    11    5   66 1    
    12    6    7 1    
    13    6   67 1    
    14    6   68 1    
    15    7    8 1    
    16    8    9 1    
    17    8   69 1    
    18    8   70 1    
    19    9   10 ar   
    20    9   14 ar   
    21   10   11 ar   
    22   10   71 1    
    23   11   12 ar   
    24   11   61 1    
    25   12   13 ar   
    26   12   72 1    
    27   13   14 ar   
    28   13   15 1    
    29   14   73 1    
    30   15   16 1    
    31   15   74 1    
    32   15   75 1    
    33   16   17 1    
    34   17   18 1    
    35   17   76 1    
    36   17   77 1    
    37   18   19 1    
    38   18   27 1    
    39   18   78 1    
    40   19   20 am   BACKBONE|DICT|INTERRES
    41   19   79 1    
    42   20   21 2    
    43   20   22 1    
    44   22   23 1    
    45   22   24 1    
    46   22   80 1    
    47   23   81 1    
    48   23   82 1    
    49   23   83 1    
    50   24   25 am   BACKBONE|DICT|INTERRES
    51   24   84 1    
    52   25   26 2    
    53   27   28 2    
    54   27   29 am   BACKBONE|DICT|INTERRES
    55   29   30 1    
    56   29   85 1    
    57   30   31 1    
    58   30   32 1    
    59   30   86 1    
    60   31   87 1    
    61   31   88 1    
    62   31   89 1    
    63   32   33 2    
    64   32   34 am   BACKBONE|DICT|INTERRES
    65   34   35 1    
    66   34   90 1    
    67   35   36 1    
    68   35   37 1    
    69   35   91 1    
    70   36   92 1    
    71   36   93 1    
    72   36   94 1    
    73   37   38 2    
    74   37   39 am   BACKBONE|DICT|INTERRES
    75   39   40 1    
    76   39   95 1    
    77   40   41 1    
    78   40   42 1    
    79   40   96 1    
    80   41   97 1    
    81   41   98 1    
    82   41   99 1    
    83   42   43 2    
    84   42   44 am   BACKBONE|DICT|INTERRES
    85   44   45 1    
    86   44  100 1    
    87   45   46 1    
    88   45   47 1    
    89   45  101 1    
    90   46  102 1    
    91   46  103 1    
    92   46  104 1    
    93   47   48 2    
    94   47   49 am   BACKBONE|DICT|INTERRES
    95   49   50 1    
    96   49  105 1    
    97   50   51 1    
    98   50   52 1    
    99   50  106 1    
   100   51  107 1    
   101   51  108 1    
   102   51  109 1    
   103   52   53 2    
   104   52   54 am   BACKBONE|DICT|INTERRES
   105   54   55 1    
   106   54  110 1    
   107   55   56 1    
   108   55   59 1    
   109   55  111 1    
   110   56   57 am   BACKBONE|DICT|INTERRES
   111   56   58 2    
   112   57  112 1    
   113   57  113 1    
   114   59   60 1    
   115   59  114 1    
   116   59  115 1    
   117   60   61 1    
   118   61  116 1    
   119   61  117 1    
@<TRIPOS>SUBSTRUCTURE
     1 UNK         1 GROUP             0       ****    0 ROOT    
