@<TRIPOS>MOLECULE
3R8
117   119    1
SMALL
USER_CHARGES


@<TRIPOS>ATOM
      1 CA         13.2861  -25.3394  -41.2958 C.3       0 UNK        -0.2013 
      2 C          14.4978  -25.1387  -42.1939 C.2       0 UNK         0.4866 
      3 O          15.2598  -24.1922  -41.9927 O.2       0 UNK        -0.5176 
      4 N          14.6755  -26.0150  -43.1894 N.am      1 UNK        -0.4884 
      5 CA         15.8251  -26.0304  -44.0991 C.3       1 UNK         0.0853 
      6 C6         15.5102  -26.7952  -45.4145 C.3       10 UNK        -0.0849 
      7 S7         14.8358  -28.4800  -45.1799 S.3       10 UNK        -0.2776 
      8 C8         15.9500  -29.5049  -46.2081 C.3       10 UNK         0.0316 
      9 C9         17.2832  -29.8866  -45.5608 C.ar      10 UNK        -0.0863 
     10 C10        17.4207  -30.0367  -44.1761 C.ar      10 UNK        -0.1009 
     11 C11        18.6326  -30.4487  -43.6149 C.ar      10 UNK        -0.0712 
     12 C12        19.7222  -30.7186  -44.4491 C.ar      10 UNK        -0.0894 
     13 C13        19.5987  -30.5935  -45.8362 C.ar      10 UNK        -0.0745 
     14 C14        18.3795  -30.1739  -46.3812 C.ar      10 UNK        -0.0972 
     15 C15        20.7507  -30.9884  -46.7533 C.3       10 UNK         0.0209 
     16 S16        21.3009  -29.6264  -47.8324 S.3       10 UNK        -0.2568 
     17 C17        22.6345  -28.8409  -46.8683 C.3       10 UNK        -0.0983 
     18 CA         22.2216  -27.4452  -46.3460 C.3       3 UNK         0.0876 
     19 N          21.2249  -27.5377  -45.2721 N.am      3 UNK        -0.4424 
     20 C          20.4742  -26.5126  -44.8559 C.2       2 UNK         0.4918 
     21 O          20.4825  -25.3937  -45.3744 O.2       2 UNK        -0.4875 
     22 CA         19.5637  -26.7681  -43.6540 C.3       2 UNK         0.0481 
     23 CB         20.1254  -26.1102  -42.3804 C.3       2 UNK        -0.1831 
     24 N          18.2511  -26.2325  -43.9883 N.am      2 UNK        -0.4498 
     25 C          17.0951  -26.5723  -43.4104 C.2       1 UNK         0.5027 
     26 O          17.0080  -27.2954  -42.4139 O.2       1 UNK        -0.4969 
     27 C          23.4566  -26.6298  -45.9059 C.2       3 UNK         0.5005 
     28 O          24.0207  -25.8919  -46.7153 O.2       3 UNK        -0.5279 
     29 N          23.8264  -26.7573  -44.6276 N.am      4 UNK        -0.4463 
     30 CA         24.8570  -26.0120  -43.9147 C.3       4 UNK         0.0283 
     31 CB         26.2705  -26.3938  -44.4023 C.3       4 UNK        -0.1875 
     32 C          24.6710  -26.3125  -42.4216 C.2       4 UNK         0.4949 
     33 O          23.8906  -27.2054  -42.0702 O.2       4 UNK        -0.5039 
     34 N          25.3852  -25.5666  -41.5698 N.am      5 UNK        -0.4663 
     35 CA         25.3754  -25.7144  -40.1121 C.3       5 UNK         0.0242 
     36 CB         26.2674  -24.6292  -39.4848 C.3       5 UNK        -0.1982 
     37 C          25.8224  -27.1224  -39.6791 C.2       5 UNK         0.5017 
     38 O          26.9939  -27.4652  -39.8506 O.2       5 UNK        -0.5012 
     39 N          24.8658  -27.9058  -39.1605 N.am      6 UNK        -0.4439 
     40 CA         24.9964  -29.3032  -38.7309 C.3       6 UNK         0.0297 
     41 CB         25.9317  -29.4188  -37.5072 C.3       6 UNK        -0.2006 
     42 C          25.3731  -30.2763  -39.8693 C.2       6 UNK         0.4892 
     43 O          26.0458  -31.2765  -39.6122 O.2       6 UNK        -0.5089 
     44 N          24.9206  -29.9887  -41.1014 N.am      7 UNK        -0.4243 
     45 CA         25.1023  -30.8579  -42.2729 C.3       7 UNK         0.0196 
     46 CB         24.6387  -30.1208  -43.5393 C.3       7 UNK        -0.2007 
     47 C          24.3582  -32.1993  -42.1548 C.2       7 UNK         0.5020 
     48 O          24.8600  -33.2205  -42.6247 O.2       7 UNK        -0.5147 
     49 N          23.1793  -32.1607  -41.5286 N.am      8 UNK        -0.4734 
     50 CA         22.2870  -33.2782  -41.2395 C.3       8 UNK         0.0238 
     51 CB         21.6411  -33.8141  -42.5383 C.3       8 UNK        -0.1912 
     52 C          21.2383  -32.7726  -40.2355 C.2       8 UNK         0.5038 
     53 O          21.3878  -31.6658  -39.7060 O.2       8 UNK        -0.5046 
     54 N          20.1802  -33.5657  -40.0310 N.am      9 UNK        -0.4200 
     55 CA         19.0044  -33.2429  -39.2051 C.3       9 UNK         0.0839 
     56 C          19.3172  -33.2080  -37.6773 C.2       9 UNK         0.5513 
     57 N          18.4029  -32.7162  -36.8509 N.am      9 UNK        -0.7519 
     58 O          20.3614  -33.6689  -37.2193 O.2       9 UNK        -0.4960 
     59 C59        18.2279  -31.9863  -39.7122 C.3       10 UNK        -0.0876 
     60 S60        17.8371  -32.0450  -41.4975 S.3       10 UNK        -0.2414 
     61 C61        18.7549  -30.5937  -42.1056 C.3       10 UNK         0.0169 
     62 H62        12.6447  -24.4591  -41.3279 H         1 UNK         0.0903 
     63 H63        12.6929  -26.2023  -41.5982 H         1 UNK         0.0903 
     64 H64        13.6051  -25.4918  -40.2651 H         1 UNK         0.0903 
     65 H65        14.0440  -26.7975  -43.2916 H         1 UNK         0.3096 
     66 H66        16.0360  -24.9928  -44.3698 H         1 UNK         0.1121 
     67 H67        16.3910  -26.8357  -46.0581 H         1 UNK         0.0849 
     68 H68        14.7696  -26.2302  -45.9827 H         1 UNK         0.0849 
     69 H69        15.4250  -30.4294  -46.4516 H         1 UNK         0.0865 
     70 H70        16.1204  -28.9965  -47.1585 H         1 UNK         0.0865 
     71 H71        16.5826  -29.8440  -43.5209 H         1 UNK         0.1346 
     72 H72        20.6582  -31.0480  -44.0204 H         1 UNK         0.1412 
     73 H73        18.2804  -30.0961  -47.4557 H         1 UNK         0.1426 
     74 H74        20.4118  -31.8082  -47.3883 H         1 UNK         0.0716 
     75 H75        21.5955  -31.3822  -46.1862 H         1 UNK         0.0716 
     76 H76        23.4940  -28.7607  -47.5370 H         1 UNK         0.0695 
     77 H77        22.9511  -29.4893  -46.0501 H         1 UNK         0.0695 
     78 H78        21.7708  -26.8936  -47.1747 H         1 UNK         0.0983 
     79 H79        21.1099  -28.4414  -44.8388 H         1 UNK         0.3095 
     80 H80        19.4789  -27.8425  -43.4918 H         1 UNK         0.0454 
     81 H81        21.1204  -26.4932  -42.1495 H         1 UNK         0.0851 
     82 H82        19.4940  -26.3124  -41.5153 H         1 UNK         0.0851 
     83 H83        20.2083  -25.0282  -42.4891 H         1 UNK         0.0851 
     84 H84        18.2501  -25.6261  -44.7991 H         1 UNK         0.2976 
     85 H85        23.2913  -27.3588  -44.0121 H         1 UNK         0.3116 
     86 H86        24.6872  -24.9455  -44.0753 H         1 UNK         0.0646 
     87 H87        26.4952  -27.4457  -44.2327 H         1 UNK         0.0847 
     88 H88        26.3968  -26.1953  -45.4663 H         1 UNK         0.0847 
     89 H89        27.0346  -25.8152  -43.8824 H         1 UNK         0.0847 
     90 H90        26.0144  -24.8716  -41.9453 H         1 UNK         0.3040 
     91 H91        24.3522  -25.5461  -39.7689 H         1 UNK         0.1015 
     92 H92        26.2766  -24.7137  -38.3972 H         1 UNK         0.0786 
     93 H93        25.9076  -23.6291  -39.7276 H         1 UNK         0.0786 
     94 H94        27.3007  -24.7066  -39.8258 H         1 UNK         0.0786 
     95 H95        23.9293  -27.5279  -39.1093 H         1 UNK         0.3172 
     96 H96        24.0004  -29.6079  -38.4057 H         1 UNK         0.0595 
     97 H97        26.9677  -29.1985  -37.7664 H         1 UNK         0.0839 
     98 H98        25.9098  -30.4268  -37.0911 H         1 UNK         0.0839 
     99 H99        25.6321  -28.7368  -36.7115 H         1 UNK         0.0839 
    100 H100       24.4156  -29.1212  -41.2467 H         1 UNK         0.2998 
    101 H101       26.1681  -31.0759  -42.3695 H         1 UNK         0.0822 
    102 H102       24.7591  -30.7470  -44.4246 H         1 UNK         0.0787 
    103 H103       25.2233  -29.2191  -43.7028 H         1 UNK         0.0787 
    104 H104       23.5878  -29.8356  -43.4794 H         1 UNK         0.0787 
    105 H105       22.8735  -31.2897  -41.1098 H         1 UNK         0.3055 
    106 H106       22.8652  -34.0702  -40.7590 H         1 UNK         0.1106 
    107 H107       20.9427  -33.0959  -42.9668 H         1 UNK         0.0828 
    108 H108       22.3854  -34.0484  -43.2989 H         1 UNK         0.0828 
    109 H109       21.0866  -34.7346  -42.3548 H         1 UNK         0.0828 
    110 H110       20.1521  -34.4646  -40.4881 H         1 UNK         0.2931 
    111 H111       18.3416  -34.0999  -39.3298 H         1 UNK         0.0412 
    112 H112       17.5223  -32.3621  -37.1896 H         1 UNK         0.3472 
    113 H113       18.5950  -32.7101  -35.8610 H         1 UNK         0.3472 
    114 H114       17.2772  -31.8893  -39.1868 H         1 UNK         0.0970 
    115 H115       18.7855  -31.0760  -39.4853 H         1 UNK         0.0970 
    116 H116       19.8025  -30.6755  -41.8143 H         1 UNK         0.0612 
    117 H117       18.3681  -29.6942  -41.6240 H         1 UNK         0.0612 
@<TRIPOS>BOND
     1    1    2 1    
     2    1   62 1    
     3    1   63 1    
     4    1   64 1    
     5    2    3 2    
     6    2    4 am   BACKBONE|DICT|INTERRES
     7    4    5 1    
     8    4   65 1    
     9    5    6 1    
    10    5   25 1    
    11    5   66 1    
    12    6    7 1    
    13    6   67 1    
    14    6   68 1    
    15    7    8 1    
    16    8    9 1    
    17    8   69 1    
    18    8   70 1    
    19    9   10 ar   
    20    9   14 ar   
    21   10   11 ar   
    22   10   71 1    
    23   11   12 ar   
    24   11   61 1    
    25   12   13 ar   
    26   12   72 1    
    27   13   14 ar   
    28   13   15 1    
    29   14   73 1    
    30   15   16 1    
    31   15   74 1    
    32   15   75 1    
    33   16   17 1    
    34   17   18 1    
    35   17   76 1    
    36   17   77 1    
    37   18   19 1    
    38   18   27 1    
    39   18   78 1    
    40   19   20 am   BACKBONE|DICT|INTERRES
    41   19   79 1    
    42   20   21 2    
    43   20   22 1    
    44   22   23 1    
    45   22   24 1    
    46   22   80 1    
    47   23   81 1    
    48   23   82 1    
    49   23   83 1    
    50   24   25 am   BACKBONE|DICT|INTERRES
    51   24   84 1    
    52   25   26 2    
    53   27   28 2    
    54   27   29 am   BACKBONE|DICT|INTERRES
    55   29   30 1    
    56   29   85 1    
    57   30   31 1    
    58   30   32 1    
    59   30   86 1    
    60   31   87 1    
    61   31   88 1    
    62   31   89 1    
    63   32   33 2    
    64   32   34 am   BACKBONE|DICT|INTERRES
    65   34   35 1    
    66   34   90 1    
    67   35   36 1    
    68   35   37 1    
    69   35   91 1    
    70   36   92 1    
    71   36   93 1    
    72   36   94 1    
    73   37   38 2    
    74   37   39 am   BACKBONE|DICT|INTERRES
    75   39   40 1    
    76   39   95 1    
    77   40   41 1    
    78   40   42 1    
    79   40   96 1    
    80   41   97 1    
    81   41   98 1    
    82   41   99 1    
    83   42   43 2    
    84   42   44 am   BACKBONE|DICT|INTERRES
    85   44   45 1    
    86   44  100 1    
    87   45   46 1    
    88   45   47 1    
    89   45  101 1    
    90   46  102 1    
    91   46  103 1    
    92   46  104 1    
    93   47   48 2    
    94   47   49 am   BACKBONE|DICT|INTERRES
    95   49   50 1    
    96   49  105 1    
    97   50   51 1    
    98   50   52 1    
    99   50  106 1    
   100   51  107 1    
   101   51  108 1    
   102   51  109 1    
   103   52   53 2    
   104   52   54 am   BACKBONE|DICT|INTERRES
   105   54   55 1    
   106   54  110 1    
   107   55   56 1    
   108   55   59 1    
   109   55  111 1    
   110   56   57 am   BACKBONE|DICT|INTERRES
   111   56   58 2    
   112   57  112 1    
   113   57  113 1    
   114   59   60 1    
   115   59  114 1    
   116   59  115 1    
   117   60   61 1    
   118   61  116 1    
   119   61  117 1    
@<TRIPOS>SUBSTRUCTURE
     1 UNK         1 GROUP             0       ****    0 ROOT    
