@<TRIPOS>MOLECULE
3R8
117   119    1
SMALL
USER_CHARGES


@<TRIPOS>ATOM
      1 CA         18.0916  -24.1089  -39.9047 C.3       0 UNK        -0.2013 
      2 C          17.4369  -24.7000  -41.1444 C.2       0 UNK         0.4866 
      3 O          16.2450  -25.0064  -41.1222 O.2       0 UNK        -0.5176 
      4 N          18.2084  -24.8629  -42.2227 N.am      1 UNK        -0.4884 
      5 CA         17.7839  -25.4104  -43.5100 C.3       1 UNK         0.0853 
      6 C6         17.6048  -26.9573  -43.4684 C.3       10 UNK        -0.0849 
      7 S7         16.0375  -27.5068  -44.2311 S.3       10 UNK        -0.2776 
      8 C8         16.5627  -28.4894  -45.6802 C.3       10 UNK         0.0316 
      9 C9         17.6149  -29.5465  -45.3606 C.ar      10 UNK        -0.0863 
     10 C10        17.4464  -30.4433  -44.2996 C.ar      10 UNK        -0.1009 
     11 C11        18.4485  -31.3678  -43.9861 C.ar      10 UNK        -0.0712 
     12 C12        19.6177  -31.4051  -44.7517 C.ar      10 UNK        -0.0894 
     13 C13        19.7969  -30.5133  -45.8119 C.ar      10 UNK        -0.0745 
     14 C14        18.7826  -29.6044  -46.1246 C.ar      10 UNK        -0.0972 
     15 C15        21.1094  -30.4823  -46.5835 C.3       10 UNK         0.0209 
     16 S16        22.4849  -29.8245  -45.5780 S.3       10 UNK        -0.2568 
     17 C17        21.8500  -28.1959  -45.0537 C.3       10 UNK        -0.0983 
     18 CA         22.4600  -27.0149  -45.8612 C.3       3 UNK         0.0876 
     19 N          21.4612  -25.9866  -46.1331 N.am      3 UNK        -0.4424 
     20 C          20.4900  -26.0598  -47.0458 C.2       2 UNK         0.4918 
     21 O          20.3883  -26.9726  -47.8664 O.2       2 UNK        -0.4875 
     22 CA         19.4159  -24.9560  -46.9776 C.3       2 UNK         0.0481 
     23 CB         18.5836  -24.8695  -48.2700 C.3       2 UNK        -0.1831 
     24 N          18.5124  -25.1816  -45.8440 N.am      2 UNK        -0.4498 
     25 C          18.8233  -24.9730  -44.5578 C.2       1 UNK         0.5027 
     26 O          19.8942  -24.4796  -44.1864 O.2       1 UNK        -0.4969 
     27 C          23.6370  -26.3715  -45.1087 C.2       3 UNK         0.5005 
     28 O          23.6192  -25.1663  -44.8372 O.2       3 UNK        -0.5279 
     29 N          24.6123  -27.2019  -44.7187 N.am      4 UNK        -0.4463 
     30 CA         25.7031  -26.8543  -43.8066 C.3       4 UNK         0.0283 
     31 CB         26.8299  -27.8933  -43.9539 C.3       4 UNK        -0.1875 
     32 C          25.1832  -26.7575  -42.3591 C.2       4 UNK         0.4949 
     33 O          25.3828  -27.6801  -41.5685 O.2       4 UNK        -0.5039 
     34 N          24.4621  -25.6649  -42.0665 N.am      5 UNK        -0.4663 
     35 CA         23.8598  -25.2992  -40.7731 C.3       5 UNK         0.0242 
     36 CB         24.9647  -24.9867  -39.7413 C.3       5 UNK        -0.1982 
     37 C          22.8304  -26.3163  -40.2322 C.2       5 UNK         0.5017 
     38 O          22.5813  -26.3428  -39.0262 O.2       5 UNK        -0.5012 
     39 N          22.2621  -27.1349  -41.1317 N.am      6 UNK        -0.4439 
     40 CA         21.3636  -28.2674  -40.8667 C.3       6 UNK         0.0297 
     41 CB         19.9995  -27.7771  -40.3389 C.3       6 UNK        -0.2006 
     42 C          22.0012  -29.3541  -39.9732 C.2       6 UNK         0.4892 
     43 O          21.3057  -29.9785  -39.1691 O.2       6 UNK        -0.5089 
     44 N          23.3183  -29.5602  -40.1190 N.am      7 UNK        -0.4243 
     45 CA         24.0643  -30.6093  -39.4266 C.3       7 UNK         0.0196 
     46 CB         25.5698  -30.3284  -39.5567 C.3       7 UNK        -0.2007 
     47 C          23.7266  -32.0013  -39.9858 C.2       7 UNK         0.5020 
     48 O          23.5519  -32.1498  -41.1968 O.2       7 UNK        -0.5147 
     49 N          23.6858  -32.9952  -39.0880 N.am      8 UNK        -0.4734 
     50 CA         23.4861  -34.4287  -39.3514 C.3       8 UNK         0.0238 
     51 CB         24.6527  -34.9996  -40.1878 C.3       8 UNK        -0.1912 
     52 C          22.1062  -34.8091  -39.9312 C.2       8 UNK         0.5038 
     53 O          21.9695  -35.9074  -40.4743 O.2       8 UNK        -0.5046 
     54 N          21.1024  -33.9330  -39.7854 N.am      9 UNK        -0.4200 
     55 CA         19.6973  -34.2215  -40.1155 C.3       9 UNK         0.0839 
     56 C          19.0827  -35.2915  -39.1715 C.2       9 UNK         0.5513 
     57 N          18.1881  -36.1270  -39.6809 N.am      9 UNK        -0.7519 
     58 O          19.3761  -35.3416  -37.9784 O.2       9 UNK        -0.4960 
     59 C59        18.8240  -32.9411  -40.1166 C.3       10 UNK        -0.0876 
     60 S60        19.3192  -31.7512  -41.4039 S.3       10 UNK        -0.2414 
     61 C61        18.2894  -32.3021  -42.7983 C.3       10 UNK         0.0169 
     62 H62        18.0030  -24.8019  -39.0684 H         1 UNK         0.0903 
     63 H63        19.1505  -23.9031  -40.0614 H         1 UNK         0.0903 
     64 H64        17.6009  -23.1759  -39.6288 H         1 UNK         0.0903 
     65 H65        19.1701  -24.5411  -42.2313 H         1 UNK         0.3096 
     66 H66        16.8406  -24.9247  -43.7710 H         1 UNK         0.1121 
     67 H67        17.5674  -27.3119  -42.4374 H         1 UNK         0.0849 
     68 H68        18.4578  -27.4814  -43.9031 H         1 UNK         0.0849 
     69 H69        15.6876  -28.9842  -46.1035 H         1 UNK         0.0865 
     70 H70        16.9251  -27.8051  -46.4486 H         1 UNK         0.0865 
     71 H71        16.5476  -30.3994  -43.6997 H         1 UNK         0.1346 
     72 H72        20.4066  -32.0990  -44.4947 H         1 UNK         0.1412 
     73 H73        18.9252  -28.9096  -46.9407 H         1 UNK         0.1426 
     74 H74        21.0134  -29.8772  -47.4868 H         1 UNK         0.0716 
     75 H75        21.3600  -31.4912  -46.9136 H         1 UNK         0.0716 
     76 H76        22.0284  -28.0950  -43.9826 H         1 UNK         0.0695 
     77 H77        20.7659  -28.1878  -45.1309 H         1 UNK         0.0695 
     78 H78        22.8422  -27.3667  -46.8222 H         1 UNK         0.0983 
     79 H79        21.4838  -25.1986  -45.4932 H         1 UNK         0.3095 
     80 H80        19.9238  -23.9986  -46.8429 H         1 UNK         0.0454 
     81 H81        18.0198  -25.7850  -48.4540 H         1 UNK         0.0851 
     82 H82        19.2259  -24.7038  -49.1358 H         1 UNK         0.0851 
     83 H83        17.8754  -24.0418  -48.2311 H         1 UNK         0.0851 
     84 H84        17.6197  -25.6010  -46.0603 H         1 UNK         0.2976 
     85 H85        24.5224  -28.1814  -44.9555 H         1 UNK         0.3116 
     86 H86        26.1076  -25.8791  -44.0867 H         1 UNK         0.0646 
     87 H87        27.2303  -27.9036  -44.9677 H         1 UNK         0.0847 
     88 H88        26.4877  -28.9019  -43.7180 H         1 UNK         0.0847 
     89 H89        27.6583  -27.6661  -43.2816 H         1 UNK         0.0847 
     90 H90        24.2813  -25.0234  -42.8331 H         1 UNK         0.3040 
     91 H91        23.3007  -24.3783  -40.9471 H         1 UNK         0.1015 
     92 H92        25.5246  -25.8815  -39.4667 H         1 UNK         0.0786 
     93 H93        24.5428  -24.5734  -38.8242 H         1 UNK         0.0786 
     94 H94        25.6725  -24.2531  -40.1272 H         1 UNK         0.0786 
     95 H95        22.5553  -27.0180  -42.0899 H         1 UNK         0.3172 
     96 H96        21.1824  -28.7481  -41.8290 H         1 UNK         0.0595 
     97 H97        20.0800  -27.3518  -39.3383 H         1 UNK         0.0839 
     98 H98        19.2838  -28.5987  -40.2872 H         1 UNK         0.0839 
     99 H99        19.5739  -27.0190  -40.9934 H         1 UNK         0.0839 
    100 H100       23.8405  -28.9951  -40.7785 H         1 UNK         0.2998 
    101 H101       23.7966  -30.5736  -38.3682 H         1 UNK         0.0822 
    102 H102       25.8284  -29.3529  -39.1437 H         1 UNK         0.0787 
    103 H103       26.1565  -31.0754  -39.0205 H         1 UNK         0.0787 
    104 H104       25.8927  -30.3446  -40.5987 H         1 UNK         0.0787 
    105 H105       23.8332  -32.7569  -38.1158 H         1 UNK         0.3055 
    106 H106       23.5246  -34.9157  -38.3755 H         1 UNK         0.1106 
    107 H107       24.6403  -34.6225  -41.2108 H         1 UNK         0.0828 
    108 H108       24.6014  -36.0877  -40.2443 H         1 UNK         0.0828 
    109 H109       25.6179  -34.7476  -39.7486 H         1 UNK         0.0828 
    110 H110       21.2894  -33.0459  -39.3420 H         1 UNK         0.2931 
    111 H111       19.6854  -34.6324  -41.1274 H         1 UNK         0.0412 
    112 H112       17.7656  -36.8188  -39.0809 H         1 UNK         0.3472 
    113 H113       17.9353  -36.0904  -40.6565 H         1 UNK         0.3472 
    114 H114       18.8834  -32.4402  -39.1485 H         1 UNK         0.0970 
    115 H115       17.7699  -33.1871  -40.2596 H         1 UNK         0.0970 
    116 H116       17.2449  -32.3466  -42.4858 H         1 UNK         0.0612 
    117 H117       18.5756  -33.3151  -43.0848 H         1 UNK         0.0612 
@<TRIPOS>BOND
     1    1    2 1    
     2    1   62 1    
     3    1   63 1    
     4    1   64 1    
     5    2    3 2    
     6    2    4 am   BACKBONE|DICT|INTERRES
     7    4    5 1    
     8    4   65 1    
     9    5    6 1    
    10    5   25 1    
    11    5   66 1    
    12    6    7 1    
    13    6   67 1    
    14    6   68 1    
    15    7    8 1    
    16    8    9 1    
    17    8   69 1    
    18    8   70 1    
    19    9   10 ar   
    20    9   14 ar   
    21   10   11 ar   
    22   10   71 1    
    23   11   12 ar   
    24   11   61 1    
    25   12   13 ar   
    26   12   72 1    
    27   13   14 ar   
    28   13   15 1    
    29   14   73 1    
    30   15   16 1    
    31   15   74 1    
    32   15   75 1    
    33   16   17 1    
    34   17   18 1    
    35   17   76 1    
    36   17   77 1    
    37   18   19 1    
    38   18   27 1    
    39   18   78 1    
    40   19   20 am   BACKBONE|DICT|INTERRES
    41   19   79 1    
    42   20   21 2    
    43   20   22 1    
    44   22   23 1    
    45   22   24 1    
    46   22   80 1    
    47   23   81 1    
    48   23   82 1    
    49   23   83 1    
    50   24   25 am   BACKBONE|DICT|INTERRES
    51   24   84 1    
    52   25   26 2    
    53   27   28 2    
    54   27   29 am   BACKBONE|DICT|INTERRES
    55   29   30 1    
    56   29   85 1    
    57   30   31 1    
    58   30   32 1    
    59   30   86 1    
    60   31   87 1    
    61   31   88 1    
    62   31   89 1    
    63   32   33 2    
    64   32   34 am   BACKBONE|DICT|INTERRES
    65   34   35 1    
    66   34   90 1    
    67   35   36 1    
    68   35   37 1    
    69   35   91 1    
    70   36   92 1    
    71   36   93 1    
    72   36   94 1    
    73   37   38 2    
    74   37   39 am   BACKBONE|DICT|INTERRES
    75   39   40 1    
    76   39   95 1    
    77   40   41 1    
    78   40   42 1    
    79   40   96 1    
    80   41   97 1    
    81   41   98 1    
    82   41   99 1    
    83   42   43 2    
    84   42   44 am   BACKBONE|DICT|INTERRES
    85   44   45 1    
    86   44  100 1    
    87   45   46 1    
    88   45   47 1    
    89   45  101 1    
    90   46  102 1    
    91   46  103 1    
    92   46  104 1    
    93   47   48 2    
    94   47   49 am   BACKBONE|DICT|INTERRES
    95   49   50 1    
    96   49  105 1    
    97   50   51 1    
    98   50   52 1    
    99   50  106 1    
   100   51  107 1    
   101   51  108 1    
   102   51  109 1    
   103   52   53 2    
   104   52   54 am   BACKBONE|DICT|INTERRES
   105   54   55 1    
   106   54  110 1    
   107   55   56 1    
   108   55   59 1    
   109   55  111 1    
   110   56   57 am   BACKBONE|DICT|INTERRES
   111   56   58 2    
   112   57  112 1    
   113   57  113 1    
   114   59   60 1    
   115   59  114 1    
   116   59  115 1    
   117   60   61 1    
   118   61  116 1    
   119   61  117 1    
@<TRIPOS>SUBSTRUCTURE
     1 UNK         1 GROUP             0       ****    0 ROOT    
