@<TRIPOS>MOLECULE
3R8
117   119    1
SMALL
USER_CHARGES


@<TRIPOS>ATOM
      1 CA         19.7346  -27.2166  -41.1847 C.3       0 UNK        -0.2013 
      2 C          19.1616  -26.6455  -42.4711 C.2       0 UNK         0.4866 
      3 O          19.7522  -26.8374  -43.5338 O.2       0 UNK        -0.5176 
      4 N          18.0329  -25.9286  -42.3729 N.am      1 UNK        -0.4884 
      5 CA         17.2897  -25.3007  -43.4781 C.3       1 UNK         0.0853 
      6 C6         16.5876  -26.3392  -44.4014 C.3       10 UNK        -0.0849 
      7 S7         15.5035  -27.4934  -43.4961 S.3       10 UNK        -0.2776 
      8 C8         15.4500  -28.9043  -44.6487 C.3       10 UNK         0.0316 
      9 C9         16.7883  -29.6255  -44.7389 C.ar      10 UNK        -0.0863 
     10 C10        17.2117  -30.4446  -43.6898 C.ar      10 UNK        -0.1009 
     11 C11        18.4280  -31.1278  -43.7676 C.ar      10 UNK        -0.0712 
     12 C12        19.2340  -30.9730  -44.9011 C.ar      10 UNK        -0.0894 
     13 C13        18.8234  -30.1550  -45.9609 C.ar      10 UNK        -0.0745 
     14 C14        17.5927  -29.4939  -45.8755 C.ar      10 UNK        -0.0972 
     15 C15        19.6803  -30.0401  -47.2197 C.3       10 UNK         0.0209 
     16 S16        19.9647  -28.3202  -47.7631 S.3       10 UNK        -0.2568 
     17 C17        21.1978  -27.7629  -46.5446 C.3       10 UNK        -0.0983 
     18 CA         21.4926  -26.2421  -46.6314 C.3       3 UNK         0.0876 
     19 N          20.2799  -25.4319  -46.4824 N.am      3 UNK        -0.4424 
     20 C          20.1831  -24.1252  -46.7699 C.2       2 UNK         0.4918 
     21 O          21.1073  -23.4587  -47.2364 O.2       2 UNK        -0.4875 
     22 CA         18.8291  -23.4390  -46.5005 C.3       2 UNK         0.0481 
     23 CB         18.0715  -23.2167  -47.8195 C.3       2 UNK        -0.1831 
     24 N          17.9764  -24.1969  -45.5806 N.am      2 UNK        -0.4498 
     25 C          18.1718  -24.2913  -44.2567 C.2       1 UNK         0.5027 
     26 O          19.0238  -23.6326  -43.6544 O.2       1 UNK        -0.4969 
     27 C          22.5699  -25.8576  -45.5969 C.2       3 UNK         0.5005 
     28 O          23.7595  -25.9633  -45.8989 O.2       3 UNK        -0.5279 
     29 N          22.1261  -25.4488  -44.3957 N.am      4 UNK        -0.4463 
     30 CA         22.9163  -25.2027  -43.1823 C.3       4 UNK         0.0283 
     31 CB         23.8837  -24.0156  -43.3704 C.3       4 UNK        -0.1875 
     32 C          23.6163  -26.4835  -42.6853 C.2       4 UNK         0.4949 
     33 O          24.7178  -26.4225  -42.1391 O.2       4 UNK        -0.5039 
     34 N          22.9543  -27.6292  -42.8906 N.am      5 UNK        -0.4663 
     35 CA         23.4904  -28.9739  -42.6742 C.3       5 UNK         0.0242 
     36 CB         22.9491  -29.8881  -43.7897 C.3       5 UNK        -0.1982 
     37 C          23.1643  -29.5356  -41.2799 C.2       5 UNK         0.5017 
     38 O          23.1726  -30.7539  -41.1140 O.2       5 UNK        -0.5012 
     39 N          22.8743  -28.6619  -40.3042 N.am      6 UNK        -0.4439 
     40 CA         22.3370  -28.9826  -38.9729 C.3       6 UNK         0.0297 
     41 CB         22.2180  -27.6885  -38.1514 C.3       6 UNK        -0.2006 
     42 C          23.1037  -30.0513  -38.1689 C.2       6 UNK         0.4892 
     43 O          22.4815  -30.7699  -37.3870 O.2       6 UNK        -0.5089 
     44 N          24.4233  -30.1487  -38.3801 N.am      7 UNK        -0.4243 
     45 CA         25.2860  -31.1705  -37.7813 C.3       7 UNK         0.0196 
     46 CB         26.7513  -30.7207  -37.9006 C.3       7 UNK        -0.2007 
     47 C          25.1045  -32.5706  -38.4002 C.2       7 UNK         0.5020 
     48 O          25.3963  -33.5606  -37.7286 O.2       7 UNK        -0.5147 
     49 N          24.6518  -32.6366  -39.6592 N.am      8 UNK        -0.4734 
     50 CA         24.4086  -33.8757  -40.4005 C.3       8 UNK         0.0238 
     51 CB         24.8476  -33.6850  -41.8620 C.3       8 UNK        -0.1912 
     52 C          22.9352  -34.3083  -40.3379 C.2       8 UNK         0.5038 
     53 O          22.6702  -35.5085  -40.4223 O.2       8 UNK        -0.5046 
     54 N          22.0110  -33.3452  -40.2008 N.am      9 UNK        -0.4200 
     55 CA         20.5659  -33.5737  -40.0389 C.3       9 UNK         0.0839 
     56 C          20.2209  -34.4525  -38.8036 C.2       9 UNK         0.5513 
     57 N          19.2195  -35.3145  -38.9176 N.am      9 UNK        -0.7519 
     58 O          20.8167  -34.3263  -37.7359 O.2       9 UNK        -0.4960 
     59 C59        19.7673  -32.2452  -39.9741 C.3       10 UNK        -0.0876 
     60 S60        19.9328  -31.1973  -41.4565 S.3       10 UNK        -0.2414 
     61 C61        18.8475  -32.0516  -42.6342 C.3       10 UNK         0.0169 
     62 H62        20.6026  -26.6364  -40.8762 H         1 UNK         0.0903 
     63 H63        19.0066  -27.2073  -40.3740 H         1 UNK         0.0903 
     64 H64        20.0492  -28.2471  -41.3424 H         1 UNK         0.0903 
     65 H65        17.6255  -25.7883  -41.4592 H         1 UNK         0.3096 
     66 H66        16.5097  -24.6971  -43.0110 H         1 UNK         0.1121 
     67 H67        15.9595  -25.8451  -45.1445 H         1 UNK         0.0849 
     68 H68        17.3380  -26.9086  -44.9508 H         1 UNK         0.0849 
     69 H69        14.6865  -29.6065  -44.3105 H         1 UNK         0.0865 
     70 H70        15.1271  -28.5572  -45.6315 H         1 UNK         0.0865 
     71 H71        16.5885  -30.5538  -42.8126 H         1 UNK         0.1346 
     72 H72        20.1739  -31.5044  -44.9613 H         1 UNK         0.1412 
     73 H73        17.2630  -28.8743  -46.6983 H         1 UNK         0.1426 
     74 H74        19.1780  -30.5774  -48.0251 H         1 UNK         0.0716 
     75 H75        20.6455  -30.5299  -47.0807 H         1 UNK         0.0716 
     76 H76        20.8443  -28.0370  -45.5496 H         1 UNK         0.0695 
     77 H77        22.1121  -28.3352  -46.7128 H         1 UNK         0.0695 
     78 H78        21.9088  -26.0339  -47.6197 H         1 UNK         0.0983 
     79 H79        19.4782  -25.9106  -46.1003 H         1 UNK         0.3095 
     80 H80        19.0357  -22.4622  -46.0582 H         1 UNK         0.0454 
     81 H81        18.6665  -22.6236  -48.5155 H         1 UNK         0.0851 
     82 H82        17.8356  -24.1590  -48.3157 H         1 UNK         0.0851 
     83 H83        17.1378  -22.6784  -47.6563 H         1 UNK         0.0851 
     84 H84        17.2406  -24.7444  -46.0030 H         1 UNK         0.2976 
     85 H85        21.1212  -25.4811  -44.2512 H         1 UNK         0.3116 
     86 H86        22.2005  -24.9252  -42.4072 H         1 UNK         0.0646 
     87 H87        24.3582  -23.7464  -42.4261 H         1 UNK         0.0847 
     88 H88        23.3601  -23.1312  -43.7331 H         1 UNK         0.0847 
     89 H89        24.6808  -24.2477  -44.0771 H         1 UNK         0.0847 
     90 H90        22.0284  -27.5751  -43.2972 H         1 UNK         0.3040 
     91 H91        24.5792  -28.9503  -42.7575 H         1 UNK         0.1015 
     92 H92        23.2136  -29.5079  -44.7762 H         1 UNK         0.0786 
     93 H93        21.8629  -29.9761  -43.7421 H         1 UNK         0.0786 
     94 H94        23.3618  -30.8949  -43.7154 H         1 UNK         0.0786 
     95 H95        22.9490  -27.6826  -40.5363 H         1 UNK         0.3172 
     96 H96        21.3300  -29.3728  -39.1324 H         1 UNK         0.0595 
     97 H97        21.5571  -26.9667  -38.6303 H         1 UNK         0.0839 
     98 H98        23.1887  -27.2125  -38.0064 H         1 UNK         0.0839 
     99 H99        21.8044  -27.8905  -37.1620 H         1 UNK         0.0839 
    100 H100       24.8498  -29.5151  -39.0405 H         1 UNK         0.2998 
    101 H101       25.0390  -31.2484  -36.7201 H         1 UNK         0.0822 
    102 H102       26.9156  -29.7652  -37.4020 H         1 UNK         0.0787 
    103 H103       27.4210  -31.4459  -37.4359 H         1 UNK         0.0787 
    104 H104       27.0581  -30.6150  -38.9420 H         1 UNK         0.0787 
    105 H105       24.3608  -31.7804  -40.1245 H         1 UNK         0.3055 
    106 H106       25.0053  -34.6847  -39.9727 H         1 UNK         0.1106 
    107 H107       24.2716  -32.9046  -42.3604 H         1 UNK         0.0828 
    108 H108       25.9021  -33.4172  -41.9274 H         1 UNK         0.0828 
    109 H109       24.7108  -34.6045  -42.4328 H         1 UNK         0.0828 
    110 H110       22.3139  -32.3787  -40.2187 H         1 UNK         0.2931 
    111 H111       20.2420  -34.1162  -40.9292 H         1 UNK         0.0412 
    112 H112       18.7178  -35.4208  -39.7859 H         1 UNK         0.3472 
    113 H113       18.9686  -35.8820  -38.1227 H         1 UNK         0.3472 
    114 H114       20.0924  -31.6581  -39.1129 H         1 UNK         0.0970 
    115 H115       18.7047  -32.4391  -39.8150 H         1 UNK         0.0970 
    116 H116       17.9638  -32.4267  -42.1159 H         1 UNK         0.0612 
    117 H117       19.3664  -32.9247  -43.0324 H         1 UNK         0.0612 
@<TRIPOS>BOND
     1    1    2 1    
     2    1   62 1    
     3    1   63 1    
     4    1   64 1    
     5    2    3 2    
     6    2    4 am   BACKBONE|DICT|INTERRES
     7    4    5 1    
     8    4   65 1    
     9    5    6 1    
    10    5   25 1    
    11    5   66 1    
    12    6    7 1    
    13    6   67 1    
    14    6   68 1    
    15    7    8 1    
    16    8    9 1    
    17    8   69 1    
    18    8   70 1    
    19    9   10 ar   
    20    9   14 ar   
    21   10   11 ar   
    22   10   71 1    
    23   11   12 ar   
    24   11   61 1    
    25   12   13 ar   
    26   12   72 1    
    27   13   14 ar   
    28   13   15 1    
    29   14   73 1    
    30   15   16 1    
    31   15   74 1    
    32   15   75 1    
    33   16   17 1    
    34   17   18 1    
    35   17   76 1    
    36   17   77 1    
    37   18   19 1    
    38   18   27 1    
    39   18   78 1    
    40   19   20 am   BACKBONE|DICT|INTERRES
    41   19   79 1    
    42   20   21 2    
    43   20   22 1    
    44   22   23 1    
    45   22   24 1    
    46   22   80 1    
    47   23   81 1    
    48   23   82 1    
    49   23   83 1    
    50   24   25 am   BACKBONE|DICT|INTERRES
    51   24   84 1    
    52   25   26 2    
    53   27   28 2    
    54   27   29 am   BACKBONE|DICT|INTERRES
    55   29   30 1    
    56   29   85 1    
    57   30   31 1    
    58   30   32 1    
    59   30   86 1    
    60   31   87 1    
    61   31   88 1    
    62   31   89 1    
    63   32   33 2    
    64   32   34 am   BACKBONE|DICT|INTERRES
    65   34   35 1    
    66   34   90 1    
    67   35   36 1    
    68   35   37 1    
    69   35   91 1    
    70   36   92 1    
    71   36   93 1    
    72   36   94 1    
    73   37   38 2    
    74   37   39 am   BACKBONE|DICT|INTERRES
    75   39   40 1    
    76   39   95 1    
    77   40   41 1    
    78   40   42 1    
    79   40   96 1    
    80   41   97 1    
    81   41   98 1    
    82   41   99 1    
    83   42   43 2    
    84   42   44 am   BACKBONE|DICT|INTERRES
    85   44   45 1    
    86   44  100 1    
    87   45   46 1    
    88   45   47 1    
    89   45  101 1    
    90   46  102 1    
    91   46  103 1    
    92   46  104 1    
    93   47   48 2    
    94   47   49 am   BACKBONE|DICT|INTERRES
    95   49   50 1    
    96   49  105 1    
    97   50   51 1    
    98   50   52 1    
    99   50  106 1    
   100   51  107 1    
   101   51  108 1    
   102   51  109 1    
   103   52   53 2    
   104   52   54 am   BACKBONE|DICT|INTERRES
   105   54   55 1    
   106   54  110 1    
   107   55   56 1    
   108   55   59 1    
   109   55  111 1    
   110   56   57 am   BACKBONE|DICT|INTERRES
   111   56   58 2    
   112   57  112 1    
   113   57  113 1    
   114   59   60 1    
   115   59  114 1    
   116   59  115 1    
   117   60   61 1    
   118   61  116 1    
   119   61  117 1    
@<TRIPOS>SUBSTRUCTURE
     1 UNK         1 GROUP             0       ****    0 ROOT    
