@<TRIPOS>MOLECULE
3R8
117   119    1
SMALL
USER_CHARGES


@<TRIPOS>ATOM
      1 CA         14.9682  -23.5280  -41.6587 C.3       0 UNK        -0.2013 
      2 C          15.7387  -23.5197  -42.9706 C.2       0 UNK         0.4866 
      3 O          15.8682  -22.4683  -43.5990 O.2       0 UNK        -0.5176 
      4 N          16.2427  -24.6854  -43.3932 N.am      1 UNK        -0.4884 
      5 CA         17.0541  -24.8567  -44.6029 C.3       1 UNK         0.0853 
      6 C6         17.2305  -26.3526  -44.9737 C.3       10 UNK        -0.0849 
      7 S7         15.6731  -27.2787  -45.1809 S.3       10 UNK        -0.2776 
      8 C8         15.8504  -28.6108  -43.9342 C.3       10 UNK         0.0316 
      9 C9         17.1105  -29.4725  -44.0688 C.ar      10 UNK        -0.0863 
     10 C10        17.6806  -30.0304  -42.9180 C.ar      10 UNK        -0.1009 
     11 C11        18.8352  -30.8152  -43.0003 C.ar      10 UNK        -0.0712 
     12 C12        19.4298  -31.0368  -44.2444 C.ar      10 UNK        -0.0894 
     13 C13        18.8687  -30.4993  -45.4042 C.ar      10 UNK        -0.0745 
     14 C14        17.7019  -29.7331  -45.3122 C.ar      10 UNK        -0.0972 
     15 C15        19.5208  -30.7568  -46.7565 C.3       10 UNK         0.0209 
     16 S16        21.1009  -29.8660  -46.9520 S.3       10 UNK        -0.2568 
     17 C17        20.5596  -28.1249  -46.8565 C.3       10 UNK        -0.0983 
     18 CA         21.3865  -27.2079  -45.9165 C.3       3 UNK         0.0876 
     19 N          20.8514  -25.8452  -45.9913 N.am      3 UNK        -0.4424 
     20 C          21.3717  -24.7361  -45.4476 C.2       2 UNK         0.4918 
     21 O          22.4350  -24.7053  -44.8300 O.2       2 UNK        -0.4875 
     22 CA         20.5076  -23.4637  -45.5689 C.3       2 UNK         0.0481 
     23 CB         20.8335  -22.7096  -46.8674 C.3       2 UNK        -0.1831 
     24 N          19.0695  -23.7722  -45.5186 N.am      2 UNK        -0.4498 
     25 C          18.4548  -24.2361  -44.4200 C.2       1 UNK         0.5027 
     26 O          19.0029  -24.2961  -43.3178 O.2       1 UNK        -0.4969 
     27 C          21.4933  -27.7359  -44.4621 C.2       3 UNK         0.5005 
     28 O          22.3895  -28.5309  -44.1745 O.2       3 UNK        -0.5279 
     29 N          20.6510  -27.2294  -43.5442 N.am      4 UNK        -0.4463 
     30 CA         20.6530  -27.5768  -42.1161 C.3       4 UNK         0.0283 
     31 CB         19.3824  -27.0360  -41.4401 C.3       4 UNK        -0.1875 
     32 C          21.9141  -27.1295  -41.3496 C.2       4 UNK         0.4949 
     33 O          22.0823  -27.5298  -40.1978 O.2       4 UNK        -0.5039 
     34 N          22.7986  -26.3523  -41.9963 N.am      5 UNK        -0.4663 
     35 CA         24.1641  -26.0759  -41.5404 C.3       5 UNK         0.0242 
     36 CB         24.8194  -25.0559  -42.4838 C.3       5 UNK        -0.1982 
     37 C          25.0314  -27.3459  -41.4300 C.2       5 UNK         0.5017 
     38 O          25.9459  -27.3750  -40.6050 O.2       5 UNK        -0.5012 
     39 N          24.7055  -28.3906  -42.2092 N.am      6 UNK        -0.4439 
     40 CA         25.1958  -29.7548  -42.0129 C.3       6 UNK         0.0297 
     41 CB         25.0769  -30.5355  -43.3344 C.3       6 UNK        -0.2006 
     42 C          24.3920  -30.4038  -40.8723 C.2       6 UNK         0.4892 
     43 O          23.4758  -31.1859  -41.1290 O.2       6 UNK        -0.5089 
     44 N          24.7268  -30.0169  -39.6332 N.am      7 UNK        -0.4243 
     45 CA         23.9778  -30.2898  -38.4000 C.3       7 UNK         0.0196 
     46 CB         24.6796  -29.5864  -37.2270 C.3       7 UNK        -0.2007 
     47 C          23.7412  -31.7746  -38.0710 C.2       7 UNK         0.5020 
     48 O          22.7961  -32.0812  -37.3437 O.2       7 UNK        -0.5147 
     49 N          24.5782  -32.6701  -38.6132 N.am      8 UNK        -0.4734 
     50 CA         24.3990  -34.1236  -38.5361 C.3       8 UNK         0.0238 
     51 CB         25.6695  -34.8197  -39.0505 C.3       8 UNK        -0.1912 
     52 C          23.1607  -34.6238  -39.3060 C.2       8 UNK         0.5038 
     53 O          22.5816  -35.6364  -38.9100 O.2       8 UNK        -0.5046 
     54 N          22.7729  -33.8971  -40.3647 N.am      9 UNK        -0.4200 
     55 CA         21.6105  -34.1499  -41.2248 C.3       9 UNK         0.0839 
     56 C          21.6365  -35.5377  -41.9389 C.2       9 UNK         0.5513 
     57 N          20.4967  -36.0489  -42.3836 N.am      9 UNK        -0.7519 
     58 O          22.6920  -36.1337  -42.1465 O.2       9 UNK        -0.4960 
     59 C59        20.2818  -33.8009  -40.4881 C.3       10 UNK        -0.0876 
     60 S60        18.9907  -33.1887  -41.6211 S.3       10 UNK        -0.2414 
     61 C61        19.4495  -31.4327  -41.7546 C.3       10 UNK         0.0169 
     62 H62        13.9480  -23.1809  -41.8204 H         1 UNK         0.0903 
     63 H63        14.9215  -24.5242  -41.2189 H         1 UNK         0.0903 
     64 H64        15.4452  -22.8623  -40.9399 H         1 UNK         0.0903 
     65 H65        16.1102  -25.5160  -42.8357 H         1 UNK         0.3096 
     66 H66        16.5482  -24.3447  -45.4247 H         1 UNK         0.1121 
     67 H67        17.7740  -26.4453  -45.9152 H         1 UNK         0.0849 
     68 H68        17.8418  -26.8576  -44.2254 H         1 UNK         0.0849 
     69 H69        14.9789  -29.2634  -43.9986 H         1 UNK         0.0865 
     70 H70        15.8171  -28.1537  -42.9440 H         1 UNK         0.0865 
     71 H71        17.2248  -29.8561  -41.9528 H         1 UNK         0.1346 
     72 H72        20.3293  -31.6338  -44.3111 H         1 UNK         0.1412 
     73 H73        17.2627  -29.3282  -46.2132 H         1 UNK         0.1426 
     74 H74        18.8507  -30.4765  -47.5708 H         1 UNK         0.0716 
     75 H75        19.7041  -31.8264  -46.8676 H         1 UNK         0.0716 
     76 H76        19.5082  -28.0864  -46.5748 H         1 UNK         0.0695 
     77 H77        20.6001  -27.7294  -47.8727 H         1 UNK         0.0695 
     78 H78        22.4077  -27.1693  -46.3020 H         1 UNK         0.0983 
     79 H79        19.9928  -25.7443  -46.5097 H         1 UNK         0.3095 
     80 H80        20.7510  -22.8119  -44.7271 H         1 UNK         0.0454 
     81 H81        21.8932  -22.4545  -46.9129 H         1 UNK         0.0851 
     82 H82        20.2753  -21.7757  -46.9342 H         1 UNK         0.0851 
     83 H83        20.6037  -23.3028  -47.7534 H         1 UNK         0.0851 
     84 H84        18.5596  -23.7215  -46.3899 H         1 UNK         0.2976 
     85 H85        20.0025  -26.5104  -43.8271 H         1 UNK         0.3116 
     86 H86        20.6245  -28.6661  -42.0537 H         1 UNK         0.0646 
     87 H87        19.3029  -27.4067  -40.4173 H         1 UNK         0.0847 
     88 H88        18.4802  -27.3497  -41.9631 H         1 UNK         0.0847 
     89 H89        19.3851  -25.9479  -41.3848 H         1 UNK         0.0847 
     90 H90        22.5656  -26.0357  -42.9291 H         1 UNK         0.3040 
     91 H91        24.1005  -25.6365  -40.5425 H         1 UNK         0.1015 
     92 H92        24.2510  -24.1262  -42.5201 H         1 UNK         0.0786 
     93 H93        24.8966  -25.4400  -43.5020 H         1 UNK         0.0786 
     94 H94        25.8279  -24.8065  -42.1506 H         1 UNK         0.0786 
     95 H95        23.9131  -28.2955  -42.8392 H         1 UNK         0.3172 
     96 H96        26.2499  -29.7318  -41.7283 H         1 UNK         0.0595 
     97 H97        24.0438  -30.6001  -43.6786 H         1 UNK         0.0839 
     98 H98        25.4442  -31.5558  -43.2175 H         1 UNK         0.0839 
     99 H99        25.6624  -30.0672  -44.1256 H         1 UNK         0.0839 
    100 H100       25.4719  -29.3357  -39.5552 H         1 UNK         0.2998 
    101 H101       22.9921  -29.8367  -38.5267 H         1 UNK         0.0822 
    102 H102       24.7448  -28.5105  -37.3915 H         1 UNK         0.0787 
    103 H103       24.1321  -29.7364  -36.2953 H         1 UNK         0.0787 
    104 H104       25.6908  -29.9666  -37.0765 H         1 UNK         0.0787 
    105 H105       25.3341  -32.3273  -39.1882 H         1 UNK         0.3055 
    106 H106       24.2594  -34.3921  -37.4864 H         1 UNK         0.1106 
    107 H107       25.5740  -35.9043  -38.9810 H         1 UNK         0.0828 
    108 H108       25.8689  -34.5776  -40.0952 H         1 UNK         0.0828 
    109 H109       26.5441  -34.5354  -38.4650 H         1 UNK         0.0828 
    110 H110       23.2889  -33.0523  -40.5905 H         1 UNK         0.2931 
    111 H111       21.7421  -33.4310  -42.0341 H         1 UNK         0.0412 
    112 H112       20.5029  -36.9345  -42.8652 H         1 UNK         0.3472 
    113 H113       19.6318  -35.5435  -42.2581 H         1 UNK         0.3472 
    114 H114       20.4525  -33.0263  -39.7379 H         1 UNK         0.0970 
    115 H115       19.9050  -34.6626  -39.9341 H         1 UNK         0.0970 
    116 H116       19.1271  -30.9031  -40.8569 H         1 UNK         0.0612 
    117 H117       20.5353  -31.3318  -41.8005 H         1 UNK         0.0612 
@<TRIPOS>BOND
     1    1    2 1    
     2    1   62 1    
     3    1   63 1    
     4    1   64 1    
     5    2    3 2    
     6    2    4 am   BACKBONE|DICT|INTERRES
     7    4    5 1    
     8    4   65 1    
     9    5    6 1    
    10    5   25 1    
    11    5   66 1    
    12    6    7 1    
    13    6   67 1    
    14    6   68 1    
    15    7    8 1    
    16    8    9 1    
    17    8   69 1    
    18    8   70 1    
    19    9   10 ar   
    20    9   14 ar   
    21   10   11 ar   
    22   10   71 1    
    23   11   12 ar   
    24   11   61 1    
    25   12   13 ar   
    26   12   72 1    
    27   13   14 ar   
    28   13   15 1    
    29   14   73 1    
    30   15   16 1    
    31   15   74 1    
    32   15   75 1    
    33   16   17 1    
    34   17   18 1    
    35   17   76 1    
    36   17   77 1    
    37   18   19 1    
    38   18   27 1    
    39   18   78 1    
    40   19   20 am   BACKBONE|DICT|INTERRES
    41   19   79 1    
    42   20   21 2    
    43   20   22 1    
    44   22   23 1    
    45   22   24 1    
    46   22   80 1    
    47   23   81 1    
    48   23   82 1    
    49   23   83 1    
    50   24   25 am   BACKBONE|DICT|INTERRES
    51   24   84 1    
    52   25   26 2    
    53   27   28 2    
    54   27   29 am   BACKBONE|DICT|INTERRES
    55   29   30 1    
    56   29   85 1    
    57   30   31 1    
    58   30   32 1    
    59   30   86 1    
    60   31   87 1    
    61   31   88 1    
    62   31   89 1    
    63   32   33 2    
    64   32   34 am   BACKBONE|DICT|INTERRES
    65   34   35 1    
    66   34   90 1    
    67   35   36 1    
    68   35   37 1    
    69   35   91 1    
    70   36   92 1    
    71   36   93 1    
    72   36   94 1    
    73   37   38 2    
    74   37   39 am   BACKBONE|DICT|INTERRES
    75   39   40 1    
    76   39   95 1    
    77   40   41 1    
    78   40   42 1    
    79   40   96 1    
    80   41   97 1    
    81   41   98 1    
    82   41   99 1    
    83   42   43 2    
    84   42   44 am   BACKBONE|DICT|INTERRES
    85   44   45 1    
    86   44  100 1    
    87   45   46 1    
    88   45   47 1    
    89   45  101 1    
    90   46  102 1    
    91   46  103 1    
    92   46  104 1    
    93   47   48 2    
    94   47   49 am   BACKBONE|DICT|INTERRES
    95   49   50 1    
    96   49  105 1    
    97   50   51 1    
    98   50   52 1    
    99   50  106 1    
   100   51  107 1    
   101   51  108 1    
   102   51  109 1    
   103   52   53 2    
   104   52   54 am   BACKBONE|DICT|INTERRES
   105   54   55 1    
   106   54  110 1    
   107   55   56 1    
   108   55   59 1    
   109   55  111 1    
   110   56   57 am   BACKBONE|DICT|INTERRES
   111   56   58 2    
   112   57  112 1    
   113   57  113 1    
   114   59   60 1    
   115   59  114 1    
   116   59  115 1    
   117   60   61 1    
   118   61  116 1    
   119   61  117 1    
@<TRIPOS>SUBSTRUCTURE
     1 UNK         1 GROUP             0       ****    0 ROOT    
