@<TRIPOS>MOLECULE
3R8
117   119    1
SMALL
USER_CHARGES


@<TRIPOS>ATOM
      1 CA         13.0590  -26.6454  -40.0547 C.3       0 UNK        -0.2013 
      2 C          14.1256  -26.4385  -41.1197 C.2       0 UNK         0.4866 
      3 O          14.8978  -25.4831  -41.0349 O.2       0 UNK        -0.5176 
      4 N          14.1700  -27.3213  -42.1257 N.am      1 UNK        -0.4884 
      5 CA         15.1758  -27.3208  -43.1929 C.3       1 UNK         0.0853 
      6 C6         14.6982  -28.1606  -44.4057 C.3       10 UNK        -0.0849 
      7 S7         15.3282  -27.5183  -45.9917 S.3       10 UNK        -0.2776 
      8 C8         16.0882  -28.9996  -46.7294 C.3       10 UNK         0.0316 
      9 C9         17.4717  -29.2639  -46.1571 C.ar      10 UNK        -0.0863 
     10 C10        17.6667  -30.2495  -45.1864 C.ar      10 UNK        -0.1009 
     11 C11        18.9403  -30.4813  -44.6598 C.ar      10 UNK        -0.0712 
     12 C12        20.0220  -29.7227  -45.1175 C.ar      10 UNK        -0.0894 
     13 C13        19.8456  -28.7392  -46.0999 C.ar      10 UNK        -0.0745 
     14 C14        18.5630  -28.5179  -46.6088 C.ar      10 UNK        -0.0972 
     15 C15        20.9894  -27.8736  -46.6312 C.3       10 UNK         0.0209 
     16 S16        22.6775  -28.4906  -46.2953 S.3       10 UNK        -0.2568 
     17 C17        23.2008  -27.8568  -44.6586 C.3       10 UNK        -0.0983 
     18 CA         22.3847  -26.7185  -43.9850 C.3       3 UNK         0.0876 
     19 N          21.1911  -27.2426  -43.3238 N.am      3 UNK        -0.4424 
     20 C          19.9873  -26.6681  -43.3015 C.2       2 UNK         0.4918 
     21 O          19.6873  -25.6447  -43.9218 O.2       2 UNK        -0.4875 
     22 CA         18.9501  -27.3535  -42.4064 C.3       2 UNK         0.0481 
     23 CB         19.0841  -26.8752  -40.9478 C.3       2 UNK        -0.1831 
     24 N          17.6066  -27.0745  -42.9037 N.am      2 UNK        -0.4498 
     25 C          16.5263  -27.8150  -42.6336 C.2       1 UNK         0.5027 
     26 O          16.5538  -28.8466  -41.9561 O.2       1 UNK        -0.4969 
     27 C          23.2635  -26.0375  -42.9184 C.2       3 UNK         0.5005 
     28 O          23.1214  -26.3138  -41.7253 O.2       3 UNK        -0.5279 
     29 N          24.2108  -25.2045  -43.3697 N.am      4 UNK        -0.4463 
     30 CA         25.2673  -24.6485  -42.5195 C.3       4 UNK         0.0283 
     31 CB         25.9171  -23.4426  -43.2179 C.3       4 UNK        -0.1875 
     32 C          26.3292  -25.7022  -42.1541 C.2       4 UNK         0.4949 
     33 O          26.7707  -25.7432  -41.0062 O.2       4 UNK        -0.5039 
     34 N          26.7202  -26.5281  -43.1364 N.am      5 UNK        -0.4663 
     35 CA         27.7562  -27.5534  -42.9889 C.3       5 UNK         0.0242 
     36 CB         28.4210  -27.8147  -44.3518 C.3       5 UNK        -0.1982 
     37 C          27.2102  -28.8551  -42.3831 C.2       5 UNK         0.5017 
     38 O          27.7389  -29.3225  -41.3746 O.2       5 UNK        -0.5012 
     39 N          26.1675  -29.4184  -43.0114 N.am      6 UNK        -0.4439 
     40 CA         25.5630  -30.7032  -42.6321 C.3       6 UNK         0.0297 
     41 CB         24.9167  -31.3525  -43.8698 C.3       6 UNK        -0.2006 
     42 C          24.5566  -30.6092  -41.4688 C.2       6 UNK         0.4892 
     43 O          24.0369  -31.6457  -41.0504 O.2       6 UNK        -0.5089 
     44 N          24.2924  -29.3905  -40.9720 N.am      7 UNK        -0.4243 
     45 CA         23.3462  -29.0651  -39.9000 C.3       7 UNK         0.0196 
     46 CB         23.8510  -29.6156  -38.5451 C.3       7 UNK        -0.2007 
     47 C          21.9142  -29.4974  -40.2708 C.2       7 UNK         0.5020 
     48 O          21.4993  -29.3073  -41.4155 O.2       7 UNK        -0.5147 
     49 N          21.1917  -30.0920  -39.3151 N.am      8 UNK        -0.4734 
     50 CA         19.8431  -30.6388  -39.4879 C.3       8 UNK         0.0238 
     51 CB         19.1281  -30.6241  -38.1247 C.3       8 UNK        -0.1912 
     52 C          19.8202  -32.0441  -40.1283 C.2       8 UNK         0.5038 
     53 O          18.7757  -32.6961  -40.0826 O.2       8 UNK        -0.5046 
     54 N          20.9413  -32.4799  -40.7240 N.am      9 UNK        -0.4200 
     55 CA         21.1345  -33.7759  -41.3944 C.3       9 UNK         0.0839 
     56 C          21.1138  -34.9846  -40.4081 C.2       9 UNK         0.5513 
     57 N          21.1562  -36.2120  -40.9106 N.am      9 UNK        -0.7519 
     58 O          21.1086  -34.8333  -39.1874 O.2       9 UNK        -0.4960 
     59 C59        20.1990  -33.9650  -42.6290 C.3       10 UNK        -0.0876 
     60 S60        20.4523  -32.7130  -43.9350 S.3       10 UNK        -0.2414 
     61 C61        19.1337  -31.5119  -43.5572 C.3       10 UNK         0.0169 
     62 H62        12.4390  -27.5177  -40.2612 H         1 UNK         0.0903 
     63 H63        13.5251  -26.7842  -39.0796 H         1 UNK         0.0903 
     64 H64        12.4085  -25.7728  -40.0005 H         1 UNK         0.0903 
     65 H65        13.5357  -28.1075  -42.1216 H         1 UNK         0.3096 
     66 H66        15.2932  -26.2828  -43.5140 H         1 UNK         0.1121 
     67 H67        13.6102  -28.1226  -44.4825 H         1 UNK         0.0849 
     68 H68        14.9410  -29.2181  -44.2851 H         1 UNK         0.0849 
     69 H69        15.4349  -29.8631  -46.5940 H         1 UNK         0.0865 
     70 H70        16.1681  -28.8518  -47.8075 H         1 UNK         0.0865 
     71 H71        16.8239  -30.8245  -44.8280 H         1 UNK         0.1346 
     72 H72        20.9968  -29.8992  -44.6864 H         1 UNK         0.1412 
     73 H73        18.4089  -27.7529  -47.3581 H         1 UNK         0.1426 
     74 H74        20.8656  -26.8484  -46.2881 H         1 UNK         0.0716 
     75 H75        20.8932  -27.8267  -47.7170 H         1 UNK         0.0716 
     76 H76        24.2354  -27.5479  -44.8165 H         1 UNK         0.0695 
     77 H77        23.2573  -28.7056  -43.9766 H         1 UNK         0.0695 
     78 H78        22.1219  -25.9548  -44.7182 H         1 UNK         0.0983 
     79 H79        21.3518  -28.0302  -42.6959 H         1 UNK         0.3095 
     80 H80        19.1252  -28.4303  -42.4505 H         1 UNK         0.0454 
     81 H81        18.4199  -27.4284  -40.2839 H         1 UNK         0.0851 
     82 H82        18.8484  -25.8149  -40.8511 H         1 UNK         0.0851 
     83 H83        20.1001  -27.0170  -40.5777 H         1 UNK         0.0851 
     84 H84        17.5396  -26.2649  -43.5080 H         1 UNK         0.2976 
     85 H85        24.2626  -25.0012  -44.3583 H         1 UNK         0.3116 
     86 H86        24.8153  -24.2932  -41.5905 H         1 UNK         0.0646 
     87 H87        26.3807  -23.7191  -44.1656 H         1 UNK         0.0847 
     88 H88        26.6954  -23.0042  -42.5916 H         1 UNK         0.0847 
     89 H89        25.1862  -22.6588  -43.4176 H         1 UNK         0.0847 
     90 H90        26.3200  -26.4081  -44.0548 H         1 UNK         0.3040 
     91 H91        28.5291  -27.1783  -42.3132 H         1 UNK         0.1015 
     92 H92        27.7061  -28.1531  -45.1026 H         1 UNK         0.0786 
     93 H93        29.1930  -28.5812  -44.2682 H         1 UNK         0.0786 
     94 H94        28.9034  -26.9144  -44.7333 H         1 UNK         0.0786 
     95 H95        25.8059  -28.9725  -43.8406 H         1 UNK         0.3172 
     96 H96        26.3609  -31.3697  -42.2974 H         1 UNK         0.0595 
     97 H97        24.0656  -30.7839  -44.2415 H         1 UNK         0.0839 
     98 H98        24.5503  -32.3532  -43.6359 H         1 UNK         0.0839 
     99 H99        25.6330  -31.4581  -44.6847 H         1 UNK         0.0839 
    100 H100       24.7437  -28.5984  -41.4052 H         1 UNK         0.2998 
    101 H101       23.3253  -27.9788  -39.8180 H         1 UNK         0.0822 
    102 H102       24.8765  -29.2980  -38.3551 H         1 UNK         0.0787 
    103 H103       23.2493  -29.2440  -37.7148 H         1 UNK         0.0787 
    104 H104       23.8351  -30.7058  -38.5102 H         1 UNK         0.0787 
    105 H105       21.6228  -30.2358  -38.4129 H         1 UNK         0.3055 
    106 H106       19.2866  -29.9848  -40.1639 H         1 UNK         0.1106 
    107 H107       18.0885  -30.9400  -38.2218 H         1 UNK         0.0828 
    108 H108       19.6074  -31.2953  -37.4111 H         1 UNK         0.0828 
    109 H109       19.1170  -29.6233  -37.6926 H         1 UNK         0.0828 
    110 H110       21.7606  -31.8869  -40.7021 H         1 UNK         0.2931 
    111 H111       22.1600  -33.7415  -41.7643 H         1 UNK         0.0412 
    112 H112       21.1610  -36.9968  -40.2774 H         1 UNK         0.3472 
    113 H113       21.2011  -36.3734  -41.9043 H         1 UNK         0.3472 
    114 H114       19.1507  -33.9878  -42.3289 H         1 UNK         0.0970 
    115 H115       20.3834  -34.9287  -43.1045 H         1 UNK         0.0970 
    116 H116       19.3856  -30.9740  -42.6452 H         1 UNK         0.0612 
    117 H117       18.2029  -32.0469  -43.3632 H         1 UNK         0.0612 
@<TRIPOS>BOND
     1    1    2 1    
     2    1   62 1    
     3    1   63 1    
     4    1   64 1    
     5    2    3 2    
     6    2    4 am   BACKBONE|DICT|INTERRES
     7    4    5 1    
     8    4   65 1    
     9    5    6 1    
    10    5   25 1    
    11    5   66 1    
    12    6    7 1    
    13    6   67 1    
    14    6   68 1    
    15    7    8 1    
    16    8    9 1    
    17    8   69 1    
    18    8   70 1    
    19    9   10 ar   
    20    9   14 ar   
    21   10   11 ar   
    22   10   71 1    
    23   11   12 ar   
    24   11   61 1    
    25   12   13 ar   
    26   12   72 1    
    27   13   14 ar   
    28   13   15 1    
    29   14   73 1    
    30   15   16 1    
    31   15   74 1    
    32   15   75 1    
    33   16   17 1    
    34   17   18 1    
    35   17   76 1    
    36   17   77 1    
    37   18   19 1    
    38   18   27 1    
    39   18   78 1    
    40   19   20 am   BACKBONE|DICT|INTERRES
    41   19   79 1    
    42   20   21 2    
    43   20   22 1    
    44   22   23 1    
    45   22   24 1    
    46   22   80 1    
    47   23   81 1    
    48   23   82 1    
    49   23   83 1    
    50   24   25 am   BACKBONE|DICT|INTERRES
    51   24   84 1    
    52   25   26 2    
    53   27   28 2    
    54   27   29 am   BACKBONE|DICT|INTERRES
    55   29   30 1    
    56   29   85 1    
    57   30   31 1    
    58   30   32 1    
    59   30   86 1    
    60   31   87 1    
    61   31   88 1    
    62   31   89 1    
    63   32   33 2    
    64   32   34 am   BACKBONE|DICT|INTERRES
    65   34   35 1    
    66   34   90 1    
    67   35   36 1    
    68   35   37 1    
    69   35   91 1    
    70   36   92 1    
    71   36   93 1    
    72   36   94 1    
    73   37   38 2    
    74   37   39 am   BACKBONE|DICT|INTERRES
    75   39   40 1    
    76   39   95 1    
    77   40   41 1    
    78   40   42 1    
    79   40   96 1    
    80   41   97 1    
    81   41   98 1    
    82   41   99 1    
    83   42   43 2    
    84   42   44 am   BACKBONE|DICT|INTERRES
    85   44   45 1    
    86   44  100 1    
    87   45   46 1    
    88   45   47 1    
    89   45  101 1    
    90   46  102 1    
    91   46  103 1    
    92   46  104 1    
    93   47   48 2    
    94   47   49 am   BACKBONE|DICT|INTERRES
    95   49   50 1    
    96   49  105 1    
    97   50   51 1    
    98   50   52 1    
    99   50  106 1    
   100   51  107 1    
   101   51  108 1    
   102   51  109 1    
   103   52   53 2    
   104   52   54 am   BACKBONE|DICT|INTERRES
   105   54   55 1    
   106   54  110 1    
   107   55   56 1    
   108   55   59 1    
   109   55  111 1    
   110   56   57 am   BACKBONE|DICT|INTERRES
   111   56   58 2    
   112   57  112 1    
   113   57  113 1    
   114   59   60 1    
   115   59  114 1    
   116   59  115 1    
   117   60   61 1    
   118   61  116 1    
   119   61  117 1    
@<TRIPOS>SUBSTRUCTURE
     1 UNK         1 GROUP             0       ****    0 ROOT    
