@<TRIPOS>MOLECULE
3R8
117   119    1
SMALL
USER_CHARGES


@<TRIPOS>ATOM
      1 CA         16.8541  -21.7920  -47.3866 C.3       0 UNK        -0.2013 
      2 C          17.0498  -23.0761  -46.5951 C.2       0 UNK         0.4866 
      3 O          16.3624  -23.2858  -45.5947 O.2       0 UNK        -0.5176 
      4 N          17.9854  -23.9314  -47.0330 N.am      1 UNK        -0.4884 
      5 CA         18.3764  -25.2205  -46.4435 C.3       1 UNK         0.0853 
      6 C6         17.2027  -26.2367  -46.3487 C.3       10 UNK        -0.0849 
      7 S7         17.7430  -27.9115  -45.8667 S.3       10 UNK        -0.2776 
      8 C8         16.1888  -28.6323  -45.2508 C.3       10 UNK         0.0316 
      9 C9         16.4895  -29.8041  -44.3319 C.ar      10 UNK        -0.0863 
     10 C10        16.8176  -31.0535  -44.8663 C.ar      10 UNK        -0.1009 
     11 C11        17.1715  -32.1203  -44.0337 C.ar      10 UNK        -0.0712 
     12 C12        17.1780  -31.9209  -42.6461 C.ar      10 UNK        -0.0894 
     13 C13        16.8681  -30.6714  -42.1017 C.ar      10 UNK        -0.0745 
     14 C14        16.4936  -29.6246  -42.9466 C.ar      10 UNK        -0.0972 
     15 C15        16.9953  -30.4451  -40.6037 C.3       10 UNK         0.0209 
     16 S16        18.7291  -30.1154  -40.1429 S.3       10 UNK        -0.2568 
     17 C17        18.9190  -28.3376  -40.5206 C.3       10 UNK        -0.0983 
     18 CA         19.4011  -28.0320  -41.9685 C.3       3 UNK         0.0876 
     19 N          18.9628  -26.7013  -42.4136 N.am      3 UNK        -0.4424 
     20 C          19.4523  -25.5204  -42.0003 C.2       2 UNK         0.4918 
     21 O          20.3162  -25.4091  -41.1281 O.2       2 UNK        -0.4875 
     22 CA         18.9289  -24.2578  -42.7213 C.3       2 UNK         0.0481 
     23 CB         19.9645  -23.1141  -42.7112 C.3       2 UNK        -0.1831 
     24 N          18.4577  -24.4987  -44.0937 N.am      2 UNK        -0.4498 
     25 C          19.1369  -25.0519  -45.1103 C.2       1 UNK         0.5027 
     26 O          20.2990  -25.4532  -45.0208 O.2       1 UNK        -0.4969 
     27 C          20.9134  -28.2578  -42.2092 C.2       3 UNK         0.5005 
     28 O          21.5839  -28.8892  -41.3924 O.2       3 UNK        -0.5279 
     29 N          21.4410  -27.6656  -43.2976 N.am      4 UNK        -0.4463 
     30 CA         22.8511  -27.6475  -43.7103 C.3       4 UNK         0.0283 
     31 CB         23.2652  -29.0363  -44.2406 C.3       4 UNK        -0.1875 
     32 C          23.8125  -27.1293  -42.6191 C.2       4 UNK         0.4949 
     33 O          24.9662  -27.5549  -42.5774 O.2       4 UNK        -0.5039 
     34 N          23.3086  -26.2744  -41.7127 N.am      5 UNK        -0.4663 
     35 CA         23.9656  -25.8102  -40.4821 C.3       5 UNK         0.0242 
     36 CB         25.1284  -24.8521  -40.8171 C.3       5 UNK        -0.1982 
     37 C          24.3921  -26.9638  -39.5440 C.2       5 UNK         0.5017 
     38 O          25.3784  -26.8269  -38.8190 O.2       5 UNK        -0.5012 
     39 N          23.6525  -28.0840  -39.5965 N.am      6 UNK        -0.4439 
     40 CA         23.8833  -29.3588  -38.9093 C.3       6 UNK         0.0297 
     41 CB         23.8639  -29.1876  -37.3751 C.3       6 UNK        -0.2006 
     42 C          25.1208  -30.1354  -39.4065 C.2       6 UNK         0.4892 
     43 O          25.5330  -31.0851  -38.7382 O.2       6 UNK        -0.5089 
     44 N          25.6834  -29.7621  -40.5676 N.am      7 UNK        -0.4243 
     45 CA         26.8114  -30.4635  -41.1924 C.3       7 UNK         0.0196 
     46 CB         27.5343  -29.5129  -42.1601 C.3       7 UNK        -0.2007 
     47 C          26.3903  -31.7513  -41.9241 C.2       7 UNK         0.5020 
     48 O          27.2421  -32.6047  -42.1742 O.2       7 UNK        -0.5147 
     49 N          25.1014  -31.8751  -42.2585 N.am      8 UNK        -0.4734 
     50 CA         24.4920  -33.0255  -42.9190 C.3       8 UNK         0.0238 
     51 CB         24.6709  -32.9061  -44.4438 C.3       8 UNK        -0.1912 
     52 C          23.0073  -33.0701  -42.5402 C.2       8 UNK         0.5038 
     53 O          22.4520  -32.0384  -42.1582 O.2       8 UNK        -0.5046 
     54 N          22.3922  -34.2528  -42.6686 N.am      9 UNK        -0.4200 
     55 CA         20.9734  -34.5135  -42.3626 C.3       9 UNK         0.0839 
     56 C          20.5976  -34.3793  -40.8509 C.2       9 UNK         0.5513 
     57 N          21.5504  -34.4751  -39.9305 N.am      9 UNK        -0.7519 
     58 O          19.4326  -34.2209  -40.4963 O.2       9 UNK        -0.4960 
     59 C59        20.0191  -33.7425  -43.3233 C.3       10 UNK        -0.0876 
     60 S60        18.4575  -34.6391  -43.6326 S.3       10 UNK        -0.2414 
     61 C61        17.5478  -33.4543  -44.6850 C.3       10 UNK         0.0169 
     62 H62        15.8280  -21.7276  -47.7475 H         1 UNK         0.0903 
     63 H63        17.0466  -20.9277  -46.7517 H         1 UNK         0.0903 
     64 H64        17.5201  -21.7359  -48.2473 H         1 UNK         0.0903 
     65 H65        18.5236  -23.6695  -47.8486 H         1 UNK         0.3096 
     66 H66        19.0996  -25.6414  -47.1448 H         1 UNK         0.1121 
     67 H67        16.7012  -26.3119  -47.3148 H         1 UNK         0.0849 
     68 H68        16.4459  -25.8894  -45.6442 H         1 UNK         0.0849 
     69 H69        15.6065  -27.8792  -44.7175 H         1 UNK         0.0865 
     70 H70        15.5765  -28.9575  -46.0934 H         1 UNK         0.0865 
     71 H71        16.8230  -31.1865  -45.9400 H         1 UNK         0.1346 
     72 H72        17.4606  -32.7218  -41.9772 H         1 UNK         0.1412 
     73 H73        16.2601  -28.6554  -42.5268 H         1 UNK         0.1426 
     74 H74        16.6552  -31.3351  -40.0720 H         1 UNK         0.0716 
     75 H75        16.3523  -29.6284  -40.2724 H         1 UNK         0.0716 
     76 H76        17.9551  -27.8599  -40.3395 H         1 UNK         0.0695 
     77 H77        19.5991  -27.8967  -39.7894 H         1 UNK         0.0695 
     78 H78        18.9241  -28.7369  -42.6460 H         1 UNK         0.0983 
     79 H79        18.2730  -26.6896  -43.1509 H         1 UNK         0.3095 
     80 H80        18.0586  -23.9241  -42.1549 H         1 UNK         0.0454 
     81 H81        19.5773  -22.2240  -43.2067 H         1 UNK         0.0851 
     82 H82        20.2243  -22.8262  -41.6918 H         1 UNK         0.0851 
     83 H83        20.8889  -23.4020  -43.2133 H         1 UNK         0.0851 
     84 H84        17.5238  -24.1593  -44.3124 H         1 UNK         0.2976 
     85 H85        20.8277  -27.0991  -43.8758 H         1 UNK         0.3116 
     86 H86        22.9195  -26.9388  -44.5367 H         1 UNK         0.0646 
     87 H87        24.2721  -29.0171  -44.6594 H         1 UNK         0.0847 
     88 H88        22.5946  -29.3773  -45.0289 H         1 UNK         0.0847 
     89 H89        23.2566  -29.7846  -43.4485 H         1 UNK         0.0847 
     90 H90        22.3337  -26.0105  -41.8033 H         1 UNK         0.3040 
     91 H91        23.2140  -25.2411  -39.9323 H         1 UNK         0.1015 
     92 H92        24.8003  -24.0435  -41.4702 H         1 UNK         0.0786 
     93 H93        25.9506  -25.3707  -41.3115 H         1 UNK         0.0786 
     94 H94        25.5310  -24.3929  -39.9134 H         1 UNK         0.0786 
     95 H95        22.8832  -28.1177  -40.2648 H         1 UNK         0.3172 
     96 H96        23.0275  -29.9820  -39.1734 H         1 UNK         0.0595 
     97 H97        24.7408  -28.6497  -37.0141 H         1 UNK         0.0839 
     98 H98        23.8527  -30.1564  -36.8743 H         1 UNK         0.0839 
     99 H99        22.9769  -28.6462  -37.0468 H         1 UNK         0.0839 
    100 H100       25.3066  -28.9668  -41.0735 H         1 UNK         0.2998 
    101 H101       27.5191  -30.7465  -40.4100 H         1 UNK         0.0822 
    102 H102       28.4483  -29.9695  -42.5421 H         1 UNK         0.0787 
    103 H103       26.9133  -29.2654  -43.0216 H         1 UNK         0.0787 
    104 H104       27.8162  -28.5811  -41.6694 H         1 UNK         0.0787 
    105 H105       24.4400  -31.1639  -41.9704 H         1 UNK         0.3055 
    106 H106       24.9688  -33.9409  -42.5607 H         1 UNK         0.1106 
    107 H107       25.7252  -32.8839  -44.7199 H         1 UNK         0.0828 
    108 H108       24.2205  -33.7540  -44.9613 H         1 UNK         0.0828 
    109 H109       24.2046  -32.0002  -44.8332 H         1 UNK         0.0828 
    110 H110       22.9243  -35.0525  -42.9809 H         1 UNK         0.2931 
    111 H111       20.8565  -35.5767  -42.5761 H         1 UNK         0.0412 
    112 H112       21.3022  -34.3972  -38.9568 H         1 UNK         0.3472 
    113 H113       22.5109  -34.6179  -40.1973 H         1 UNK         0.3472 
    114 H114       20.4971  -33.5986  -44.2935 H         1 UNK         0.0970 
    115 H115       19.8179  -32.7400  -42.9418 H         1 UNK         0.0970 
    116 H116       18.1472  -33.2672  -45.5775 H         1 UNK         0.0612 
    117 H117       16.6313  -33.9379  -45.0249 H         1 UNK         0.0612 
@<TRIPOS>BOND
     1    1    2 1    
     2    1   62 1    
     3    1   63 1    
     4    1   64 1    
     5    2    3 2    
     6    2    4 am   BACKBONE|DICT|INTERRES
     7    4    5 1    
     8    4   65 1    
     9    5    6 1    
    10    5   25 1    
    11    5   66 1    
    12    6    7 1    
    13    6   67 1    
    14    6   68 1    
    15    7    8 1    
    16    8    9 1    
    17    8   69 1    
    18    8   70 1    
    19    9   10 ar   
    20    9   14 ar   
    21   10   11 ar   
    22   10   71 1    
    23   11   12 ar   
    24   11   61 1    
    25   12   13 ar   
    26   12   72 1    
    27   13   14 ar   
    28   13   15 1    
    29   14   73 1    
    30   15   16 1    
    31   15   74 1    
    32   15   75 1    
    33   16   17 1    
    34   17   18 1    
    35   17   76 1    
    36   17   77 1    
    37   18   19 1    
    38   18   27 1    
    39   18   78 1    
    40   19   20 am   BACKBONE|DICT|INTERRES
    41   19   79 1    
    42   20   21 2    
    43   20   22 1    
    44   22   23 1    
    45   22   24 1    
    46   22   80 1    
    47   23   81 1    
    48   23   82 1    
    49   23   83 1    
    50   24   25 am   BACKBONE|DICT|INTERRES
    51   24   84 1    
    52   25   26 2    
    53   27   28 2    
    54   27   29 am   BACKBONE|DICT|INTERRES
    55   29   30 1    
    56   29   85 1    
    57   30   31 1    
    58   30   32 1    
    59   30   86 1    
    60   31   87 1    
    61   31   88 1    
    62   31   89 1    
    63   32   33 2    
    64   32   34 am   BACKBONE|DICT|INTERRES
    65   34   35 1    
    66   34   90 1    
    67   35   36 1    
    68   35   37 1    
    69   35   91 1    
    70   36   92 1    
    71   36   93 1    
    72   36   94 1    
    73   37   38 2    
    74   37   39 am   BACKBONE|DICT|INTERRES
    75   39   40 1    
    76   39   95 1    
    77   40   41 1    
    78   40   42 1    
    79   40   96 1    
    80   41   97 1    
    81   41   98 1    
    82   41   99 1    
    83   42   43 2    
    84   42   44 am   BACKBONE|DICT|INTERRES
    85   44   45 1    
    86   44  100 1    
    87   45   46 1    
    88   45   47 1    
    89   45  101 1    
    90   46  102 1    
    91   46  103 1    
    92   46  104 1    
    93   47   48 2    
    94   47   49 am   BACKBONE|DICT|INTERRES
    95   49   50 1    
    96   49  105 1    
    97   50   51 1    
    98   50   52 1    
    99   50  106 1    
   100   51  107 1    
   101   51  108 1    
   102   51  109 1    
   103   52   53 2    
   104   52   54 am   BACKBONE|DICT|INTERRES
   105   54   55 1    
   106   54  110 1    
   107   55   56 1    
   108   55   59 1    
   109   55  111 1    
   110   56   57 am   BACKBONE|DICT|INTERRES
   111   56   58 2    
   112   57  112 1    
   113   57  113 1    
   114   59   60 1    
   115   59  114 1    
   116   59  115 1    
   117   60   61 1    
   118   61  116 1    
   119   61  117 1    
@<TRIPOS>SUBSTRUCTURE
     1 UNK         1 GROUP             0       ****    0 ROOT    
