@<TRIPOS>MOLECULE
3R8
117   119    1
SMALL
USER_CHARGES


@<TRIPOS>ATOM
      1 CA         15.5952  -25.2413  -43.8420 C.3       0 UNK        -0.2013 
      2 C          16.7632  -25.0967  -44.8056 C.2       0 UNK         0.4866 
      3 O          17.4149  -24.0523  -44.8299 O.2       0 UNK        -0.5176 
      4 N          17.0434  -26.1374  -45.5988 N.am      1 UNK        -0.4884 
      5 CA         18.0222  -26.1446  -46.6956 C.3       1 UNK         0.0853 
      6 C6         17.6293  -27.1158  -47.8594 C.3       10 UNK        -0.0849 
      7 S7         15.8387  -27.4955  -47.9851 S.3       10 UNK        -0.2776 
      8 C8         15.7604  -29.2563  -47.4970 C.3       10 UNK         0.0316 
      9 C9         16.4470  -29.5527  -46.1662 C.ar      10 UNK        -0.0863 
     10 C10        17.7429  -30.0797  -46.1593 C.ar      10 UNK        -0.1009 
     11 C11        18.3889  -30.3577  -44.9553 C.ar      10 UNK        -0.0712 
     12 C12        17.7155  -30.1541  -43.7526 C.ar      10 UNK        -0.0894 
     13 C13        16.4247  -29.6169  -43.7322 C.ar      10 UNK        -0.0745 
     14 C14        15.7933  -29.3219  -44.9486 C.ar      10 UNK        -0.0972 
     15 C15        15.6955  -29.3670  -42.4104 C.3       10 UNK         0.0209 
     16 S16        16.7862  -28.9462  -40.9968 S.3       10 UNK        -0.2568 
     17 C17        17.5711  -27.4074  -41.5774 C.3       10 UNK        -0.0983 
     18 CA         19.1078  -27.5333  -41.7500 C.3       3 UNK         0.0876 
     19 N          19.5865  -26.6435  -42.8075 N.am      3 UNK        -0.4424 
     20 C          20.8359  -26.5860  -43.2878 C.2       2 UNK         0.4918 
     21 O          21.7595  -27.2911  -42.8803 O.2       2 UNK        -0.4875 
     22 CA         21.0769  -25.5535  -44.4083 C.3       2 UNK         0.0481 
     23 CB         22.3952  -25.7917  -45.1757 C.3       2 UNK        -0.1831 
     24 N          19.9194  -25.4483  -45.3097 N.am      2 UNK        -0.4498 
     25 C          19.4383  -26.3993  -46.1265 C.2       1 UNK         0.5027 
     26 O          20.0288  -27.4529  -46.3671 O.2       1 UNK        -0.4969 
     27 C          19.8613  -27.2596  -40.4351 C.2       3 UNK         0.5005 
     28 O          19.8575  -26.1186  -39.9673 O.2       3 UNK        -0.5279 
     29 N          20.5479  -28.2833  -39.9093 N.am      4 UNK        -0.4463 
     30 CA         21.4391  -28.2868  -38.7407 C.3       4 UNK         0.0283 
     31 CB         20.7448  -27.7660  -37.4673 C.3       4 UNK        -0.1875 
     32 C          22.7845  -27.5795  -38.9822 C.2       4 UNK         0.4949 
     33 O          23.7928  -28.0290  -38.4402 O.2       4 UNK        -0.5039 
     34 N          22.8070  -26.5342  -39.8207 N.am      5 UNK        -0.4663 
     35 CA         24.0137  -25.8306  -40.2707 C.3       5 UNK         0.0242 
     36 CB         23.6103  -24.5981  -41.0956 C.3       5 UNK        -0.1982 
     37 C          24.9736  -26.7311  -41.0699 C.2       5 UNK         0.5017 
     38 O          26.1889  -26.5802  -40.9458 O.2       5 UNK        -0.5012 
     39 N          24.4118  -27.6771  -41.8360 N.am      6 UNK        -0.4439 
     40 CA         25.1348  -28.7346  -42.5465 C.3       6 UNK         0.0297 
     41 CB         24.1969  -29.3542  -43.5962 C.3       6 UNK        -0.2006 
     42 C          25.7050  -29.8335  -41.6262 C.2       6 UNK         0.4892 
     43 O          26.4840  -30.6570  -42.1081 O.2       6 UNK        -0.5089 
     44 N          25.2983  -29.8552  -40.3456 N.am      7 UNK        -0.4243 
     45 CA         25.6603  -30.7855  -39.2645 C.3       7 UNK         0.0196 
     46 CB         27.1736  -30.7592  -38.9739 C.3       7 UNK        -0.2007 
     47 C          25.1540  -32.2236  -39.4672 C.2       7 UNK         0.5020 
     48 O          24.5224  -32.7770  -38.5677 O.2       7 UNK        -0.5147 
     49 N          25.4192  -32.7980  -40.6443 N.am      8 UNK        -0.4734 
     50 CA         24.9962  -34.1397  -41.0545 C.3       8 UNK         0.0238 
     51 CB         25.9712  -34.6498  -42.1296 C.3       8 UNK        -0.1912 
     52 C          23.5453  -34.1947  -41.5704 C.2       8 UNK         0.5038 
     53 O          23.0559  -35.2888  -41.8547 O.2       8 UNK        -0.5046 
     54 N          22.8938  -33.0346  -41.7067 N.am      9 UNK        -0.4200 
     55 CA         21.5382  -32.8713  -42.2306 C.3       9 UNK         0.0839 
     56 C          20.8414  -31.7158  -41.4681 C.2       9 UNK         0.5513 
     57 N          19.6443  -31.9434  -40.9454 N.am      9 UNK        -0.7519 
     58 O          21.3701  -30.6118  -41.3602 O.2       9 UNK        -0.4960 
     59 C59        21.5808  -32.6701  -43.7688 C.3       10 UNK        -0.0876 
     60 S60        19.9319  -32.6107  -44.5452 S.3       10 UNK        -0.2414 
     61 C61        19.8282  -30.8380  -44.9347 C.3       10 UNK         0.0169 
     62 H62        15.1784  -26.2482  -43.8536 H         1 UNK         0.0903 
     63 H63        15.9114  -25.0127  -42.8246 H         1 UNK         0.0903 
     64 H64        14.8023  -24.5449  -44.1132 H         1 UNK         0.0903 
     65 H65        16.4972  -26.9857  -45.5309 H         1 UNK         0.3096 
     66 H66        18.0383  -25.1405  -47.1268 H         1 UNK         0.1121 
     67 H67        17.9359  -26.6699  -48.8068 H         1 UNK         0.0849 
     68 H68        18.1713  -28.0581  -47.8268 H         1 UNK         0.0849 
     69 H69        14.7137  -29.5588  -47.4407 H         1 UNK         0.0865 
     70 H70        16.2016  -29.8608  -48.2913 H         1 UNK         0.0865 
     71 H71        18.2610  -30.2560  -47.0919 H         1 UNK         0.1346 
     72 H72        18.2142  -30.4100  -42.8298 H         1 UNK         0.1412 
     73 H73        14.7885  -28.9208  -44.9504 H         1 UNK         0.1426 
     74 H74        15.1300  -30.2639  -42.1552 H         1 UNK         0.0716 
     75 H75        14.9651  -28.5654  -42.5304 H         1 UNK         0.0716 
     76 H76        17.1172  -27.1589  -42.5350 H         1 UNK         0.0695 
     77 H77        17.2999  -26.5891  -40.9071 H         1 UNK         0.0695 
     78 H78        19.3506  -28.5442  -42.0812 H         1 UNK         0.0983 
     79 H79        18.9117  -25.9953  -43.1811 H         1 UNK         0.3095 
     80 H80        21.1602  -24.5854  -43.9128 H         1 UNK         0.0454 
     81 H81        23.2533  -25.7134  -44.5071 H         1 UNK         0.0851 
     82 H82        22.5331  -25.0561  -45.9676 H         1 UNK         0.0851 
     83 H83        22.4328  -26.7835  -45.6264 H         1 UNK         0.0851 
     84 H84        19.3177  -24.6428  -45.1599 H         1 UNK         0.2976 
     85 H85        20.6020  -29.1407  -40.4561 H         1 UNK         0.3116 
     86 H86        21.6752  -29.3388  -38.5714 H         1 UNK         0.0646 
     87 H87        20.5323  -26.6981  -37.5210 H         1 UNK         0.0847 
     88 H88        19.8055  -28.2879  -37.2848 H         1 UNK         0.0847 
     89 H89        21.3778  -27.9217  -36.5928 H         1 UNK         0.0847 
     90 H90        21.9170  -26.2152  -40.1869 H         1 UNK         0.3040 
     91 H91        24.5492  -25.4905  -39.3816 H         1 UNK         0.1015 
     92 H92        24.4902  -24.0350  -41.4098 H         1 UNK         0.0786 
     93 H93        22.9826  -23.9206  -40.5164 H         1 UNK         0.0786 
     94 H94        23.0631  -24.8754  -41.9964 H         1 UNK         0.0786 
     95 H95        23.4001  -27.6676  -41.9485 H         1 UNK         0.3172 
     96 H96        25.9792  -28.2801  -43.0685 H         1 UNK         0.0595 
     97 H97        23.3059  -29.7807  -43.1346 H         1 UNK         0.0839 
     98 H98        24.6933  -30.1505  -44.1525 H         1 UNK         0.0839 
     99 H99        23.8692  -28.6099  -44.3221 H         1 UNK         0.0839 
    100 H100       24.6605  -29.1233  -40.0551 H         1 UNK         0.2998 
    101 H101       25.1563  -30.4048  -38.3745 H         1 UNK         0.0822 
    102 H102       27.4128  -31.3767  -38.1072 H         1 UNK         0.0787 
    103 H103       27.5153  -29.7474  -38.7553 H         1 UNK         0.0787 
    104 H104       27.7608  -31.1373  -39.8112 H         1 UNK         0.0787 
    105 H105       25.9302  -32.2389  -41.3257 H         1 UNK         0.3055 
    106 H106       25.0548  -34.8077  -40.1921 H         1 UNK         0.1106 
    107 H107       26.9955  -34.6725  -41.7571 H         1 UNK         0.0828 
    108 H108       25.7197  -35.6651  -42.4395 H         1 UNK         0.0828 
    109 H109       25.9522  -34.0219  -43.0214 H         1 UNK         0.0828 
    110 H110       23.3453  -32.1830  -41.4047 H         1 UNK         0.2931 
    111 H111       20.9771  -33.7860  -42.0267 H         1 UNK         0.0412 
    112 H112       19.1701  -31.2168  -40.4350 H         1 UNK         0.3472 
    113 H113       19.2053  -32.8456  -41.0444 H         1 UNK         0.3472 
    114 H114       22.1537  -31.7781  -44.0269 H         1 UNK         0.0970 
    115 H115       22.1171  -33.5021  -44.2276 H         1 UNK         0.0970 
    116 H116       20.3176  -30.6485  -45.8912 H         1 UNK         0.0612 
    117 H117       20.3739  -30.2542  -44.1912 H         1 UNK         0.0612 
@<TRIPOS>BOND
     1    1    2 1    
     2    1   62 1    
     3    1   63 1    
     4    1   64 1    
     5    2    3 2    
     6    2    4 am   BACKBONE|DICT|INTERRES
     7    4    5 1    
     8    4   65 1    
     9    5    6 1    
    10    5   25 1    
    11    5   66 1    
    12    6    7 1    
    13    6   67 1    
    14    6   68 1    
    15    7    8 1    
    16    8    9 1    
    17    8   69 1    
    18    8   70 1    
    19    9   10 ar   
    20    9   14 ar   
    21   10   11 ar   
    22   10   71 1    
    23   11   12 ar   
    24   11   61 1    
    25   12   13 ar   
    26   12   72 1    
    27   13   14 ar   
    28   13   15 1    
    29   14   73 1    
    30   15   16 1    
    31   15   74 1    
    32   15   75 1    
    33   16   17 1    
    34   17   18 1    
    35   17   76 1    
    36   17   77 1    
    37   18   19 1    
    38   18   27 1    
    39   18   78 1    
    40   19   20 am   BACKBONE|DICT|INTERRES
    41   19   79 1    
    42   20   21 2    
    43   20   22 1    
    44   22   23 1    
    45   22   24 1    
    46   22   80 1    
    47   23   81 1    
    48   23   82 1    
    49   23   83 1    
    50   24   25 am   BACKBONE|DICT|INTERRES
    51   24   84 1    
    52   25   26 2    
    53   27   28 2    
    54   27   29 am   BACKBONE|DICT|INTERRES
    55   29   30 1    
    56   29   85 1    
    57   30   31 1    
    58   30   32 1    
    59   30   86 1    
    60   31   87 1    
    61   31   88 1    
    62   31   89 1    
    63   32   33 2    
    64   32   34 am   BACKBONE|DICT|INTERRES
    65   34   35 1    
    66   34   90 1    
    67   35   36 1    
    68   35   37 1    
    69   35   91 1    
    70   36   92 1    
    71   36   93 1    
    72   36   94 1    
    73   37   38 2    
    74   37   39 am   BACKBONE|DICT|INTERRES
    75   39   40 1    
    76   39   95 1    
    77   40   41 1    
    78   40   42 1    
    79   40   96 1    
    80   41   97 1    
    81   41   98 1    
    82   41   99 1    
    83   42   43 2    
    84   42   44 am   BACKBONE|DICT|INTERRES
    85   44   45 1    
    86   44  100 1    
    87   45   46 1    
    88   45   47 1    
    89   45  101 1    
    90   46  102 1    
    91   46  103 1    
    92   46  104 1    
    93   47   48 2    
    94   47   49 am   BACKBONE|DICT|INTERRES
    95   49   50 1    
    96   49  105 1    
    97   50   51 1    
    98   50   52 1    
    99   50  106 1    
   100   51  107 1    
   101   51  108 1    
   102   51  109 1    
   103   52   53 2    
   104   52   54 am   BACKBONE|DICT|INTERRES
   105   54   55 1    
   106   54  110 1    
   107   55   56 1    
   108   55   59 1    
   109   55  111 1    
   110   56   57 am   BACKBONE|DICT|INTERRES
   111   56   58 2    
   112   57  112 1    
   113   57  113 1    
   114   59   60 1    
   115   59  114 1    
   116   59  115 1    
   117   60   61 1    
   118   61  116 1    
   119   61  117 1    
@<TRIPOS>SUBSTRUCTURE
     1 UNK         1 GROUP             0       ****    0 ROOT    
