@<TRIPOS>MOLECULE
3R8
117   119    1
SMALL
USER_CHARGES


@<TRIPOS>ATOM
      1 CA         18.3982  -27.2892  -40.7626 C.3       0 UNK        -0.2013 
      2 C          17.5570  -26.4249  -41.6867 C.2       0 UNK         0.4866 
      3 O          16.6037  -25.7938  -41.2296 O.2       0 UNK        -0.5176 
      4 N          17.9059  -26.3824  -42.9765 N.am      1 UNK        -0.4884 
      5 CA         17.2742  -25.5208  -43.9749 C.3       1 UNK         0.0853 
      6 C6         15.9870  -26.1340  -44.6025 C.3       10 UNK        -0.0849 
      7 S7         16.1927  -27.5276  -45.7689 S.3       10 UNK        -0.2776 
      8 C8         16.1953  -28.9973  -44.6886 C.3       10 UNK         0.0316 
      9 C9         17.5832  -29.6177  -44.5817 C.ar      10 UNK        -0.0863 
     10 C10        18.1630  -29.8516  -43.3299 C.ar      10 UNK        -0.1009 
     11 C11        19.4398  -30.4206  -43.2300 C.ar      10 UNK        -0.0712 
     12 C12        20.1284  -30.7531  -44.3990 C.ar      10 UNK        -0.0894 
     13 C13        19.5696  -30.5095  -45.6555 C.ar      10 UNK        -0.0745 
     14 C14        18.2879  -29.9638  -45.7402 C.ar      10 UNK        -0.0972 
     15 C15        20.3726  -30.7954  -46.9173 C.3       10 UNK         0.0209 
     16 S16        20.9919  -29.2690  -47.7065 S.3       10 UNK        -0.2568 
     17 C17        21.9831  -28.5079  -46.3702 C.3       10 UNK        -0.0983 
     18 CA         22.0556  -26.9593  -46.4338 C.3       3 UNK         0.0876 
     19 N          20.7372  -26.3500  -46.6522 N.am      3 UNK        -0.4424 
     20 C          20.5318  -25.1549  -47.2202 C.2       2 UNK         0.4918 
     21 O          21.4362  -24.4371  -47.6474 O.2       2 UNK        -0.4875 
     22 CA         19.0746  -24.6594  -47.3090 C.3       2 UNK         0.0481 
     23 CB         18.4739  -25.0248  -48.6755 C.3       2 UNK        -0.1831 
     24 N          18.1835  -25.1475  -46.2479 N.am      2 UNK        -0.4498 
     25 C          18.3641  -24.9961  -44.9291 C.2       1 UNK         0.5027 
     26 O          19.3629  -24.4613  -44.4442 O.2       1 UNK        -0.4969 
     27 C          22.7580  -26.4218  -45.1619 C.2       3 UNK         0.5005 
     28 O          23.9087  -26.7944  -44.9255 O.2       3 UNK        -0.5279 
     29 N          22.0558  -25.5996  -44.3617 N.am      4 UNK        -0.4463 
     30 CA         22.3555  -25.1717  -42.9884 C.3       4 UNK         0.0283 
     31 CB         23.7714  -24.5700  -42.8552 C.3       4 UNK        -0.1875 
     32 C          22.1017  -26.2960  -41.9663 C.2       4 UNK         0.4949 
     33 O          21.8407  -27.4418  -42.3381 O.2       4 UNK        -0.5039 
     34 N          22.1567  -25.9429  -40.6761 N.am      5 UNK        -0.4663 
     35 CA         21.9888  -26.8623  -39.5478 C.3       5 UNK         0.0242 
     36 CB         21.5231  -26.0635  -38.3162 C.3       5 UNK        -0.1982 
     37 C          23.2874  -27.6466  -39.2882 C.2       5 UNK         0.5017 
     38 O          24.0028  -27.3578  -38.3271 O.2       5 UNK        -0.5012 
     39 N          23.5831  -28.5971  -40.1779 N.am      6 UNK        -0.4439 
     40 CA         24.7668  -29.4502  -40.1566 C.3       6 UNK         0.0297 
     41 CB         25.9051  -28.7453  -40.9214 C.3       6 UNK        -0.2006 
     42 C          24.4253  -30.8157  -40.7702 C.2       6 UNK         0.4892 
     43 O          23.2869  -31.0316  -41.1958 O.2       6 UNK        -0.5089 
     44 N          25.4278  -31.7054  -40.8153 N.am      7 UNK        -0.4243 
     45 CA         25.3885  -33.0565  -41.3851 C.3       7 UNK         0.0196 
     46 CB         25.2252  -32.9988  -42.9225 C.3       7 UNK        -0.2007 
     47 C          24.3458  -33.9397  -40.6775 C.2       7 UNK         0.5020 
     48 O          24.6060  -34.4003  -39.5657 O.2       7 UNK        -0.5147 
     49 N          23.1931  -34.1572  -41.3230 N.am      8 UNK        -0.4734 
     50 CA         22.0636  -34.9187  -40.7849 C.3       8 UNK         0.0238 
     51 CB         21.0747  -35.2193  -41.9233 C.3       8 UNK        -0.1912 
     52 C          21.3408  -34.2107  -39.6248 C.2       8 UNK         0.5038 
     53 O          20.7332  -34.8929  -38.7983 O.2       8 UNK        -0.5046 
     54 N          21.4032  -32.8743  -39.5899 N.am      9 UNK        -0.4200 
     55 CA         20.7912  -32.0404  -38.5502 C.3       9 UNK         0.0839 
     56 C          21.7712  -31.8507  -37.3656 C.2       9 UNK         0.5513 
     57 N          21.2927  -31.9791  -36.1361 N.am      9 UNK        -0.7519 
     58 O          22.9467  -31.5440  -37.5509 O.2       9 UNK        -0.4960 
     59 C59        20.3379  -30.6708  -39.1122 C.3       10 UNK        -0.0876 
     60 S60        19.0890  -30.8245  -40.4369 S.3       10 UNK        -0.2414 
     61 C61        20.1577  -30.6232  -41.8988 C.3       10 UNK         0.0169 
     62 H62        17.7802  -28.0607  -40.3049 H         1 UNK         0.0903 
     63 H63        19.2158  -27.7745  -41.2944 H         1 UNK         0.0903 
     64 H64        18.8242  -26.6791  -39.9674 H         1 UNK         0.0903 
     65 H65        18.7083  -26.9049  -43.3008 H         1 UNK         0.3096 
     66 H66        16.9489  -24.6138  -43.4591 H         1 UNK         0.1121 
     67 H67        15.3027  -26.4379  -43.8089 H         1 UNK         0.0849 
     68 H68        15.4505  -25.3498  -45.1397 H         1 UNK         0.0849 
     69 H69        15.8018  -28.7421  -43.7037 H         1 UNK         0.0865 
     70 H70        15.5143  -29.7400  -45.1063 H         1 UNK         0.0865 
     71 H71        17.6212  -29.5772  -42.4366 H         1 UNK         0.1346 
     72 H72        21.1270  -31.1634  -44.3303 H         1 UNK         0.1412 
     73 H73        17.8522  -29.7763  -46.7123 H         1 UNK         0.1426 
     74 H74        19.7470  -31.3340  -47.6304 H         1 UNK         0.0716 
     75 H75        21.2181  -31.4493  -46.6976 H         1 UNK         0.0716 
     76 H76        22.9864  -28.9356  -46.4157 H         1 UNK         0.0695 
     77 H77        21.5796  -28.8038  -45.4034 H         1 UNK         0.0695 
     78 H78        22.6947  -26.6956  -47.2795 H         1 UNK         0.0983 
     79 H79        19.9394  -26.8955  -46.3607 H         1 UNK         0.3095 
     80 H80        19.0999  -23.5709  -47.2296 H         1 UNK         0.0454 
     81 H81        18.3847  -26.1048  -48.8007 H         1 UNK         0.0851 
     82 H82        19.0979  -24.6530  -49.4896 H         1 UNK         0.0851 
     83 H83        17.4836  -24.5880  -48.8051 H         1 UNK         0.0851 
     84 H84        17.3586  -25.6535  -46.5458 H         1 UNK         0.2976 
     85 H85        21.1201  -25.3469  -44.6639 H         1 UNK         0.3116 
     86 H86        21.6361  -24.3811  -42.7696 H         1 UNK         0.0646 
     87 H87        23.8870  -24.0410  -41.9090 H         1 UNK         0.0847 
     88 H88        23.9751  -23.8524  -43.6498 H         1 UNK         0.0847 
     89 H89        24.5461  -25.3367  -42.8875 H         1 UNK         0.0847 
     90 H90        22.3935  -24.9890  -40.4433 H         1 UNK         0.3040 
     91 H91        21.2087  -27.5881  -39.7856 H         1 UNK         0.1015 
     92 H92        20.5736  -25.5619  -38.5031 H         1 UNK         0.0786 
     93 H93        22.2500  -25.3040  -38.0252 H         1 UNK         0.0786 
     94 H94        21.3775  -26.7214  -37.4584 H         1 UNK         0.0786 
     95 H95        22.9473  -28.7668  -40.9514 H         1 UNK         0.3172 
     96 H96        25.0716  -29.6251  -39.1226 H         1 UNK         0.0595 
     97 H97        25.6470  -28.5928  -41.9704 H         1 UNK         0.0839 
     98 H98        26.8297  -29.3223  -40.8913 H         1 UNK         0.0839 
     99 H99        26.1269  -27.7692  -40.4895 H         1 UNK         0.0839 
    100 H100       26.3094  -31.4425  -40.3974 H         1 UNK         0.2998 
    101 H101       26.3596  -33.5095  -41.1785 H         1 UNK         0.0822 
    102 H102       24.3123  -32.4882  -43.2303 H         1 UNK         0.0787 
    103 H103       26.0617  -32.4712  -43.3810 H         1 UNK         0.0787 
    104 H104       25.2065  -34.0009  -43.3534 H         1 UNK         0.0787 
    105 H105       23.0624  -33.7136  -42.2208 H         1 UNK         0.3055 
    106 H106       22.4455  -35.8668  -40.3991 H         1 UNK         0.1106 
    107 H107       20.6644  -34.3051  -42.3548 H         1 UNK         0.0828 
    108 H108       21.5494  -35.7869  -42.7239 H         1 UNK         0.0828 
    109 H109       20.2340  -35.8136  -41.5624 H         1 UNK         0.0828 
    110 H110       21.9871  -32.3896  -40.2622 H         1 UNK         0.2931 
    111 H111       19.8973  -32.5467  -38.1788 H         1 UNK         0.0412 
    112 H112       21.9124  -31.8428  -35.3524 H         1 UNK         0.3472 
    113 H113       20.3273  -32.2224  -35.9744 H         1 UNK         0.3472 
    114 H114       21.1971  -30.1042  -39.4728 H         1 UNK         0.0970 
    115 H115       19.8950  -30.0673  -38.3175 H         1 UNK         0.0970 
    116 H116       20.7952  -31.5050  -41.9670 H         1 UNK         0.0612 
    117 H117       20.8176  -29.7706  -41.7447 H         1 UNK         0.0612 
@<TRIPOS>BOND
     1    1    2 1    
     2    1   62 1    
     3    1   63 1    
     4    1   64 1    
     5    2    3 2    
     6    2    4 am   BACKBONE|DICT|INTERRES
     7    4    5 1    
     8    4   65 1    
     9    5    6 1    
    10    5   25 1    
    11    5   66 1    
    12    6    7 1    
    13    6   67 1    
    14    6   68 1    
    15    7    8 1    
    16    8    9 1    
    17    8   69 1    
    18    8   70 1    
    19    9   10 ar   
    20    9   14 ar   
    21   10   11 ar   
    22   10   71 1    
    23   11   12 ar   
    24   11   61 1    
    25   12   13 ar   
    26   12   72 1    
    27   13   14 ar   
    28   13   15 1    
    29   14   73 1    
    30   15   16 1    
    31   15   74 1    
    32   15   75 1    
    33   16   17 1    
    34   17   18 1    
    35   17   76 1    
    36   17   77 1    
    37   18   19 1    
    38   18   27 1    
    39   18   78 1    
    40   19   20 am   BACKBONE|DICT|INTERRES
    41   19   79 1    
    42   20   21 2    
    43   20   22 1    
    44   22   23 1    
    45   22   24 1    
    46   22   80 1    
    47   23   81 1    
    48   23   82 1    
    49   23   83 1    
    50   24   25 am   BACKBONE|DICT|INTERRES
    51   24   84 1    
    52   25   26 2    
    53   27   28 2    
    54   27   29 am   BACKBONE|DICT|INTERRES
    55   29   30 1    
    56   29   85 1    
    57   30   31 1    
    58   30   32 1    
    59   30   86 1    
    60   31   87 1    
    61   31   88 1    
    62   31   89 1    
    63   32   33 2    
    64   32   34 am   BACKBONE|DICT|INTERRES
    65   34   35 1    
    66   34   90 1    
    67   35   36 1    
    68   35   37 1    
    69   35   91 1    
    70   36   92 1    
    71   36   93 1    
    72   36   94 1    
    73   37   38 2    
    74   37   39 am   BACKBONE|DICT|INTERRES
    75   39   40 1    
    76   39   95 1    
    77   40   41 1    
    78   40   42 1    
    79   40   96 1    
    80   41   97 1    
    81   41   98 1    
    82   41   99 1    
    83   42   43 2    
    84   42   44 am   BACKBONE|DICT|INTERRES
    85   44   45 1    
    86   44  100 1    
    87   45   46 1    
    88   45   47 1    
    89   45  101 1    
    90   46  102 1    
    91   46  103 1    
    92   46  104 1    
    93   47   48 2    
    94   47   49 am   BACKBONE|DICT|INTERRES
    95   49   50 1    
    96   49  105 1    
    97   50   51 1    
    98   50   52 1    
    99   50  106 1    
   100   51  107 1    
   101   51  108 1    
   102   51  109 1    
   103   52   53 2    
   104   52   54 am   BACKBONE|DICT|INTERRES
   105   54   55 1    
   106   54  110 1    
   107   55   56 1    
   108   55   59 1    
   109   55  111 1    
   110   56   57 am   BACKBONE|DICT|INTERRES
   111   56   58 2    
   112   57  112 1    
   113   57  113 1    
   114   59   60 1    
   115   59  114 1    
   116   59  115 1    
   117   60   61 1    
   118   61  116 1    
   119   61  117 1    
@<TRIPOS>SUBSTRUCTURE
     1 UNK         1 GROUP             0       ****    0 ROOT    
