@<TRIPOS>MOLECULE
3R8
117   119    1
SMALL
USER_CHARGES


@<TRIPOS>ATOM
      1 CA         15.7017  -23.2537  -48.1338 C.3       0 UNK        -0.2013 
      2 C          17.1646  -23.4317  -47.7555 C.2       0 UNK         0.4866 
      3 O          18.0388  -22.8402  -48.3900 O.2       0 UNK        -0.5176 
      4 N          17.4375  -24.2370  -46.7258 N.am      1 UNK        -0.4884 
      5 CA         18.7716  -24.5318  -46.2054 C.3       1 UNK         0.0853 
      6 C6         19.5396  -25.5673  -47.0757 C.3       10 UNK        -0.0849 
      7 S7         18.6845  -27.1735  -47.2816 S.3       10 UNK        -0.2776 
      8 C8         19.6761  -28.2249  -46.1731 C.3       10 UNK         0.0316 
      9 C9         18.8718  -29.3495  -45.5351 C.ar      10 UNK        -0.0863 
     10 C10        19.3707  -30.6559  -45.5372 C.ar      10 UNK        -0.1009 
     11 C11        18.7187  -31.6682  -44.8268 C.ar      10 UNK        -0.0712 
     12 C12        17.5309  -31.3768  -44.1512 C.ar      10 UNK        -0.0894 
     13 C13        17.0224  -30.0768  -44.1385 C.ar      10 UNK        -0.0745 
     14 C14        17.6881  -29.0702  -44.8441 C.ar      10 UNK        -0.0972 
     15 C15        15.7980  -29.7506  -43.2978 C.3       10 UNK         0.0209 
     16 S16        16.1775  -28.5661  -41.9645 S.3       10 UNK        -0.2568 
     17 C17        17.5920  -29.3420  -41.0944 C.3       10 UNK        -0.0983 
     18 CA         18.9847  -28.8256  -41.5600 C.3       3 UNK         0.0876 
     19 N          19.0056  -27.3722  -41.7573 N.am      3 UNK        -0.4424 
     20 C          19.9706  -26.6870  -42.3805 C.2       2 UNK         0.4918 
     21 O          21.0004  -27.1890  -42.8367 O.2       2 UNK        -0.4875 
     22 CA         19.7291  -25.1769  -42.5280 C.3       2 UNK         0.0481 
     23 CB         20.8018  -24.3602  -41.7905 C.3       2 UNK        -0.1831 
     24 N          19.6946  -24.7958  -43.9412 N.am      2 UNK        -0.4498 
     25 C          18.6248  -24.9578  -44.7320 C.2       1 UNK         0.5027 
     26 O          17.5459  -25.4101  -44.3356 O.2       1 UNK        -0.4969 
     27 C          20.0948  -29.2797  -40.5913 C.2       3 UNK         0.5005 
     28 O          20.7851  -30.2662  -40.8534 O.2       3 UNK        -0.5279 
     29 N          20.2642  -28.5213  -39.5017 N.am      4 UNK        -0.4463 
     30 CA         21.3408  -28.6805  -38.5289 C.3       4 UNK         0.0283 
     31 CB         20.8186  -28.2739  -37.1411 C.3       4 UNK        -0.1875 
     32 C          22.5404  -27.8068  -38.9203 C.2       4 UNK         0.4949 
     33 O          22.3694  -26.7971  -39.6078 O.2       4 UNK        -0.5039 
     34 N          23.7251  -28.1976  -38.4343 N.am      5 UNK        -0.4663 
     35 CA         25.0297  -27.5279  -38.5430 C.3       5 UNK         0.0242 
     36 CB         25.0108  -26.1448  -37.8615 C.3       5 UNK        -0.1982 
     37 C          25.6039  -27.4370  -39.9681 C.2       5 UNK         0.5017 
     38 O          26.7372  -27.8700  -40.1777 O.2       5 UNK        -0.5012 
     39 N          24.8376  -26.8701  -40.9088 N.am      6 UNK        -0.4439 
     40 CA         25.2276  -26.7064  -42.3102 C.3       6 UNK         0.0297 
     41 CB         24.3510  -25.6445  -42.9922 C.3       6 UNK        -0.2006 
     42 C          25.1768  -28.0456  -43.0565 C.2       6 UNK         0.4892 
     43 O          26.2096  -28.4996  -43.5507 O.2       6 UNK        -0.5089 
     44 N          23.9860  -28.6596  -43.1049 N.am      7 UNK        -0.4243 
     45 CA         23.7974  -30.0078  -43.6386 C.3       7 UNK         0.0196 
     46 CB         22.3474  -30.1933  -44.1051 C.3       7 UNK        -0.2007 
     47 C          24.1991  -31.0638  -42.6010 C.2       7 UNK         0.5020 
     48 O          25.0540  -31.9001  -42.8923 O.2       7 UNK        -0.5147 
     49 N          23.5824  -30.9897  -41.4102 N.am      8 UNK        -0.4734 
     50 CA         23.7781  -31.8792  -40.2562 C.3       8 UNK         0.0238 
     51 CB         25.1902  -31.7003  -39.6589 C.3       8 UNK        -0.1912 
     52 C          23.4316  -33.3494  -40.5696 C.2       8 UNK         0.5038 
     53 O          24.1105  -34.2632  -40.0975 O.2       8 UNK        -0.5046 
     54 N          22.3793  -33.5396  -41.3740 N.am      9 UNK        -0.4200 
     55 CA         21.8630  -34.8401  -41.8277 C.3       9 UNK         0.0839 
     56 C          21.1043  -35.6661  -40.7470 C.2       9 UNK         0.5513 
     57 N          20.7796  -35.1096  -39.5858 N.am      9 UNK        -0.7519 
     58 O          20.8178  -36.8408  -40.9641 O.2       9 UNK        -0.4960 
     59 C59        21.0389  -34.6891  -43.1358 C.3       10 UNK        -0.0876 
     60 S60        19.7022  -33.4555  -42.9839 S.3       10 UNK        -0.2414 
     61 C61        19.3329  -33.0568  -44.7228 C.3       10 UNK         0.0169 
     62 H62        15.0412  -23.8359  -47.4914 H         1 UNK         0.0903 
     63 H63        15.4173  -22.2050  -48.0518 H         1 UNK         0.0903 
     64 H64        15.5395  -23.5718  -49.1633 H         1 UNK         0.0903 
     65 H65        16.6961  -24.6840  -46.1989 H         1 UNK         0.3096 
     66 H66        19.3393  -23.5982  -46.2041 H         1 UNK         0.1121 
     67 H67        19.6921  -25.1518  -48.0729 H         1 UNK         0.0849 
     68 H68        20.5452  -25.7257  -46.6822 H         1 UNK         0.0849 
     69 H69        20.0965  -27.6251  -45.3659 H         1 UNK         0.0865 
     70 H70        20.5239  -28.6182  -46.7362 H         1 UNK         0.0865 
     71 H71        20.2970  -30.8751  -46.0496 H         1 UNK         0.1346 
     72 H72        17.0363  -32.1552  -43.5862 H         1 UNK         0.1412 
     73 H73        17.3141  -28.0558  -44.8056 H         1 UNK         0.1426 
     74 H74        15.3735  -30.6536  -42.8563 H         1 UNK         0.0716 
     75 H75        15.0246  -29.3271  -43.9399 H         1 UNK         0.0716 
     76 H76        17.5351  -30.4265  -41.2060 H         1 UNK         0.0695 
     77 H77        17.4467  -29.1437  -40.0307 H         1 UNK         0.0695 
     78 H78        19.2125  -29.2838  -42.5238 H         1 UNK         0.0983 
     79 H79        18.1692  -26.8837  -41.4715 H         1 UNK         0.3095 
     80 H80        18.7677  -24.9276  -42.0730 H         1 UNK         0.0454 
     81 H81        20.8848  -24.6738  -40.7488 H         1 UNK         0.0851 
     82 H82        20.5575  -23.2980  -41.7897 H         1 UNK         0.0851 
     83 H83        21.7853  -24.4732  -42.2417 H         1 UNK         0.0851 
     84 H84        20.5579  -24.4510  -44.3359 H         1 UNK         0.2976 
     85 H85        19.7059  -27.6845  -39.4159 H         1 UNK         0.3116 
     86 H86        21.6548  -29.7257  -38.4918 H         1 UNK         0.0646 
     87 H87        19.9621  -28.8807  -36.8465 H         1 UNK         0.0847 
     88 H88        20.5130  -27.2270  -37.1137 H         1 UNK         0.0847 
     89 H89        21.5856  -28.4079  -36.3772 H         1 UNK         0.0847 
     90 H90        23.7407  -29.0499  -37.8910 H         1 UNK         0.3040 
     91 H91        25.7234  -28.1519  -37.9762 H         1 UNK         0.1015 
     92 H92        26.0037  -25.6929  -37.8717 H         1 UNK         0.0786 
     93 H93        24.7019  -26.2219  -36.8190 H         1 UNK         0.0786 
     94 H94        24.3349  -25.4489  -38.3594 H         1 UNK         0.0786 
     95 H95        23.8950  -26.5979  -40.6351 H         1 UNK         0.3172 
     96 H96        26.2584  -26.3457  -42.3348 H         1 UNK         0.0595 
     97 H97        23.3091  -25.9544  -43.0500 H         1 UNK         0.0839 
     98 H98        24.6892  -25.4622  -44.0130 H         1 UNK         0.0839 
     99 H99        24.3930  -24.6930  -42.4621 H         1 UNK         0.0839 
    100 H100       23.1764  -28.2029  -42.7041 H         1 UNK         0.2998 
    101 H101       24.4407  -30.1391  -44.5119 H         1 UNK         0.0822 
    102 H102       22.1760  -31.2141  -44.4492 H         1 UNK         0.0787 
    103 H103       22.1220  -29.5245  -44.9348 H         1 UNK         0.0787 
    104 H104       21.6263  -29.9894  -43.3149 H         1 UNK         0.0787 
    105 H105       22.8135  -30.3342  -41.3147 H         1 UNK         0.3055 
    106 H106       23.0585  -31.5618  -39.5003 H         1 UNK         0.1106 
    107 H107       25.4030  -30.6529  -39.4463 H         1 UNK         0.0828 
    108 H108       25.2911  -32.2488  -38.7216 H         1 UNK         0.0828 
    109 H109       25.9643  -32.0671  -40.3336 H         1 UNK         0.0828 
    110 H110       21.8589  -32.7314  -41.6869 H         1 UNK         0.2931 
    111 H111       22.7350  -35.4459  -42.0820 H         1 UNK         0.0412 
    112 H112       21.0012  -34.1443  -39.4040 H         1 UNK         0.3472 
    113 H113       20.2937  -35.6573  -38.8930 H         1 UNK         0.3472 
    114 H114       20.6153  -35.6442  -43.4525 H         1 UNK         0.0970 
    115 H115       21.7080  -34.3804  -43.9404 H         1 UNK         0.0970 
    116 H116       20.2465  -33.1144  -45.3161 H         1 UNK         0.0612 
    117 H117       18.6441  -33.7987  -45.1286 H         1 UNK         0.0612 
@<TRIPOS>BOND
     1    1    2 1    
     2    1   62 1    
     3    1   63 1    
     4    1   64 1    
     5    2    3 2    
     6    2    4 am   BACKBONE|DICT|INTERRES
     7    4    5 1    
     8    4   65 1    
     9    5    6 1    
    10    5   25 1    
    11    5   66 1    
    12    6    7 1    
    13    6   67 1    
    14    6   68 1    
    15    7    8 1    
    16    8    9 1    
    17    8   69 1    
    18    8   70 1    
    19    9   10 ar   
    20    9   14 ar   
    21   10   11 ar   
    22   10   71 1    
    23   11   12 ar   
    24   11   61 1    
    25   12   13 ar   
    26   12   72 1    
    27   13   14 ar   
    28   13   15 1    
    29   14   73 1    
    30   15   16 1    
    31   15   74 1    
    32   15   75 1    
    33   16   17 1    
    34   17   18 1    
    35   17   76 1    
    36   17   77 1    
    37   18   19 1    
    38   18   27 1    
    39   18   78 1    
    40   19   20 am   BACKBONE|DICT|INTERRES
    41   19   79 1    
    42   20   21 2    
    43   20   22 1    
    44   22   23 1    
    45   22   24 1    
    46   22   80 1    
    47   23   81 1    
    48   23   82 1    
    49   23   83 1    
    50   24   25 am   BACKBONE|DICT|INTERRES
    51   24   84 1    
    52   25   26 2    
    53   27   28 2    
    54   27   29 am   BACKBONE|DICT|INTERRES
    55   29   30 1    
    56   29   85 1    
    57   30   31 1    
    58   30   32 1    
    59   30   86 1    
    60   31   87 1    
    61   31   88 1    
    62   31   89 1    
    63   32   33 2    
    64   32   34 am   BACKBONE|DICT|INTERRES
    65   34   35 1    
    66   34   90 1    
    67   35   36 1    
    68   35   37 1    
    69   35   91 1    
    70   36   92 1    
    71   36   93 1    
    72   36   94 1    
    73   37   38 2    
    74   37   39 am   BACKBONE|DICT|INTERRES
    75   39   40 1    
    76   39   95 1    
    77   40   41 1    
    78   40   42 1    
    79   40   96 1    
    80   41   97 1    
    81   41   98 1    
    82   41   99 1    
    83   42   43 2    
    84   42   44 am   BACKBONE|DICT|INTERRES
    85   44   45 1    
    86   44  100 1    
    87   45   46 1    
    88   45   47 1    
    89   45  101 1    
    90   46  102 1    
    91   46  103 1    
    92   46  104 1    
    93   47   48 2    
    94   47   49 am   BACKBONE|DICT|INTERRES
    95   49   50 1    
    96   49  105 1    
    97   50   51 1    
    98   50   52 1    
    99   50  106 1    
   100   51  107 1    
   101   51  108 1    
   102   51  109 1    
   103   52   53 2    
   104   52   54 am   BACKBONE|DICT|INTERRES
   105   54   55 1    
   106   54  110 1    
   107   55   56 1    
   108   55   59 1    
   109   55  111 1    
   110   56   57 am   BACKBONE|DICT|INTERRES
   111   56   58 2    
   112   57  112 1    
   113   57  113 1    
   114   59   60 1    
   115   59  114 1    
   116   59  115 1    
   117   60   61 1    
   118   61  116 1    
   119   61  117 1    
@<TRIPOS>SUBSTRUCTURE
     1 UNK         1 GROUP             0       ****    0 ROOT    
