@<TRIPOS>MOLECULE
3R8
117   119    1
SMALL
USER_CHARGES


@<TRIPOS>ATOM
      1 CA         18.3252  -25.2334  -47.8208 C.3       0 UNK        -0.2013 
      2 C          16.8297  -24.9424  -47.7579 C.2       0 UNK         0.4866 
      3 O          16.3247  -24.1968  -48.5942 O.2       0 UNK        -0.5176 
      4 N          16.0790  -25.4866  -46.7897 N.am      1 UNK        -0.4884 
      5 CA         16.5205  -26.3891  -45.7136 C.3       1 UNK         0.0853 
      6 C6         15.4397  -27.4496  -45.3823 C.3       10 UNK        -0.0849 
      7 S7         15.3521  -28.6934  -46.7157 S.3       10 UNK        -0.2776 
      8 C8         16.0263  -30.1910  -45.9124 C.3       10 UNK         0.0316 
      9 C9         17.3542  -29.9681  -45.1911 C.ar      10 UNK        -0.0863 
     10 C10        17.4719  -30.3002  -43.8364 C.ar      10 UNK        -0.1009 
     11 C11        18.6841  -30.1235  -43.1641 C.ar      10 UNK        -0.0712 
     12 C12        19.7852  -29.6140  -43.8541 C.ar      10 UNK        -0.0894 
     13 C13        19.6726  -29.2352  -45.1943 C.ar      10 UNK        -0.0745 
     14 C14        18.4620  -29.4403  -45.8658 C.ar      10 UNK        -0.0972 
     15 C15        20.8578  -28.6021  -45.9108 C.3       10 UNK         0.0209 
     16 S16        20.8763  -26.7842  -45.7385 S.3       10 UNK        -0.2568 
     17 C17        21.4612  -26.5579  -44.0233 C.3       10 UNK        -0.0983 
     18 CA         21.2115  -25.1362  -43.4558 C.3       3 UNK         0.0876 
     19 N          19.7949  -24.7813  -43.5080 N.am      3 UNK        -0.4424 
     20 C          19.2897  -23.5445  -43.5184 C.2       2 UNK         0.4918 
     21 O          19.9858  -22.5279  -43.5448 O.2       2 UNK        -0.4875 
     22 CA         17.7460  -23.4347  -43.5242 C.3       2 UNK         0.0481 
     23 CB         17.2576  -21.9899  -43.7371 C.3       2 UNK        -0.1831 
     24 N          17.1250  -24.2996  -44.5356 N.am      2 UNK        -0.4498 
     25 C          17.0038  -25.6335  -44.4585 C.2       1 UNK         0.5027 
     26 O          17.3244  -26.2725  -43.4557 O.2       1 UNK        -0.4969 
     27 C          21.6971  -25.0828  -41.9951 C.2       3 UNK         0.5005 
     28 O          20.9029  -25.2942  -41.0728 O.2       3 UNK        -0.5279 
     29 N          23.0105  -24.9089  -41.7990 N.am      4 UNK        -0.4463 
     30 CA         23.6850  -25.0519  -40.5031 C.3       4 UNK         0.0283 
     31 CB         24.9990  -24.2490  -40.5281 C.3       4 UNK        -0.1875 
     32 C          23.9059  -26.5414  -40.1654 C.2       4 UNK         0.4949 
     33 O          25.0485  -26.9885  -40.0573 O.2       4 UNK        -0.5039 
     34 N          22.8025  -27.2999  -40.0899 N.am      5 UNK        -0.4663 
     35 CA         22.6622  -28.7535  -39.8900 C.3       5 UNK         0.0242 
     36 CB         23.2148  -29.1865  -38.5188 C.3       5 UNK        -0.1982 
     37 C          23.2405  -29.6414  -41.0105 C.2       5 UNK         0.5017 
     38 O          22.7034  -30.7239  -41.2460 O.2       5 UNK        -0.5012 
     39 N          24.3217  -29.1882  -41.6616 N.am      6 UNK        -0.4439 
     40 CA         25.0621  -29.8396  -42.7508 C.3       6 UNK         0.0297 
     41 CB         24.2107  -29.8667  -44.0370 C.3       6 UNK        -0.2006 
     42 C          25.6076  -31.2308  -42.3695 C.2       6 UNK         0.4892 
     43 O          25.6827  -32.1160  -43.2236 O.2       6 UNK        -0.5089 
     44 N          25.9360  -31.4054  -41.0794 N.am      7 UNK        -0.4243 
     45 CA         26.3391  -32.6324  -40.3762 C.3       7 UNK         0.0196 
     46 CB         27.6452  -33.2152  -40.9501 C.3       7 UNK        -0.2007 
     47 C          25.2392  -33.7087  -40.2950 C.2       7 UNK         0.5020 
     48 O          25.0475  -34.2889  -39.2265 O.2       7 UNK        -0.5147 
     49 N          24.5329  -33.9496  -41.4062 N.am      8 UNK        -0.4734 
     50 CA         23.4881  -34.9621  -41.5779 C.3       8 UNK         0.0238 
     51 CB         22.9816  -34.9207  -43.0288 C.3       8 UNK        -0.1912 
     52 C          22.3113  -34.8358  -40.5972 C.2       8 UNK         0.5038 
     53 O          21.8103  -35.8621  -40.1350 O.2       8 UNK        -0.5046 
     54 N          21.9040  -33.5977  -40.2903 N.am      9 UNK        -0.4200 
     55 CA         20.8367  -33.2981  -39.3218 C.3       9 UNK         0.0839 
     56 C          21.3383  -33.1943  -37.8511 C.2       9 UNK         0.5513 
     57 N          22.6151  -33.4123  -37.5551 N.am      9 UNK        -0.7519 
     58 O          20.5476  -32.9186  -36.9526 O.2       9 UNK        -0.4960 
     59 C59        20.0075  -32.0533  -39.7326 C.3       10 UNK        -0.0876 
     60 S60        19.3515  -32.1659  -41.4327 S.3       10 UNK        -0.2414 
     61 C61        18.8092  -30.4516  -41.6856 C.3       10 UNK         0.0169 
     62 H62        18.8202  -24.9364  -46.8971 H         1 UNK         0.0903 
     63 H63        18.5096  -26.2927  -47.9983 H         1 UNK         0.0903 
     64 H64        18.7893  -24.6774  -48.6351 H         1 UNK         0.0903 
     65 H65        15.0909  -25.2742  -46.7836 H         1 UNK         0.3096 
     66 H66        17.4061  -26.9306  -46.0452 H         1 UNK         0.1121 
     67 H67        14.4606  -26.9833  -45.2611 H         1 UNK         0.0849 
     68 H68        15.6420  -27.9599  -44.4389 H         1 UNK         0.0849 
     69 H69        15.2741  -30.5757  -45.2217 H         1 UNK         0.0865 
     70 H70        16.1635  -30.9638  -46.6698 H         1 UNK         0.0865 
     71 H71        16.6216  -30.6998  -43.3006 H         1 UNK         0.1346 
     72 H72        20.7263  -29.4951  -43.3350 H         1 UNK         0.1412 
     73 H73        18.3734  -29.1693  -46.9091 H         1 UNK         0.1426 
     74 H74        20.8199  -28.8503  -46.9724 H         1 UNK         0.0716 
     75 H75        21.7944  -29.0168  -45.5381 H         1 UNK         0.0716 
     76 H76        22.5254  -26.7995  -44.0015 H         1 UNK         0.0695 
     77 H77        20.9686  -27.2880  -43.3841 H         1 UNK         0.0695 
     78 H78        21.7795  -24.4114  -44.0435 H         1 UNK         0.0983 
     79 H79        19.1392  -25.5516  -43.4298 H         1 UNK         0.3095 
     80 H80        17.4026  -23.7557  -42.5387 H         1 UNK         0.0454 
     81 H81        17.5784  -21.5929  -44.7010 H         1 UNK         0.0851 
     82 H82        17.6485  -21.3263  -42.9646 H         1 UNK         0.0851 
     83 H83        16.1703  -21.9269  -43.6922 H         1 UNK         0.0851 
     84 H84        16.8453  -23.8543  -45.3981 H         1 UNK         0.2976 
     85 H85        23.6101  -24.7790  -42.6022 H         1 UNK         0.3116 
     86 H86        23.0538  -24.6289  -39.7185 H         1 UNK         0.0646 
     87 H87        25.6851  -24.6148  -41.2931 H         1 UNK         0.0847 
     88 H88        25.5151  -24.3163  -39.5694 H         1 UNK         0.0847 
     89 H89        24.8146  -23.1919  -40.7202 H         1 UNK         0.0847 
     90 H90        21.9286  -26.8051  -40.2506 H         1 UNK         0.3040 
     91 H91        21.5875  -28.9398  -39.8844 H         1 UNK         0.1015 
     92 H92        24.2905  -29.0265  -38.4421 H         1 UNK         0.0786 
     93 H93        23.0321  -30.2477  -38.3415 H         1 UNK         0.0786 
     94 H94        22.7360  -28.6371  -37.7082 H         1 UNK         0.0786 
     95 H95        24.7191  -28.3206  -41.3068 H         1 UNK         0.3172 
     96 H96        25.9355  -29.2155  -42.9442 H         1 UNK         0.0595 
     97 H97        23.3280  -30.4975  -43.9246 H         1 UNK         0.0839 
     98 H98        24.7827  -30.2547  -44.8806 H         1 UNK         0.0839 
     99 H99        23.8792  -28.8654  -44.3088 H         1 UNK         0.0839 
    100 H100       25.8078  -30.6024  -40.4796 H         1 UNK         0.2998 
    101 H101       26.5448  -32.3248  -39.3494 H         1 UNK         0.0822 
    102 H102       28.4444  -32.4740  -40.9480 H         1 UNK         0.0787 
    103 H103       27.9866  -34.0619  -40.3530 H         1 UNK         0.0787 
    104 H104       27.5214  -33.5721  -41.9729 H         1 UNK         0.0787 
    105 H105       24.7850  -33.4044  -42.2277 H         1 UNK         0.3055 
    106 H106       23.9504  -35.9358  -41.4022 H         1 UNK         0.1106 
    107 H107       22.5435  -33.9519  -43.2741 H         1 UNK         0.0828 
    108 H108       22.2149  -35.6782  -43.1978 H         1 UNK         0.0828 
    109 H109       23.7877  -35.1130  -43.7370 H         1 UNK         0.0828 
    110 H110       22.3580  -32.7979  -40.7170 H         1 UNK         0.2931 
    111 H111       20.1383  -34.1371  -39.3221 H         1 UNK         0.0412 
    112 H112       23.2815  -33.6830  -38.2680 H         1 UNK         0.3472 
    113 H113       22.9125  -33.3452  -36.5947 H         1 UNK         0.3472 
    114 H114       20.6185  -31.1553  -39.6429 H         1 UNK         0.0970 
    115 H115       19.1622  -31.9157  -39.0556 H         1 UNK         0.0970 
    116 H116       17.8565  -30.2957  -41.1773 H         1 UNK         0.0612 
    117 H117       19.5208  -29.7661  -41.2232 H         1 UNK         0.0612 
@<TRIPOS>BOND
     1    1    2 1    
     2    1   62 1    
     3    1   63 1    
     4    1   64 1    
     5    2    3 2    
     6    2    4 am   BACKBONE|DICT|INTERRES
     7    4    5 1    
     8    4   65 1    
     9    5    6 1    
    10    5   25 1    
    11    5   66 1    
    12    6    7 1    
    13    6   67 1    
    14    6   68 1    
    15    7    8 1    
    16    8    9 1    
    17    8   69 1    
    18    8   70 1    
    19    9   10 ar   
    20    9   14 ar   
    21   10   11 ar   
    22   10   71 1    
    23   11   12 ar   
    24   11   61 1    
    25   12   13 ar   
    26   12   72 1    
    27   13   14 ar   
    28   13   15 1    
    29   14   73 1    
    30   15   16 1    
    31   15   74 1    
    32   15   75 1    
    33   16   17 1    
    34   17   18 1    
    35   17   76 1    
    36   17   77 1    
    37   18   19 1    
    38   18   27 1    
    39   18   78 1    
    40   19   20 am   BACKBONE|DICT|INTERRES
    41   19   79 1    
    42   20   21 2    
    43   20   22 1    
    44   22   23 1    
    45   22   24 1    
    46   22   80 1    
    47   23   81 1    
    48   23   82 1    
    49   23   83 1    
    50   24   25 am   BACKBONE|DICT|INTERRES
    51   24   84 1    
    52   25   26 2    
    53   27   28 2    
    54   27   29 am   BACKBONE|DICT|INTERRES
    55   29   30 1    
    56   29   85 1    
    57   30   31 1    
    58   30   32 1    
    59   30   86 1    
    60   31   87 1    
    61   31   88 1    
    62   31   89 1    
    63   32   33 2    
    64   32   34 am   BACKBONE|DICT|INTERRES
    65   34   35 1    
    66   34   90 1    
    67   35   36 1    
    68   35   37 1    
    69   35   91 1    
    70   36   92 1    
    71   36   93 1    
    72   36   94 1    
    73   37   38 2    
    74   37   39 am   BACKBONE|DICT|INTERRES
    75   39   40 1    
    76   39   95 1    
    77   40   41 1    
    78   40   42 1    
    79   40   96 1    
    80   41   97 1    
    81   41   98 1    
    82   41   99 1    
    83   42   43 2    
    84   42   44 am   BACKBONE|DICT|INTERRES
    85   44   45 1    
    86   44  100 1    
    87   45   46 1    
    88   45   47 1    
    89   45  101 1    
    90   46  102 1    
    91   46  103 1    
    92   46  104 1    
    93   47   48 2    
    94   47   49 am   BACKBONE|DICT|INTERRES
    95   49   50 1    
    96   49  105 1    
    97   50   51 1    
    98   50   52 1    
    99   50  106 1    
   100   51  107 1    
   101   51  108 1    
   102   51  109 1    
   103   52   53 2    
   104   52   54 am   BACKBONE|DICT|INTERRES
   105   54   55 1    
   106   54  110 1    
   107   55   56 1    
   108   55   59 1    
   109   55  111 1    
   110   56   57 am   BACKBONE|DICT|INTERRES
   111   56   58 2    
   112   57  112 1    
   113   57  113 1    
   114   59   60 1    
   115   59  114 1    
   116   59  115 1    
   117   60   61 1    
   118   61  116 1    
   119   61  117 1    
@<TRIPOS>SUBSTRUCTURE
     1 UNK         1 GROUP             0       ****    0 ROOT    
