@<TRIPOS>MOLECULE
3R8
117   119    1
SMALL
USER_CHARGES


@<TRIPOS>ATOM
      1 CA         13.7385  -30.2299  -40.0141 C.3       0 UNK        -0.2013 
      2 C          14.5475  -29.0990  -40.6315 C.2       0 UNK         0.4866 
      3 O          14.9591  -28.1811  -39.9210 O.2       0 UNK        -0.5176 
      4 N          14.7727  -29.1556  -41.9497 N.am      1 UNK        -0.4884 
      5 CA         15.6236  -28.2270  -42.7019 C.3       1 UNK         0.0853 
      6 C6         15.3120  -28.2541  -44.2239 C.3       10 UNK        -0.0849 
      7 S7         15.1884  -29.9258  -44.9541 S.3       10 UNK        -0.2776 
      8 C8         16.2651  -29.7832  -46.4242 C.3       10 UNK         0.0316 
      9 C9         17.7621  -29.7388  -46.1202 C.ar      10 UNK        -0.0863 
     10 C10        18.3111  -30.4408  -45.0424 C.ar      10 UNK        -0.1009 
     11 C11        19.6857  -30.4243  -44.7950 C.ar      10 UNK        -0.0712 
     12 C12        20.5234  -29.7100  -45.6548 C.ar      10 UNK        -0.0894 
     13 C13        19.9929  -28.9929  -46.7306 C.ar      10 UNK        -0.0745 
     14 C14        18.6134  -29.0130  -46.9586 C.ar      10 UNK        -0.0972 
     15 C15        20.9051  -28.1964  -47.6505 C.3       10 UNK         0.0209 
     16 S16        21.2004  -26.5152  -47.0156 S.3       10 UNK        -0.2568 
     17 C17        22.5975  -26.7781  -45.8732 C.3       10 UNK        -0.0983 
     18 CA         22.3627  -26.2092  -44.4491 C.3       3 UNK         0.0876 
     19 N          21.3718  -26.9532  -43.6727 N.am      3 UNK        -0.4424 
     20 C          20.0979  -26.5982  -43.4845 C.2       2 UNK         0.4918 
     21 O          19.5323  -25.6709  -44.0688 O.2       2 UNK        -0.4875 
     22 CA         19.3542  -27.3536  -42.3795 C.3       2 UNK         0.0481 
     23 CB         19.5564  -26.6350  -41.0316 C.3       2 UNK        -0.1831 
     24 N          17.9276  -27.4112  -42.6765 N.am      2 UNK        -0.4498 
     25 C          17.1209  -28.4395  -42.3853 C.2       1 UNK         0.5027 
     26 O          17.5080  -29.4978  -41.8742 O.2       1 UNK        -0.4969 
     27 C          23.6725  -26.2758  -43.6489 C.2       3 UNK         0.5005 
     28 O          23.9246  -27.2816  -42.9803 O.2       3 UNK        -0.5279 
     29 N          24.5112  -25.2390  -43.7536 N.am      4 UNK        -0.4463 
     30 CA         25.8796  -25.2640  -43.2323 C.3       4 UNK         0.0283 
     31 CB         26.3775  -23.8228  -43.0390 C.3       4 UNK        -0.1875 
     32 C          26.7963  -26.0251  -44.2137 C.2       4 UNK         0.4949 
     33 O          26.5841  -25.9154  -45.4213 O.2       4 UNK        -0.5039 
     34 N          27.8139  -26.7691  -43.7587 N.am      5 UNK        -0.4663 
     35 CA         28.2035  -27.0420  -42.3688 C.3       5 UNK         0.0242 
     36 CB         29.7359  -27.1783  -42.3225 C.3       5 UNK        -0.1982 
     37 C          27.5316  -28.3054  -41.7884 C.2       5 UNK         0.5017 
     38 O          27.8590  -28.6899  -40.6654 O.2       5 UNK        -0.5012 
     39 N          26.6351  -28.9427  -42.5572 N.am      6 UNK        -0.4439 
     40 CA         25.9414  -30.1910  -42.2155 C.3       6 UNK         0.0297 
     41 CB         25.1298  -30.6653  -43.4333 C.3       6 UNK        -0.2006 
     42 C          25.0299  -30.1030  -40.9765 C.2       6 UNK         0.4892 
     43 O          24.8673  -31.1107  -40.2868 O.2       6 UNK        -0.5089 
     44 N          24.4644  -28.9129  -40.7312 N.am      7 UNK        -0.4243 
     45 CA         23.4623  -28.5878  -39.7124 C.3       7 UNK         0.0196 
     46 CB         23.9514  -28.9210  -38.2839 C.3       7 UNK        -0.2007 
     47 C          22.0926  -29.1905  -40.0741 C.2       7 UNK         0.5020 
     48 O          21.8159  -29.3901  -41.2579 O.2       7 UNK        -0.5147 
     49 N          21.2289  -29.3957  -39.0717 N.am      8 UNK        -0.4734 
     50 CA         19.8628  -29.8904  -39.2516 C.3       8 UNK         0.0238 
     51 CB         19.0427  -29.6021  -37.9841 C.3       8 UNK        -0.1912 
     52 C          19.8243  -31.3853  -39.5996 C.2       8 UNK         0.5038 
     53 O          20.5415  -32.1751  -38.9808 O.2       8 UNK        -0.5046 
     54 N          18.9566  -31.7350  -40.5538 N.am      9 UNK        -0.4200 
     55 CA         18.7131  -33.1083  -41.0208 C.3       9 UNK         0.0839 
     56 C          17.5508  -33.8140  -40.2619 C.2       9 UNK         0.5513 
     57 N          16.8479  -33.1556  -39.3470 N.am      9 UNK        -0.7519 
     58 O          17.2904  -34.9910  -40.4973 O.2       9 UNK        -0.4960 
     59 C59        18.4911  -33.1385  -42.5582 C.3       10 UNK        -0.0876 
     60 S60        20.0322  -32.9115  -43.5210 S.3       10 UNK        -0.2414 
     61 C61        20.2667  -31.1043  -43.5626 C.3       10 UNK         0.0169 
     62 H62        13.4280  -30.9627  -40.7588 H         1 UNK         0.0903 
     63 H63        14.3318  -30.7454  -39.2593 H         1 UNK         0.0903 
     64 H64        12.8441  -29.8338  -39.5340 H         1 UNK         0.0903 
     65 H65        14.4374  -29.9450  -42.4844 H         1 UNK         0.3096 
     66 H66        15.3839  -27.2220  -42.3458 H         1 UNK         0.1121 
     67 H67        14.3515  -27.7651  -44.3937 H         1 UNK         0.0849 
     68 H68        16.0363  -27.6570  -44.7813 H         1 UNK         0.0849 
     69 H69        16.0778  -30.6421  -47.0698 H         1 UNK         0.0865 
     70 H70        15.9638  -28.9024  -46.9936 H         1 UNK         0.0865 
     71 H71        17.6591  -30.9879  -44.3836 H         1 UNK         0.1346 
     72 H72        21.5876  -29.6909  -45.4693 H         1 UNK         0.1412 
     73 H73        18.2038  -28.4645  -47.7961 H         1 UNK         0.1426 
     74 H74        20.4522  -28.1171  -48.6400 H         1 UNK         0.0716 
     75 H75        21.8526  -28.7171  -47.7973 H         1 UNK         0.0716 
     76 H76        23.4614  -26.2948  -46.3346 H         1 UNK         0.0695 
     77 H77        22.8511  -27.8373  -45.8220 H         1 UNK         0.0695 
     78 H78        22.0611  -25.1616  -44.5190 H         1 UNK         0.0983 
     79 H79        21.7733  -27.6886  -43.0999 H         1 UNK         0.3095 
     80 H80        19.7547  -28.3644  -42.3279 H         1 UNK         0.0454 
     81 H81        19.2428  -25.5915  -41.0841 H         1 UNK         0.0851 
     82 H82        20.6059  -26.6424  -40.7366 H         1 UNK         0.0851 
     83 H83        18.9870  -27.1036  -40.2301 H         1 UNK         0.0851 
     84 H84        17.5652  -26.5989  -43.1587 H         1 UNK         0.2976 
     85 H85        24.2732  -24.4689  -44.3628 H         1 UNK         0.3116 
     86 H86        25.8588  -25.7569  -42.2599 H         1 UNK         0.0646 
     87 H87        26.4082  -23.2745  -43.9816 H         1 UNK         0.0847 
     88 H88        27.3862  -23.8105  -42.6241 H         1 UNK         0.0847 
     89 H89        25.7383  -23.2705  -42.3500 H         1 UNK         0.0847 
     90 H90        28.3850  -27.2309  -44.4527 H         1 UNK         0.3040 
     91 H91        27.9398  -26.2025  -41.7241 H         1 UNK         0.1015 
     92 H92        30.2258  -26.2827  -42.7055 H         1 UNK         0.0786 
     93 H93        30.0849  -28.0289  -42.9095 H         1 UNK         0.0786 
     94 H94        30.0888  -27.3219  -41.3001 H         1 UNK         0.0786 
     95 H95        26.4148  -28.5374  -43.4553 H         1 UNK         0.3172 
     96 H96        26.7067  -30.9403  -42.0034 H         1 UNK         0.0595 
     97 H97        24.3595  -29.9436  -43.7096 H         1 UNK         0.0839 
     98 H98        24.6256  -31.6095  -43.2217 H         1 UNK         0.0839 
     99 H99        25.7684  -30.8281  -44.3015 H         1 UNK         0.0839 
    100 H100       24.5542  -28.2169  -41.4681 H         1 UNK         0.2998 
    101 H101       23.3347  -27.5059  -39.7707 H         1 UNK         0.0822 
    102 H102       23.9396  -29.9936  -38.0870 H         1 UNK         0.0787 
    103 H103       24.9697  -28.5657  -38.1246 H         1 UNK         0.0787 
    104 H104       23.3275  -28.4413  -37.5293 H         1 UNK         0.0787 
    105 H105       21.5381  -29.2427  -38.1231 H         1 UNK         0.3055 
    106 H106       19.4146  -29.3409  -40.0789 H         1 UNK         0.1106 
    107 H107       18.0058  -29.9165  -38.1107 H         1 UNK         0.0828 
    108 H108       19.4407  -30.1295  -37.1162 H         1 UNK         0.0828 
    109 H109       19.0281  -28.5366  -37.7541 H         1 UNK         0.0828 
    110 H110       18.3978  -31.0117  -40.9995 H         1 UNK         0.2931 
    111 H111       19.5979  -33.7113  -40.8079 H         1 UNK         0.0412 
    112 H112       17.0591  -32.1947  -39.1346 H         1 UNK         0.3472 
    113 H113       16.1053  -33.6317  -38.8593 H         1 UNK         0.3472 
    114 H114       18.0904  -34.1054  -42.8689 H         1 UNK         0.0970 
    115 H115       17.7351  -32.4094  -42.8413 H         1 UNK         0.0970 
    116 H116       19.8343  -30.6431  -42.6803 H         1 UNK         0.0612 
    117 H117       21.3388  -30.9124  -43.4983 H         1 UNK         0.0612 
@<TRIPOS>BOND
     1    1    2 1    
     2    1   62 1    
     3    1   63 1    
     4    1   64 1    
     5    2    3 2    
     6    2    4 am   BACKBONE|DICT|INTERRES
     7    4    5 1    
     8    4   65 1    
     9    5    6 1    
    10    5   25 1    
    11    5   66 1    
    12    6    7 1    
    13    6   67 1    
    14    6   68 1    
    15    7    8 1    
    16    8    9 1    
    17    8   69 1    
    18    8   70 1    
    19    9   10 ar   
    20    9   14 ar   
    21   10   11 ar   
    22   10   71 1    
    23   11   12 ar   
    24   11   61 1    
    25   12   13 ar   
    26   12   72 1    
    27   13   14 ar   
    28   13   15 1    
    29   14   73 1    
    30   15   16 1    
    31   15   74 1    
    32   15   75 1    
    33   16   17 1    
    34   17   18 1    
    35   17   76 1    
    36   17   77 1    
    37   18   19 1    
    38   18   27 1    
    39   18   78 1    
    40   19   20 am   BACKBONE|DICT|INTERRES
    41   19   79 1    
    42   20   21 2    
    43   20   22 1    
    44   22   23 1    
    45   22   24 1    
    46   22   80 1    
    47   23   81 1    
    48   23   82 1    
    49   23   83 1    
    50   24   25 am   BACKBONE|DICT|INTERRES
    51   24   84 1    
    52   25   26 2    
    53   27   28 2    
    54   27   29 am   BACKBONE|DICT|INTERRES
    55   29   30 1    
    56   29   85 1    
    57   30   31 1    
    58   30   32 1    
    59   30   86 1    
    60   31   87 1    
    61   31   88 1    
    62   31   89 1    
    63   32   33 2    
    64   32   34 am   BACKBONE|DICT|INTERRES
    65   34   35 1    
    66   34   90 1    
    67   35   36 1    
    68   35   37 1    
    69   35   91 1    
    70   36   92 1    
    71   36   93 1    
    72   36   94 1    
    73   37   38 2    
    74   37   39 am   BACKBONE|DICT|INTERRES
    75   39   40 1    
    76   39   95 1    
    77   40   41 1    
    78   40   42 1    
    79   40   96 1    
    80   41   97 1    
    81   41   98 1    
    82   41   99 1    
    83   42   43 2    
    84   42   44 am   BACKBONE|DICT|INTERRES
    85   44   45 1    
    86   44  100 1    
    87   45   46 1    
    88   45   47 1    
    89   45  101 1    
    90   46  102 1    
    91   46  103 1    
    92   46  104 1    
    93   47   48 2    
    94   47   49 am   BACKBONE|DICT|INTERRES
    95   49   50 1    
    96   49  105 1    
    97   50   51 1    
    98   50   52 1    
    99   50  106 1    
   100   51  107 1    
   101   51  108 1    
   102   51  109 1    
   103   52   53 2    
   104   52   54 am   BACKBONE|DICT|INTERRES
   105   54   55 1    
   106   54  110 1    
   107   55   56 1    
   108   55   59 1    
   109   55  111 1    
   110   56   57 am   BACKBONE|DICT|INTERRES
   111   56   58 2    
   112   57  112 1    
   113   57  113 1    
   114   59   60 1    
   115   59  114 1    
   116   59  115 1    
   117   60   61 1    
   118   61  116 1    
   119   61  117 1    
@<TRIPOS>SUBSTRUCTURE
     1 UNK         1 GROUP             0       ****    0 ROOT    
