@<TRIPOS>MOLECULE
3R8
117   119    1
SMALL
USER_CHARGES


@<TRIPOS>ATOM
      1 CA         21.9986  -23.2913  -40.3056 C.3       0 UNK        -0.2013 
      2 C          20.6105  -23.8496  -40.5802 C.2       0 UNK         0.4866 
      3 O          19.7675  -23.8696  -39.6837 O.2       0 UNK        -0.5176 
      4 N          20.3707  -24.3104  -41.8108 N.am      1 UNK        -0.4884 
      5 CA         19.0908  -24.8228  -42.2981 C.3       1 UNK         0.0853 
      6 C6         18.7605  -26.2499  -41.7677 C.3       10 UNK        -0.0849 
      7 S7         19.6594  -27.6180  -42.5835 S.3       10 UNK        -0.2776 
      8 C8         18.2768  -28.7325  -42.9874 C.3       10 UNK         0.0316 
      9 C9         18.7500  -29.8736  -43.8689 C.ar      10 UNK        -0.0863 
     10 C10        19.3656  -30.9903  -43.3013 C.ar      10 UNK        -0.1009 
     11 C11        19.8442  -32.0292  -44.1049 C.ar      10 UNK        -0.0712 
     12 C12        19.7138  -31.9311  -45.4936 C.ar      10 UNK        -0.0894 
     13 C13        19.1050  -30.8151  -46.0784 C.ar      10 UNK        -0.0745 
     14 C14        18.5993  -29.8027  -45.2552 C.ar      10 UNK        -0.0972 
     15 C15        19.0345  -30.7083  -47.6007 C.3       10 UNK         0.0209 
     16 S16        19.3520  -29.0322  -48.2632 S.3       10 UNK        -0.2568 
     17 C17        20.9100  -28.5471  -47.4342 C.3       10 UNK        -0.0983 
     18 CA         20.9812  -27.0283  -47.1125 C.3       3 UNK         0.0876 
     19 N          19.7939  -26.5363  -46.3945 N.am      3 UNK        -0.4424 
     20 C          18.9757  -25.5771  -46.8505 C.2       2 UNK         0.4918 
     21 O          19.1153  -25.0140  -47.9368 O.2       2 UNK        -0.4875 
     22 CA         17.8057  -25.1450  -45.9421 C.3       2 UNK         0.0481 
     23 CB         16.5437  -25.9517  -46.2883 C.3       2 UNK        -0.1831 
     24 N          18.0473  -25.2242  -44.4944 N.am      2 UNK        -0.4498 
     25 C          19.0766  -24.6734  -43.8339 C.2       1 UNK         0.5027 
     26 O          20.0110  -24.0903  -44.3931 O.2       1 UNK        -0.4969 
     27 C          22.2797  -26.6743  -46.3515 C.2       3 UNK         0.5005 
     28 O          23.3297  -27.2382  -46.6631 O.2       3 UNK        -0.5279 
     29 N          22.1959  -25.7690  -45.3598 N.am      4 UNK        -0.4463 
     30 CA         23.2741  -25.3026  -44.4728 C.3       4 UNK         0.0283 
     31 CB         24.3553  -24.5435  -45.2706 C.3       4 UNK        -0.1875 
     32 C          23.8760  -26.3934  -43.5596 C.2       4 UNK         0.4949 
     33 O          24.9683  -26.2012  -43.0248 O.2       4 UNK        -0.5039 
     34 N          23.1542  -27.5066  -43.3723 N.am      5 UNK        -0.4663 
     35 CA         23.5811  -28.6550  -42.5664 C.3       5 UNK         0.0242 
     36 CB         22.8991  -29.9192  -43.1135 C.3       5 UNK        -0.1982 
     37 C          23.2848  -28.4963  -41.0650 C.2       5 UNK         0.5017 
     38 O          23.7567  -29.3152  -40.2772 O.2       5 UNK        -0.5012 
     39 N          22.4810  -27.4863  -40.6953 N.am      6 UNK        -0.4439 
     40 CA         22.0230  -27.1682  -39.3342 C.3       6 UNK         0.0297 
     41 CB         23.1972  -26.6493  -38.4780 C.3       6 UNK        -0.2006 
     42 C          21.2580  -28.3257  -38.6593 C.2       6 UNK         0.4892 
     43 O          21.3668  -28.5089  -37.4462 O.2       6 UNK        -0.5089 
     44 N          20.5233  -29.0982  -39.4755 N.am      7 UNK        -0.4243 
     45 CA         19.7784  -30.3189  -39.1371 C.3       7 UNK         0.0196 
     46 CB         18.6586  -30.0219  -38.1178 C.3       7 UNK        -0.2007 
     47 C          20.6540  -31.5157  -38.7043 C.2       7 UNK         0.5020 
     48 O          20.1026  -32.5459  -38.3144 O.2       7 UNK        -0.5147 
     49 N          21.9870  -31.4057  -38.8009 N.am      8 UNK        -0.4734 
     50 CA         22.9431  -32.4506  -38.4251 C.3       8 UNK         0.0238 
     51 CB         24.2347  -31.7873  -37.9106 C.3       8 UNK        -0.1912 
     52 C          23.1933  -33.4150  -39.5982 C.2       8 UNK         0.5038 
     53 O          24.3271  -33.5410  -40.0658 O.2       8 UNK        -0.5046 
     54 N          22.1184  -34.0552  -40.0718 N.am      9 UNK        -0.4200 
     55 CA         22.1311  -35.0338  -41.1676 C.3       9 UNK         0.0839 
     56 C          22.9048  -36.3312  -40.8061 C.2       9 UNK         0.5513 
     57 N          23.5550  -36.9563  -41.7780 N.am      9 UNK        -0.7519 
     58 O          22.8825  -36.7977  -39.6686 O.2       9 UNK        -0.4960 
     59 C59        20.6981  -35.3753  -41.6575 C.3       10 UNK        -0.0876 
     60 S60        19.6685  -33.9212  -42.0556 S.3       10 UNK        -0.2414 
     61 C61        20.5582  -33.2261  -43.4870 C.3       10 UNK         0.0169 
     62 H62        22.3934  -23.7051  -39.3783 H         1 UNK         0.0903 
     63 H63        22.6994  -23.5289  -41.1058 H         1 UNK         0.0903 
     64 H64        21.9525  -22.2077  -40.2011 H         1 UNK         0.0903 
     65 H65        21.0472  -24.1747  -42.5511 H         1 UNK         0.3096 
     66 H66        18.3161  -24.1438  -41.9335 H         1 UNK         0.1121 
     67 H67        17.6870  -26.4225  -41.8557 H         1 UNK         0.0849 
     68 H68        18.9585  -26.3089  -40.6966 H         1 UNK         0.0849 
     69 H69        17.4842  -28.1771  -43.4910 H         1 UNK         0.0865 
     70 H70        17.8427  -29.1250  -42.0663 H         1 UNK         0.0865 
     71 H71        19.4940  -31.0438  -42.2316 H         1 UNK         0.1346 
     72 H72        20.1068  -32.7175  -46.1236 H         1 UNK         0.1412 
     73 H73        18.1233  -28.9406  -45.6994 H         1 UNK         0.1426 
     74 H74        18.0466  -31.0333  -47.9289 H         1 UNK         0.0716 
     75 H75        19.7523  -31.3897  -48.0600 H         1 UNK         0.0716 
     76 H76        21.7314  -28.8337  -48.0934 H         1 UNK         0.0695 
     77 H77        21.0492  -29.1266  -46.5213 H         1 UNK         0.0695 
     78 H78        21.0702  -26.5108  -48.0698 H         1 UNK         0.0983 
     79 H79        19.6054  -26.9528  -45.4944 H         1 UNK         0.3095 
     80 H80        17.6032  -24.0959  -46.1668 H         1 UNK         0.0454 
     81 H81        16.6540  -27.0063  -46.0348 H         1 UNK         0.0851 
     82 H82        16.3249  -25.8967  -47.3558 H         1 UNK         0.0851 
     83 H83        15.6688  -25.5687  -45.7630 H         1 UNK         0.0851 
     84 H84        17.3306  -25.6874  -43.9555 H         1 UNK         0.2976 
     85 H85        21.2992  -25.3151  -45.2081 H         1 UNK         0.3116 
     86 H86        22.8100  -24.5817  -43.7992 H         1 UNK         0.0646 
     87 H87        23.9160  -23.7631  -45.8918 H         1 UNK         0.0847 
     88 H88        24.9234  -25.2102  -45.9199 H         1 UNK         0.0847 
     89 H89        25.0685  -24.0586  -44.6030 H         1 UNK         0.0847 
     90 H90        22.2647  -27.5874  -43.8431 H         1 UNK         0.3040 
     91 H91        24.6615  -28.7805  -42.6682 H         1 UNK         0.1015 
     92 H92        23.2051  -30.8066  -42.5572 H         1 UNK         0.0786 
     93 H93        23.1544  -30.0888  -44.1598 H         1 UNK         0.0786 
     94 H94        21.8153  -29.8471  -43.0422 H         1 UNK         0.0786 
     95 H95        22.1126  -26.9041  -41.4340 H         1 UNK         0.3172 
     96 H96        21.3009  -26.3591  -39.4324 H         1 UNK         0.0595 
     97 H97        23.9208  -27.4375  -38.2666 H         1 UNK         0.0839 
     98 H98        22.8442  -26.2668  -37.5196 H         1 UNK         0.0839 
     99 H99        23.7253  -25.8366  -38.9763 H         1 UNK         0.0839 
    100 H100       20.5111  -28.8423  -40.4542 H         1 UNK         0.2998 
    101 H101       19.2891  -30.6335  -40.0577 H         1 UNK         0.0822 
    102 H102       18.0337  -29.1911  -38.4456 H         1 UNK         0.0787 
    103 H103       18.0052  -30.8861  -37.9920 H         1 UNK         0.0787 
    104 H104       19.0582  -29.7752  -37.1340 H         1 UNK         0.0787 
    105 H105       22.3864  -30.5541  -39.1802 H         1 UNK         0.3055 
    106 H106       22.5318  -33.0428  -37.6042 H         1 UNK         0.1106 
    107 H107       24.7320  -31.2082  -38.6891 H         1 UNK         0.0828 
    108 H108       24.9448  -32.5372  -37.5601 H         1 UNK         0.0828 
    109 H109       24.0312  -31.1178  -37.0747 H         1 UNK         0.0828 
    110 H110       21.2235  -33.8790  -39.6323 H         1 UNK         0.2931 
    111 H111       22.6653  -34.5644  -41.9954 H         1 UNK         0.0412 
    112 H112       24.0497  -37.8094  -41.5670 H         1 UNK         0.3472 
    113 H113       23.5730  -36.5876  -42.7165 H         1 UNK         0.3472 
    114 H114       20.7405  -36.0155  -42.5409 H         1 UNK         0.0970 
    115 H115       20.1680  -35.9515  -40.8966 H         1 UNK         0.0970 
    116 H116       20.6990  -34.0142  -44.2282 H         1 UNK         0.0612 
    117 H117       21.5512  -32.9032  -43.1736 H         1 UNK         0.0612 
@<TRIPOS>BOND
     1    1    2 1    
     2    1   62 1    
     3    1   63 1    
     4    1   64 1    
     5    2    3 2    
     6    2    4 am   BACKBONE|DICT|INTERRES
     7    4    5 1    
     8    4   65 1    
     9    5    6 1    
    10    5   25 1    
    11    5   66 1    
    12    6    7 1    
    13    6   67 1    
    14    6   68 1    
    15    7    8 1    
    16    8    9 1    
    17    8   69 1    
    18    8   70 1    
    19    9   10 ar   
    20    9   14 ar   
    21   10   11 ar   
    22   10   71 1    
    23   11   12 ar   
    24   11   61 1    
    25   12   13 ar   
    26   12   72 1    
    27   13   14 ar   
    28   13   15 1    
    29   14   73 1    
    30   15   16 1    
    31   15   74 1    
    32   15   75 1    
    33   16   17 1    
    34   17   18 1    
    35   17   76 1    
    36   17   77 1    
    37   18   19 1    
    38   18   27 1    
    39   18   78 1    
    40   19   20 am   BACKBONE|DICT|INTERRES
    41   19   79 1    
    42   20   21 2    
    43   20   22 1    
    44   22   23 1    
    45   22   24 1    
    46   22   80 1    
    47   23   81 1    
    48   23   82 1    
    49   23   83 1    
    50   24   25 am   BACKBONE|DICT|INTERRES
    51   24   84 1    
    52   25   26 2    
    53   27   28 2    
    54   27   29 am   BACKBONE|DICT|INTERRES
    55   29   30 1    
    56   29   85 1    
    57   30   31 1    
    58   30   32 1    
    59   30   86 1    
    60   31   87 1    
    61   31   88 1    
    62   31   89 1    
    63   32   33 2    
    64   32   34 am   BACKBONE|DICT|INTERRES
    65   34   35 1    
    66   34   90 1    
    67   35   36 1    
    68   35   37 1    
    69   35   91 1    
    70   36   92 1    
    71   36   93 1    
    72   36   94 1    
    73   37   38 2    
    74   37   39 am   BACKBONE|DICT|INTERRES
    75   39   40 1    
    76   39   95 1    
    77   40   41 1    
    78   40   42 1    
    79   40   96 1    
    80   41   97 1    
    81   41   98 1    
    82   41   99 1    
    83   42   43 2    
    84   42   44 am   BACKBONE|DICT|INTERRES
    85   44   45 1    
    86   44  100 1    
    87   45   46 1    
    88   45   47 1    
    89   45  101 1    
    90   46  102 1    
    91   46  103 1    
    92   46  104 1    
    93   47   48 2    
    94   47   49 am   BACKBONE|DICT|INTERRES
    95   49   50 1    
    96   49  105 1    
    97   50   51 1    
    98   50   52 1    
    99   50  106 1    
   100   51  107 1    
   101   51  108 1    
   102   51  109 1    
   103   52   53 2    
   104   52   54 am   BACKBONE|DICT|INTERRES
   105   54   55 1    
   106   54  110 1    
   107   55   56 1    
   108   55   59 1    
   109   55  111 1    
   110   56   57 am   BACKBONE|DICT|INTERRES
   111   56   58 2    
   112   57  112 1    
   113   57  113 1    
   114   59   60 1    
   115   59  114 1    
   116   59  115 1    
   117   60   61 1    
   118   61  116 1    
   119   61  117 1    
@<TRIPOS>SUBSTRUCTURE
     1 UNK         1 GROUP             0       ****    0 ROOT    
