@<TRIPOS>MOLECULE
3R8
117   119    1
SMALL
USER_CHARGES


@<TRIPOS>ATOM
      1 CA         16.6763  -23.4840  -47.5204 C.3       0 UNK        -0.2013 
      2 C          17.3406  -24.5231  -46.6302 C.2       0 UNK         0.4866 
      3 O          17.0826  -24.5479  -45.4264 O.2       0 UNK        -0.5176 
      4 N          18.2055  -25.3669  -47.2113 N.am      1 UNK        -0.4884 
      5 CA         18.9480  -26.4887  -46.6064 C.3       1 UNK         0.0853 
      6 C6         18.0500  -27.5574  -45.9327 C.3       10 UNK        -0.0849 
      7 S7         16.8440  -28.3298  -47.0591 S.3       10 UNK        -0.2776 
      8 C8         15.5911  -28.9169  -45.8656 C.3       10 UNK         0.0316 
      9 C9         16.2047  -29.6611  -44.6824 C.ar      10 UNK        -0.0863 
     10 C10        17.0027  -30.7892  -44.8944 C.ar      10 UNK        -0.1009 
     11 C11        17.6097  -31.4436  -43.8193 C.ar      10 UNK        -0.0712 
     12 C12        17.3769  -30.9899  -42.5172 C.ar      10 UNK        -0.0894 
     13 C13        16.5626  -29.8757  -42.2870 C.ar      10 UNK        -0.0745 
     14 C14        15.9881  -29.2104  -43.3755 C.ar      10 UNK        -0.0972 
     15 C15        16.2646  -29.4146  -40.8640 C.3       10 UNK         0.0209 
     16 S16        17.7622  -29.0250  -39.9002 S.3       10 UNK        -0.2568 
     17 C17        18.4130  -27.5575  -40.7685 C.3       10 UNK        -0.0983 
     18 CA         19.7026  -27.8765  -41.5731 C.3       3 UNK         0.0876 
     19 N          19.9909  -26.8410  -42.5688 N.am      3 UNK        -0.4424 
     20 C          20.4753  -25.6072  -42.3604 C.2       2 UNK         0.4918 
     21 O          20.8456  -25.1958  -41.2599 O.2       2 UNK        -0.4875 
     22 CA         20.5092  -24.6402  -43.5648 C.3       2 UNK         0.0481 
     23 CB         21.9477  -24.2365  -43.9439 C.3       2 UNK        -0.1831 
     24 N          19.7447  -25.1089  -44.7307 N.am      2 UNK        -0.4498 
     25 C          20.0517  -26.0685  -45.6138 C.2       1 UNK         0.5027 
     26 O          21.1251  -26.6683  -45.6266 O.2       1 UNK        -0.4969 
     27 C          20.9473  -28.1984  -40.7176 C.2       3 UNK         0.5005 
     28 O          21.9150  -28.7369  -41.2554 O.2       3 UNK        -0.5279 
     29 N          20.9282  -27.8596  -39.4205 N.am      4 UNK        -0.4463 
     30 CA         22.0151  -28.0863  -38.4615 C.3       4 UNK         0.0283 
     31 CB         21.5743  -27.6084  -37.0699 C.3       4 UNK        -0.1875 
     32 C          23.3533  -27.4341  -38.8544 C.2       4 UNK         0.4949 
     33 O          24.4047  -27.9908  -38.5399 O.2       4 UNK        -0.5039 
     34 N          23.3027  -26.3061  -39.5788 N.am      5 UNK        -0.4663 
     35 CA         24.4836  -25.6396  -40.1402 C.3       5 UNK         0.0242 
     36 CB         24.1314  -24.1865  -40.4896 C.3       5 UNK        -0.1982 
     37 C          25.0839  -26.3785  -41.3537 C.2       5 UNK         0.5017 
     38 O          26.2347  -26.1152  -41.7017 O.2       5 UNK        -0.5012 
     39 N          24.3226  -27.3095  -41.9452 N.am      6 UNK        -0.4439 
     40 CA         24.7612  -28.2624  -42.9662 C.3       6 UNK         0.0297 
     41 CB         23.7733  -28.2211  -44.1466 C.3       6 UNK        -0.2006 
     42 C          24.8844  -29.6778  -42.3642 C.2       6 UNK         0.4892 
     43 O          24.6973  -30.6639  -43.0791 O.2       6 UNK        -0.5089 
     44 N          25.1698  -29.7538  -41.0528 N.am      7 UNK        -0.4243 
     45 CA         25.3534  -30.9626  -40.2392 C.3       7 UNK         0.0196 
     46 CB         26.6432  -31.7006  -40.6572 C.3       7 UNK        -0.2007 
     47 C          24.1225  -31.8905  -40.2136 C.2       7 UNK         0.5020 
     48 O          24.2808  -33.1090  -40.1195 O.2       7 UNK        -0.5147 
     49 N          22.9188  -31.3069  -40.3329 N.am      8 UNK        -0.4734 
     50 CA         21.6164  -31.9823  -40.4305 C.3       8 UNK         0.0238 
     51 CB         21.2437  -32.6533  -39.0921 C.3       8 UNK        -0.1912 
     52 C          21.5301  -32.9410  -41.6349 C.2       8 UNK         0.5038 
     53 O          20.8518  -33.9666  -41.5563 O.2       8 UNK        -0.5046 
     54 N          22.2362  -32.5854  -42.7173 N.am      9 UNK        -0.4200 
     55 CA         22.4003  -33.3600  -43.9565 C.3       9 UNK         0.0839 
     56 C          23.2886  -34.6319  -43.8027 C.2       9 UNK         0.5513 
     57 N          24.0089  -34.8191  -42.7016 N.am      9 UNK        -0.7519 
     58 O          23.3517  -35.4552  -44.7123 O.2       9 UNK        -0.4960 
     59 C59        21.0637  -33.6491  -44.7027 C.3       10 UNK        -0.0876 
     60 S60        20.0377  -32.1555  -44.9384 S.3       10 UNK        -0.2414 
     61 C61        18.5134  -32.6411  -44.0675 C.3       10 UNK         0.0169 
     62 H62        16.9202  -22.4807  -47.1722 H         1 UNK         0.0903 
     63 H63        16.9959  -23.5702  -48.5588 H         1 UNK         0.0903 
     64 H64        15.5936  -23.6021  -47.4884 H         1 UNK         0.0903 
     65 H65        18.3772  -25.2536  -48.2013 H         1 UNK         0.3096 
     66 H66        19.4651  -26.9748  -47.4360 H         1 UNK         0.1121 
     67 H67        17.5150  -27.1282  -45.0835 H         1 UNK         0.0849 
     68 H68        18.6625  -28.3654  -45.5254 H         1 UNK         0.0849 
     69 H69        15.0106  -28.0588  -45.5230 H         1 UNK         0.0865 
     70 H70        14.8901  -29.5760  -46.3795 H         1 UNK         0.0865 
     71 H71        17.1803  -31.1388  -45.9025 H         1 UNK         0.1346 
     72 H72        17.8270  -31.5035  -41.6784 H         1 UNK         0.1412 
     73 H73        15.3633  -28.3442  -43.2041 H         1 UNK         0.1426 
     74 H74        15.6074  -28.5435  -40.8627 H         1 UNK         0.0716 
     75 H75        15.7188  -30.2071  -40.3504 H         1 UNK         0.0716 
     76 H76        18.5692  -26.7472  -40.0547 H         1 UNK         0.0695 
     77 H77        17.6410  -27.1932  -41.4483 H         1 UNK         0.0695 
     78 H78        19.5090  -28.7802  -42.1541 H         1 UNK         0.0983 
     79 H79        19.7853  -27.0922  -43.5230 H         1 UNK         0.3095 
     80 H80        19.9950  -23.7349  -43.2395 H         1 UNK         0.0454 
     81 H81        21.9731  -23.6741  -44.8771 H         1 UNK         0.0851 
     82 H82        22.5999  -25.1030  -44.0550 H         1 UNK         0.0851 
     83 H83        22.3826  -23.5963  -43.1782 H         1 UNK         0.0851 
     84 H84        18.8018  -24.7298  -44.8123 H         1 UNK         0.2976 
     85 H85        20.0920  -27.4218  -39.0607 H         1 UNK         0.3116 
     86 H86        22.1827  -29.1641  -38.4113 H         1 UNK         0.0646 
     87 H87        20.6829  -28.1369  -36.7313 H         1 UNK         0.0847 
     88 H88        22.3553  -27.7891  -36.3298 H         1 UNK         0.0847 
     89 H89        21.3572  -26.5395  -37.0595 H         1 UNK         0.0847 
     90 H90        22.3976  -25.9251  -39.8325 H         1 UNK         0.3040 
     91 H91        25.2604  -25.6172  -39.3722 H         1 UNK         0.1015 
     92 H92        23.3185  -24.1347  -41.2102 H         1 UNK         0.0786 
     93 H93        24.9874  -23.6655  -40.9209 H         1 UNK         0.0786 
     94 H94        23.8267  -23.6299  -39.6032 H         1 UNK         0.0786 
     95 H95        23.3995  -27.4984  -41.5640 H         1 UNK         0.3172 
     96 H96        25.7493  -27.9909  -43.3421 H         1 UNK         0.0595 
     97 H97        22.7678  -28.5174  -43.8451 H         1 UNK         0.0839 
     98 H98        24.0848  -28.8931  -44.9470 H         1 UNK         0.0839 
     99 H99        23.7113  -27.2217  -44.5761 H         1 UNK         0.0839 
    100 H100       25.2524  -28.8838  -40.5427 H         1 UNK         0.2998 
    101 H101       25.4873  -30.6185  -39.2125 H         1 UNK         0.0822 
    102 H102       26.8675  -32.5190  -39.9718 H         1 UNK         0.0787 
    103 H103       26.5572  -32.1283  -41.6568 H         1 UNK         0.0787 
    104 H104       27.5035  -31.0314  -40.6511 H         1 UNK         0.0787 
    105 H105       22.8871  -30.3039  -40.4922 H         1 UNK         0.3055 
    106 H106       20.8748  -31.2062  -40.6224 H         1 UNK         0.1106 
    107 H107       20.2249  -33.0416  -39.1198 H         1 UNK         0.0828 
    108 H108       21.9036  -33.4898  -38.8605 H         1 UNK         0.0828 
    109 H109       21.2956  -31.9444  -38.2658 H         1 UNK         0.0828 
    110 H110       22.8081  -31.7512  -42.6634 H         1 UNK         0.2931 
    111 H111       22.9824  -32.7040  -44.6048 H         1 UNK         0.0412 
    112 H112       24.5850  -35.6423  -42.6265 H         1 UNK         0.3472 
    113 H113       23.9765  -34.1571  -41.9353 H         1 UNK         0.3472 
    114 H114       20.4931  -34.4163  -44.1771 H         1 UNK         0.0970 
    115 H115       21.2692  -34.0622  -45.6918 H         1 UNK         0.0970 
    116 H116       18.7703  -33.1209  -43.1224 H         1 UNK         0.0612 
    117 H117       17.9809  -33.3859  -44.6606 H         1 UNK         0.0612 
@<TRIPOS>BOND
     1    1    2 1    
     2    1   62 1    
     3    1   63 1    
     4    1   64 1    
     5    2    3 2    
     6    2    4 am   BACKBONE|DICT|INTERRES
     7    4    5 1    
     8    4   65 1    
     9    5    6 1    
    10    5   25 1    
    11    5   66 1    
    12    6    7 1    
    13    6   67 1    
    14    6   68 1    
    15    7    8 1    
    16    8    9 1    
    17    8   69 1    
    18    8   70 1    
    19    9   10 ar   
    20    9   14 ar   
    21   10   11 ar   
    22   10   71 1    
    23   11   12 ar   
    24   11   61 1    
    25   12   13 ar   
    26   12   72 1    
    27   13   14 ar   
    28   13   15 1    
    29   14   73 1    
    30   15   16 1    
    31   15   74 1    
    32   15   75 1    
    33   16   17 1    
    34   17   18 1    
    35   17   76 1    
    36   17   77 1    
    37   18   19 1    
    38   18   27 1    
    39   18   78 1    
    40   19   20 am   BACKBONE|DICT|INTERRES
    41   19   79 1    
    42   20   21 2    
    43   20   22 1    
    44   22   23 1    
    45   22   24 1    
    46   22   80 1    
    47   23   81 1    
    48   23   82 1    
    49   23   83 1    
    50   24   25 am   BACKBONE|DICT|INTERRES
    51   24   84 1    
    52   25   26 2    
    53   27   28 2    
    54   27   29 am   BACKBONE|DICT|INTERRES
    55   29   30 1    
    56   29   85 1    
    57   30   31 1    
    58   30   32 1    
    59   30   86 1    
    60   31   87 1    
    61   31   88 1    
    62   31   89 1    
    63   32   33 2    
    64   32   34 am   BACKBONE|DICT|INTERRES
    65   34   35 1    
    66   34   90 1    
    67   35   36 1    
    68   35   37 1    
    69   35   91 1    
    70   36   92 1    
    71   36   93 1    
    72   36   94 1    
    73   37   38 2    
    74   37   39 am   BACKBONE|DICT|INTERRES
    75   39   40 1    
    76   39   95 1    
    77   40   41 1    
    78   40   42 1    
    79   40   96 1    
    80   41   97 1    
    81   41   98 1    
    82   41   99 1    
    83   42   43 2    
    84   42   44 am   BACKBONE|DICT|INTERRES
    85   44   45 1    
    86   44  100 1    
    87   45   46 1    
    88   45   47 1    
    89   45  101 1    
    90   46  102 1    
    91   46  103 1    
    92   46  104 1    
    93   47   48 2    
    94   47   49 am   BACKBONE|DICT|INTERRES
    95   49   50 1    
    96   49  105 1    
    97   50   51 1    
    98   50   52 1    
    99   50  106 1    
   100   51  107 1    
   101   51  108 1    
   102   51  109 1    
   103   52   53 2    
   104   52   54 am   BACKBONE|DICT|INTERRES
   105   54   55 1    
   106   54  110 1    
   107   55   56 1    
   108   55   59 1    
   109   55  111 1    
   110   56   57 am   BACKBONE|DICT|INTERRES
   111   56   58 2    
   112   57  112 1    
   113   57  113 1    
   114   59   60 1    
   115   59  114 1    
   116   59  115 1    
   117   60   61 1    
   118   61  116 1    
   119   61  117 1    
@<TRIPOS>SUBSTRUCTURE
     1 UNK         1 GROUP             0       ****    0 ROOT    
