@<TRIPOS>MOLECULE
3R8
117   119    1
SMALL
USER_CHARGES


@<TRIPOS>ATOM
      1 CA         13.1025  -24.7133  -41.9900 C.3       0 UNK        -0.2013 
      2 C          14.2692  -25.5011  -42.5681 C.2       0 UNK         0.4866 
      3 O          14.4094  -26.6822  -42.2533 O.2       0 UNK        -0.5176 
      4 N          15.0894  -24.8413  -43.4009 N.am      1 UNK        -0.4884 
      5 CA         16.2905  -25.3308  -44.0959 C.3       1 UNK         0.0853 
      6 C6         16.0059  -25.9833  -45.4816 C.3       10 UNK        -0.0849 
      7 S7         14.9942  -27.5073  -45.4922 S.3       10 UNK        -0.2776 
      8 C8         15.7328  -28.4325  -46.8760 C.3       10 UNK         0.0316 
      9 C9         17.0349  -29.1248  -46.4920 C.ar      10 UNK        -0.0863 
     10 C10        17.0061  -30.3792  -45.8766 C.ar      10 UNK        -0.1009 
     11 C11        18.1877  -31.0721  -45.5903 C.ar      10 UNK        -0.0712 
     12 C12        19.4170  -30.4719  -45.9051 C.ar      10 UNK        -0.0894 
     13 C13        19.4615  -29.2158  -46.5229 C.ar      10 UNK        -0.0745 
     14 C14        18.2670  -28.5509  -46.8145 C.ar      10 UNK        -0.0972 
     15 C15        20.7891  -28.6118  -46.9670 C.3       10 UNK         0.0209 
     16 S16        21.1606  -27.0202  -46.1573 S.3       10 UNK        -0.2568 
     17 C17        22.0924  -27.5510  -44.6825 C.3       10 UNK        -0.0983 
     18 CA         21.5941  -26.8605  -43.3829 C.3       3 UNK         0.0876 
     19 N          20.1903  -27.1430  -43.0706 N.am      3 UNK        -0.4424 
     20 C          19.6458  -28.3448  -42.8468 C.2       2 UNK         0.4918 
     21 O          20.2861  -29.3905  -42.8433 O.2       2 UNK        -0.4875 
     22 CA         18.1306  -28.4203  -42.5938 C.3       2 UNK         0.0481 
     23 CB         17.8262  -28.3991  -41.0838 C.3       2 UNK        -0.1831 
     24 N          17.3233  -27.4333  -43.3235 N.am      2 UNK        -0.4498 
     25 C          17.2667  -26.1030  -43.1800 C.2       1 UNK         0.5027 
     26 O          17.9673  -25.4703  -42.3872 O.2       1 UNK        -0.4969 
     27 C          22.4950  -27.1871  -42.1748 C.2       3 UNK         0.5005 
     28 O          23.1206  -28.2484  -42.1321 O.2       3 UNK        -0.5279 
     29 N          22.5605  -26.2654  -41.2018 N.am      4 UNK        -0.4463 
     30 CA         23.3810  -26.3805  -39.9851 C.3       4 UNK         0.0283 
     31 CB         23.1865  -25.1303  -39.1136 C.3       4 UNK        -0.1875 
     32 C          24.8807  -26.6218  -40.2523 C.2       4 UNK         0.4949 
     33 O          25.5267  -27.3312  -39.4819 O.2       4 UNK        -0.5039 
     34 N          25.3875  -26.0829  -41.3709 N.am      5 UNK        -0.4663 
     35 CA         26.7420  -26.3132  -41.8847 C.3       5 UNK         0.0242 
     36 CB         27.0207  -25.3140  -43.0192 C.3       5 UNK        -0.1982 
     37 C          26.9939  -27.7562  -42.3682 C.2       5 UNK         0.5017 
     38 O          28.1525  -28.1665  -42.4349 O.2       5 UNK        -0.5012 
     39 N          25.9230  -28.5023  -42.6736 N.am      6 UNK        -0.4439 
     40 CA         25.9382  -29.9191  -43.0423 C.3       6 UNK         0.0297 
     41 CB         25.0945  -30.1142  -44.3162 C.3       6 UNK        -0.2006 
     42 C          25.4281  -30.7825  -41.8721 C.2       6 UNK         0.4892 
     43 O          24.7725  -31.8001  -42.1026 O.2       6 UNK        -0.5089 
     44 N          25.7191  -30.3458  -40.6355 N.am      7 UNK        -0.4243 
     45 CA         25.3579  -30.9687  -39.3560 C.3       7 UNK         0.0196 
     46 CB         26.1086  -32.3052  -39.1718 C.3       7 UNK        -0.2007 
     47 C          23.8370  -31.1052  -39.1473 C.2       7 UNK         0.5020 
     48 O          23.3878  -32.0803  -38.5425 O.2       7 UNK        -0.5147 
     49 N          23.0697  -30.1367  -39.6724 N.am      8 UNK        -0.4734 
     50 CA         21.6020  -30.0663  -39.6516 C.3       8 UNK         0.0238 
     51 CB         21.0849  -29.8023  -38.2219 C.3       8 UNK        -0.1912 
     52 C          20.9362  -31.2837  -40.3227 C.2       8 UNK         0.5038 
     53 O          19.8902  -31.7466  -39.8631 O.2       8 UNK        -0.5046 
     54 N          21.5688  -31.7750  -41.3967 N.am      9 UNK        -0.4200 
     55 CA         21.1639  -32.9418  -42.1902 C.3       9 UNK         0.0839 
     56 C          21.4091  -34.3115  -41.4859 C.2       9 UNK         0.5513 
     57 N          22.1109  -34.3681  -40.3586 N.am      9 UNK        -0.7519 
     58 O          20.9799  -35.3507  -41.9804 O.2       9 UNK        -0.4960 
     59 C59        19.7265  -32.7938  -42.7795 C.3       10 UNK        -0.0876 
     60 S60        19.6047  -33.3236  -44.5174 S.3       10 UNK        -0.2414 
     61 C61        18.0577  -32.4882  -45.0172 C.3       10 UNK         0.0169 
     62 H62        13.1650  -24.6948  -40.9023 H         1 UNK         0.0903 
     63 H63        13.0855  -23.6833  -42.3459 H         1 UNK         0.0903 
     64 H64        12.1595  -25.1829  -42.2688 H         1 UNK         0.0903 
     65 H65        14.8914  -23.8645  -43.5693 H         1 UNK         0.3096 
     66 H66        16.8398  -24.4162  -44.3285 H         1 UNK         0.1121 
     67 H67        16.9527  -26.1719  -45.9882 H         1 UNK         0.0849 
     68 H68        15.4910  -25.2577  -46.1130 H         1 UNK         0.0849 
     69 H69        15.0144  -29.1805  -47.2151 H         1 UNK         0.0865 
     70 H70        15.8860  -27.7637  -47.7247 H         1 UNK         0.0865 
     71 H71        16.0517  -30.8361  -45.6509 H         1 UNK         0.1346 
     72 H72        20.3443  -30.9883  -45.7040 H         1 UNK         0.1412 
     73 H73        18.3028  -27.5957  -47.3201 H         1 UNK         0.1426 
     74 H74        21.6137  -29.3090  -46.8103 H         1 UNK         0.0716 
     75 H75        20.7441  -28.4429  -48.0437 H         1 UNK         0.0716 
     76 H76        23.1438  -27.3161  -44.8586 H         1 UNK         0.0695 
     77 H77        22.0404  -28.6365  -44.5895 H         1 UNK         0.0695 
     78 H78        21.6615  -25.7835  -43.5452 H         1 UNK         0.0983 
     79 H79        19.5760  -26.3403  -42.9806 H         1 UNK         0.3095 
     80 H80        17.8047  -29.3888  -42.9765 H         1 UNK         0.0454 
     81 H81        18.1600  -27.4748  -40.6116 H         1 UNK         0.0851 
     82 H82        18.3299  -29.2226  -40.5756 H         1 UNK         0.0851 
     83 H83        16.7580  -28.5057  -40.8946 H         1 UNK         0.0851 
     84 H84        16.7041  -27.8269  -44.0231 H         1 UNK         0.2976 
     85 H85        22.0063  -25.4252  -41.2919 H         1 UNK         0.3116 
     86 H86        23.0103  -27.2403  -39.4242 H         1 UNK         0.0646 
     87 H87        22.1430  -25.0050  -38.8239 H         1 UNK         0.0847 
     88 H88        23.7680  -25.2024  -38.1932 H         1 UNK         0.0847 
     89 H89        23.5049  -24.2233  -39.6289 H         1 UNK         0.0847 
     90 H90        24.7804  -25.5083  -41.9372 H         1 UNK         0.3040 
     91 H91        27.4467  -26.1187  -41.0730 H         1 UNK         0.1015 
     92 H92        26.3354  -25.4518  -43.8567 H         1 UNK         0.0786 
     93 H93        28.0342  -25.4337  -43.4051 H         1 UNK         0.0786 
     94 H94        26.9285  -24.2841  -42.6737 H         1 UNK         0.0786 
     95 H95        24.9945  -28.1150  -42.5248 H         1 UNK         0.3172 
     96 H96        26.9573  -30.2443  -43.2600 H         1 UNK         0.0595 
     97 H97        24.0396  -29.9082  -44.1337 H         1 UNK         0.0839 
     98 H98        25.1661  -31.1402  -44.6794 H         1 UNK         0.0839 
     99 H99        25.4308  -29.4617  -45.1218 H         1 UNK         0.0839 
    100 H100       26.2195  -29.4700  -40.5592 H         1 UNK         0.2998 
    101 H101       25.7044  -30.2854  -38.5790 H         1 UNK         0.0822 
    102 H102       25.9552  -32.7062  -38.1691 H         1 UNK         0.0787 
    103 H103       25.7669  -33.0613  -39.8796 H         1 UNK         0.0787 
    104 H104       27.1828  -32.1793  -39.3073 H         1 UNK         0.0787 
    105 H105       23.5257  -29.4236  -40.2292 H         1 UNK         0.3055 
    106 H106       21.3242  -29.2069  -40.2624 H         1 UNK         0.1106 
    107 H107       20.0089  -29.6240  -38.2225 H         1 UNK         0.0828 
    108 H108       21.2732  -30.6488  -37.5609 H         1 UNK         0.0828 
    109 H109       21.5572  -28.9225  -37.7851 H         1 UNK         0.0828 
    110 H110       22.4382  -31.3417  -41.6786 H         1 UNK         0.2931 
    111 H111       21.8708  -32.9312  -43.0205 H         1 UNK         0.0412 
    112 H112       22.4700  -33.5258  -39.9268 H         1 UNK         0.3472 
    113 H113       22.2690  -35.2622  -39.9218 H         1 UNK         0.3472 
    114 H114       19.4043  -31.7536  -42.7474 H         1 UNK         0.0970 
    115 H115       18.9928  -33.3371  -42.1812 H         1 UNK         0.0970 
    116 H116       17.5848  -33.1108  -45.7778 H         1 UNK         0.0612 
    117 H117       17.3719  -32.4750  -44.1685 H         1 UNK         0.0612 
@<TRIPOS>BOND
     1    1    2 1    
     2    1   62 1    
     3    1   63 1    
     4    1   64 1    
     5    2    3 2    
     6    2    4 am   BACKBONE|DICT|INTERRES
     7    4    5 1    
     8    4   65 1    
     9    5    6 1    
    10    5   25 1    
    11    5   66 1    
    12    6    7 1    
    13    6   67 1    
    14    6   68 1    
    15    7    8 1    
    16    8    9 1    
    17    8   69 1    
    18    8   70 1    
    19    9   10 ar   
    20    9   14 ar   
    21   10   11 ar   
    22   10   71 1    
    23   11   12 ar   
    24   11   61 1    
    25   12   13 ar   
    26   12   72 1    
    27   13   14 ar   
    28   13   15 1    
    29   14   73 1    
    30   15   16 1    
    31   15   74 1    
    32   15   75 1    
    33   16   17 1    
    34   17   18 1    
    35   17   76 1    
    36   17   77 1    
    37   18   19 1    
    38   18   27 1    
    39   18   78 1    
    40   19   20 am   BACKBONE|DICT|INTERRES
    41   19   79 1    
    42   20   21 2    
    43   20   22 1    
    44   22   23 1    
    45   22   24 1    
    46   22   80 1    
    47   23   81 1    
    48   23   82 1    
    49   23   83 1    
    50   24   25 am   BACKBONE|DICT|INTERRES
    51   24   84 1    
    52   25   26 2    
    53   27   28 2    
    54   27   29 am   BACKBONE|DICT|INTERRES
    55   29   30 1    
    56   29   85 1    
    57   30   31 1    
    58   30   32 1    
    59   30   86 1    
    60   31   87 1    
    61   31   88 1    
    62   31   89 1    
    63   32   33 2    
    64   32   34 am   BACKBONE|DICT|INTERRES
    65   34   35 1    
    66   34   90 1    
    67   35   36 1    
    68   35   37 1    
    69   35   91 1    
    70   36   92 1    
    71   36   93 1    
    72   36   94 1    
    73   37   38 2    
    74   37   39 am   BACKBONE|DICT|INTERRES
    75   39   40 1    
    76   39   95 1    
    77   40   41 1    
    78   40   42 1    
    79   40   96 1    
    80   41   97 1    
    81   41   98 1    
    82   41   99 1    
    83   42   43 2    
    84   42   44 am   BACKBONE|DICT|INTERRES
    85   44   45 1    
    86   44  100 1    
    87   45   46 1    
    88   45   47 1    
    89   45  101 1    
    90   46  102 1    
    91   46  103 1    
    92   46  104 1    
    93   47   48 2    
    94   47   49 am   BACKBONE|DICT|INTERRES
    95   49   50 1    
    96   49  105 1    
    97   50   51 1    
    98   50   52 1    
    99   50  106 1    
   100   51  107 1    
   101   51  108 1    
   102   51  109 1    
   103   52   53 2    
   104   52   54 am   BACKBONE|DICT|INTERRES
   105   54   55 1    
   106   54  110 1    
   107   55   56 1    
   108   55   59 1    
   109   55  111 1    
   110   56   57 am   BACKBONE|DICT|INTERRES
   111   56   58 2    
   112   57  112 1    
   113   57  113 1    
   114   59   60 1    
   115   59  114 1    
   116   59  115 1    
   117   60   61 1    
   118   61  116 1    
   119   61  117 1    
@<TRIPOS>SUBSTRUCTURE
     1 UNK         1 GROUP             0       ****    0 ROOT    
