@<TRIPOS>MOLECULE
3R8
117   119    1
SMALL
USER_CHARGES


@<TRIPOS>ATOM
      1 CA         15.0246  -27.9198  -38.7295 C.3       0 UNK        -0.2013 
      2 C          15.2926  -27.0335  -39.9361 C.2       0 UNK         0.4866 
      3 O          15.1144  -25.8182  -39.8550 O.2       0 UNK        -0.5176 
      4 N          15.7150  -27.6328  -41.0572 N.am      1 UNK        -0.4884 
      5 CA         16.0253  -26.9443  -42.3184 C.3       1 UNK         0.0853 
      6 C6         16.0600  -27.9273  -43.5163 C.3       10 UNK        -0.0849 
      7 S7         17.1917  -29.3361  -43.2654 S.3       10 UNK        -0.2776 
      8 C8         17.1591  -30.1335  -44.9001 C.3       10 UNK         0.0316 
      9 C9         18.5677  -30.5336  -45.3005 C.ar      10 UNK        -0.0863 
     10 C10        19.0853  -31.7755  -44.9234 C.ar      10 UNK        -0.1009 
     11 C11        20.4141  -32.1047  -45.2085 C.ar      10 UNK        -0.0712 
     12 C12        21.2172  -31.1913  -45.8997 C.ar      10 UNK        -0.0894 
     13 C13        20.7066  -29.9470  -46.2825 C.ar      10 UNK        -0.0745 
     14 C14        19.3765  -29.6303  -45.9931 C.ar      10 UNK        -0.0972 
     15 C15        21.6085  -28.9002  -46.9233 C.3       10 UNK         0.0209 
     16 S16        22.9506  -28.3406  -45.8145 S.3       10 UNK        -0.2568 
     17 C17        22.1256  -28.1178  -44.1969 C.3       10 UNK        -0.0983 
     18 CA         21.8942  -26.6467  -43.7884 C.3       3 UNK         0.0876 
     19 N          20.9073  -26.5852  -42.7093 N.am      3 UNK        -0.4424 
     20 C          20.3898  -25.4687  -42.1871 C.2       2 UNK         0.4918 
     21 O          20.6213  -24.3374  -42.6192 O.2       2 UNK        -0.4875 
     22 CA         19.4472  -25.6693  -40.9843 C.3       2 UNK         0.0481 
     23 CB         19.1008  -24.3449  -40.2724 C.3       2 UNK        -0.1831 
     24 N          18.2196  -26.3975  -41.3286 N.am      2 UNK        -0.4498 
     25 C          17.2967  -26.0658  -42.2479 C.2       1 UNK         0.5027 
     26 O          17.3898  -25.0983  -43.0047 O.2       1 UNK        -0.4969 
     27 C          23.2254  -25.9929  -43.3663 C.2       3 UNK         0.5005 
     28 O          23.6789  -26.2092  -42.2406 O.2       3 UNK        -0.5279 
     29 N          23.8602  -25.2623  -44.2921 N.am      4 UNK        -0.4463 
     30 CA         25.1979  -24.6904  -44.1063 C.3       4 UNK         0.0283 
     31 CB         25.4409  -23.6082  -45.1705 C.3       4 UNK        -0.1875 
     32 C          26.3143  -25.7505  -44.1561 C.2       4 UNK         0.4949 
     33 O          27.3640  -25.5498  -43.5457 O.2       4 UNK        -0.5039 
     34 N          26.0717  -26.8505  -44.8819 N.am      5 UNK        -0.4663 
     35 CA         27.0120  -27.9584  -45.0723 C.3       5 UNK         0.0242 
     36 CB         26.9046  -28.4394  -46.5303 C.3       5 UNK        -0.1982 
     37 C          26.7734  -29.1291  -44.1004 C.2       5 UNK         0.5017 
     38 O          27.5332  -30.0980  -44.1433 O.2       5 UNK        -0.5012 
     39 N          25.7328  -29.0451  -43.2628 N.am      6 UNK        -0.4439 
     40 CA         25.3247  -30.0843  -42.3209 C.3       6 UNK         0.0297 
     41 CB         24.5145  -31.1828  -43.0484 C.3       6 UNK        -0.2006 
     42 C          24.6040  -29.4200  -41.1386 C.2       6 UNK         0.4892 
     43 O          25.2191  -28.6021  -40.4530 O.2       6 UNK        -0.5089 
     44 N          23.3350  -29.7772  -40.9148 N.am      7 UNK        -0.4243 
     45 CA         22.4582  -29.2285  -39.8843 C.3       7 UNK         0.0196 
     46 CB         22.7985  -29.8347  -38.5034 C.3       7 UNK        -0.2007 
     47 C          21.0113  -29.4589  -40.3434 C.2       7 UNK         0.5020 
     48 O          20.6934  -29.1428  -41.4890 O.2       7 UNK        -0.5147 
     49 N          20.1589  -30.0103  -39.4719 N.am      8 UNK        -0.4734 
     50 CA         18.7992  -30.4393  -39.8186 C.3       8 UNK         0.0238 
     51 CB         17.9149  -30.3596  -38.5632 C.3       8 UNK        -0.1912 
     52 C          18.7512  -31.8563  -40.4241 C.2       8 UNK         0.5038 
     53 O          17.7322  -32.2164  -41.0136 O.2       8 UNK        -0.5046 
     54 N          19.8269  -32.6383  -40.2401 N.am      9 UNK        -0.4200 
     55 CA         19.9743  -34.0430  -40.6673 C.3       9 UNK         0.0839 
     56 C          18.9907  -35.0391  -39.9761 C.2       9 UNK         0.5513 
     57 N          18.4142  -34.7055  -38.8273 N.am      9 UNK        -0.7519 
     58 O          18.7699  -36.1450  -40.4638 O.2       9 UNK        -0.4960 
     59 C59        20.0163  -34.2076  -42.2142 C.3       10 UNK        -0.0876 
     60 S60        21.4441  -33.3606  -42.9718 S.3       10 UNK        -0.2414 
     61 C61        20.9969  -33.4275  -44.7364 C.3       10 UNK         0.0169 
     62 H62        15.0606  -28.9782  -38.9858 H         1 UNK         0.0903 
     63 H63        15.7633  -27.7290  -37.9515 H         1 UNK         0.0903 
     64 H64        14.0371  -27.7078  -38.3204 H         1 UNK         0.0903 
     65 H65        15.8351  -28.6362  -41.0797 H         1 UNK         0.3096 
     66 H66        15.2043  -26.2480  -42.5061 H         1 UNK         0.1121 
     67 H67        15.0590  -28.3266  -43.6878 H         1 UNK         0.0849 
     68 H68        16.3318  -27.4026  -44.4346 H         1 UNK         0.0849 
     69 H69        16.5068  -31.0073  -44.8642 H         1 UNK         0.0865 
     70 H70        16.7351  -29.4634  -45.6495 H         1 UNK         0.0865 
     71 H71        18.4639  -32.4659  -44.3714 H         1 UNK         0.1346 
     72 H72        22.2538  -31.4262  -46.0996 H         1 UNK         0.1412 
     73 H73        18.9840  -28.6577  -46.2576 H         1 UNK         0.1426 
     74 H74        21.0290  -28.0285  -47.2311 H         1 UNK         0.0716 
     75 H75        22.0485  -29.3116  -47.8325 H         1 UNK         0.0716 
     76 H76        22.7198  -28.6327  -43.4429 H         1 UNK         0.0695 
     77 H77        21.1723  -28.6411  -44.1860 H         1 UNK         0.0695 
     78 H78        21.4760  -26.1009  -44.6368 H         1 UNK         0.0983 
     79 H79        20.6819  -27.4800  -42.2782 H         1 UNK         0.3095 
     80 H80        19.9844  -26.2932  -40.2681 H         1 UNK         0.0454 
     81 H81        18.4867  -24.5186  -39.3888 H         1 UNK         0.0851 
     82 H82        18.5586  -23.6611  -40.9263 H         1 UNK         0.0851 
     83 H83        20.0049  -23.8311  -39.9436 H         1 UNK         0.0851 
     84 H84        18.0400  -27.2320  -40.7899 H         1 UNK         0.2976 
     85 H85        23.4289  -25.1305  -45.1967 H         1 UNK         0.3116 
     86 H86        25.2366  -24.2150  -43.1236 H         1 UNK         0.0646 
     87 H87        25.4095  -24.0177  -46.1810 H         1 UNK         0.0847 
     88 H88        26.4199  -23.1453  -45.0381 H         1 UNK         0.0847 
     89 H89        24.6982  -22.8127  -45.1057 H         1 UNK         0.0847 
     90 H90        25.1759  -26.9382  -45.3424 H         1 UNK         0.3040 
     91 H91        28.0337  -27.6092  -44.9061 H         1 UNK         0.1015 
     92 H92        25.9144  -28.8393  -46.7523 H         1 UNK         0.0786 
     93 H93        27.6281  -29.2291  -46.7378 H         1 UNK         0.0786 
     94 H94        27.1047  -27.6288  -47.2313 H         1 UNK         0.0786 
     95 H95        25.2100  -28.1801  -43.2237 H         1 UNK         0.3172 
     96 H96        26.2194  -30.5488  -41.9010 H         1 UNK         0.0595 
     97 H97        23.6188  -30.7918  -43.5316 H         1 UNK         0.0839 
     98 H98        24.2086  -31.9710  -42.3593 H         1 UNK         0.0839 
     99 H99        25.1136  -31.6629  -43.8222 H         1 UNK         0.0839 
    100 H100       22.8870  -30.4123  -41.5623 H         1 UNK         0.2998 
    101 H101       22.6044  -28.1468  -39.8417 H         1 UNK         0.0822 
    102 H102       23.8323  -29.6262  -38.2272 H         1 UNK         0.0787 
    103 H103       22.1761  -29.4086  -37.7156 H         1 UNK         0.0787 
    104 H104       22.6704  -30.9177  -38.4904 H         1 UNK         0.0787 
    105 H105       20.4827  -30.2134  -38.5365 H         1 UNK         0.3055 
    106 H106       18.3869  -29.7606  -40.5677 H         1 UNK         0.1106 
    107 H107       16.8929  -30.6698  -38.7846 H         1 UNK         0.0828 
    108 H108       18.2833  -31.0055  -37.7655 H         1 UNK         0.0828 
    109 H109       17.8681  -29.3418  -38.1757 H         1 UNK         0.0828 
    110 H110       20.6109  -32.2534  -39.7370 H         1 UNK         0.2931 
    111 H111       20.9528  -34.3476  -40.2941 H         1 UNK         0.0412 
    112 H112       17.7893  -35.3589  -38.3814 H         1 UNK         0.3472 
    113 H113       18.5945  -33.8099  -38.4039 H         1 UNK         0.3472 
    114 H114       19.0892  -33.8479  -42.6599 H         1 UNK         0.0970 
    115 H115       20.0943  -35.2608  -42.4893 H         1 UNK         0.0970 
    116 H116       20.2900  -34.2378  -44.9210 H         1 UNK         0.0612 
    117 H117       21.8922  -33.6699  -45.3109 H         1 UNK         0.0612 
@<TRIPOS>BOND
     1    1    2 1    
     2    1   62 1    
     3    1   63 1    
     4    1   64 1    
     5    2    3 2    
     6    2    4 am   BACKBONE|DICT|INTERRES
     7    4    5 1    
     8    4   65 1    
     9    5    6 1    
    10    5   25 1    
    11    5   66 1    
    12    6    7 1    
    13    6   67 1    
    14    6   68 1    
    15    7    8 1    
    16    8    9 1    
    17    8   69 1    
    18    8   70 1    
    19    9   10 ar   
    20    9   14 ar   
    21   10   11 ar   
    22   10   71 1    
    23   11   12 ar   
    24   11   61 1    
    25   12   13 ar   
    26   12   72 1    
    27   13   14 ar   
    28   13   15 1    
    29   14   73 1    
    30   15   16 1    
    31   15   74 1    
    32   15   75 1    
    33   16   17 1    
    34   17   18 1    
    35   17   76 1    
    36   17   77 1    
    37   18   19 1    
    38   18   27 1    
    39   18   78 1    
    40   19   20 am   BACKBONE|DICT|INTERRES
    41   19   79 1    
    42   20   21 2    
    43   20   22 1    
    44   22   23 1    
    45   22   24 1    
    46   22   80 1    
    47   23   81 1    
    48   23   82 1    
    49   23   83 1    
    50   24   25 am   BACKBONE|DICT|INTERRES
    51   24   84 1    
    52   25   26 2    
    53   27   28 2    
    54   27   29 am   BACKBONE|DICT|INTERRES
    55   29   30 1    
    56   29   85 1    
    57   30   31 1    
    58   30   32 1    
    59   30   86 1    
    60   31   87 1    
    61   31   88 1    
    62   31   89 1    
    63   32   33 2    
    64   32   34 am   BACKBONE|DICT|INTERRES
    65   34   35 1    
    66   34   90 1    
    67   35   36 1    
    68   35   37 1    
    69   35   91 1    
    70   36   92 1    
    71   36   93 1    
    72   36   94 1    
    73   37   38 2    
    74   37   39 am   BACKBONE|DICT|INTERRES
    75   39   40 1    
    76   39   95 1    
    77   40   41 1    
    78   40   42 1    
    79   40   96 1    
    80   41   97 1    
    81   41   98 1    
    82   41   99 1    
    83   42   43 2    
    84   42   44 am   BACKBONE|DICT|INTERRES
    85   44   45 1    
    86   44  100 1    
    87   45   46 1    
    88   45   47 1    
    89   45  101 1    
    90   46  102 1    
    91   46  103 1    
    92   46  104 1    
    93   47   48 2    
    94   47   49 am   BACKBONE|DICT|INTERRES
    95   49   50 1    
    96   49  105 1    
    97   50   51 1    
    98   50   52 1    
    99   50  106 1    
   100   51  107 1    
   101   51  108 1    
   102   51  109 1    
   103   52   53 2    
   104   52   54 am   BACKBONE|DICT|INTERRES
   105   54   55 1    
   106   54  110 1    
   107   55   56 1    
   108   55   59 1    
   109   55  111 1    
   110   56   57 am   BACKBONE|DICT|INTERRES
   111   56   58 2    
   112   57  112 1    
   113   57  113 1    
   114   59   60 1    
   115   59  114 1    
   116   59  115 1    
   117   60   61 1    
   118   61  116 1    
   119   61  117 1    
@<TRIPOS>SUBSTRUCTURE
     1 UNK         1 GROUP             0       ****    0 ROOT    
