@<TRIPOS>MOLECULE
3R8
117   119    1
SMALL
USER_CHARGES


@<TRIPOS>ATOM
      1 CA         17.0584  -23.1735  -40.5949 C.3       0 UNK        -0.2013 
      2 C          17.5368  -23.3358  -42.0299 C.2       0 UNK         0.4866 
      3 O          18.0647  -22.3870  -42.6114 O.2       0 UNK        -0.5176 
      4 N          17.3488  -24.5285  -42.6072 N.am      1 UNK        -0.4884 
      5 CA         17.8374  -24.9064  -43.9371 C.3       1 UNK         0.0853 
      6 C6         17.0832  -26.1423  -44.4948 C.3       10 UNK        -0.0849 
      7 S7         17.0365  -27.5760  -43.3626 S.3       10 UNK        -0.2776 
      8 C8         15.8687  -28.6701  -44.2347 C.3       10 UNK         0.0316 
      9 C9         16.5506  -29.9637  -44.6482 C.ar      10 UNK        -0.0863 
     10 C10        16.3255  -31.1426  -43.9309 C.ar      10 UNK        -0.1009 
     11 C11        16.9794  -32.3289  -44.2795 C.ar      10 UNK        -0.0712 
     12 C12        17.8712  -32.3188  -45.3598 C.ar      10 UNK        -0.0894 
     13 C13        18.1259  -31.1406  -46.0671 C.ar      10 UNK        -0.0745 
     14 C14        17.4339  -29.9737  -45.7300 C.ar      10 UNK        -0.0972 
     15 C15        19.1976  -31.1226  -47.1506 C.3       10 UNK         0.0209 
     16 S16        20.4950  -29.8638  -46.8663 S.3       10 UNK        -0.2568 
     17 C17        20.8307  -29.9895  -45.0703 C.3       10 UNK        -0.0983 
     18 CA         21.7421  -28.8535  -44.5415 C.3       3 UNK         0.0876 
     19 N          21.3272  -27.5237  -44.9983 N.am      3 UNK        -0.4424 
     20 C          22.0618  -26.4117  -44.8639 C.2       2 UNK         0.4918 
     21 O          23.1819  -26.3875  -44.3560 O.2       2 UNK        -0.4875 
     22 CA         21.4280  -25.0958  -45.3477 C.3       2 UNK         0.0481 
     23 CB         21.7403  -24.8701  -46.8352 C.3       2 UNK        -0.1831 
     24 N          19.9789  -25.0042  -45.1306 N.am      2 UNK        -0.4498 
     25 C          19.3681  -25.1080  -43.9404 C.2       1 UNK         0.5027 
     26 O          19.9614  -25.3710  -42.8907 O.2       1 UNK        -0.4969 
     27 C          21.8321  -28.8977  -43.0036 C.2       3 UNK         0.5005 
     28 O          22.8471  -29.3402  -42.4677 O.2       3 UNK        -0.5279 
     29 N          20.7942  -28.3829  -42.3256 N.am      4 UNK        -0.4463 
     30 CA         20.7283  -28.2722  -40.8669 C.3       4 UNK         0.0283 
     31 CB         19.3103  -27.8670  -40.4362 C.3       4 UNK        -0.1875 
     32 C          21.7714  -27.2950  -40.3036 C.2       4 UNK         0.4949 
     33 O          22.3769  -27.5907  -39.2745 O.2       4 UNK        -0.5039 
     34 N          22.0064  -26.1785  -41.0086 N.am      5 UNK        -0.4663 
     35 CA         23.0563  -25.2017  -40.6968 C.3       5 UNK         0.0242 
     36 CB         22.8983  -23.9715  -41.6035 C.3       5 UNK        -0.1982 
     37 C          24.4777  -25.7859  -40.8089 C.2       5 UNK         0.5017 
     38 O          25.3463  -25.4171  -40.0184 O.2       5 UNK        -0.5012 
     39 N          24.6753  -26.7142  -41.7551 N.am      6 UNK        -0.4439 
     40 CA         25.8975  -27.5044  -41.9295 C.3       6 UNK         0.0297 
     41 CB         25.9837  -27.9675  -43.3943 C.3       6 UNK        -0.2006 
     42 C          25.9976  -28.7091  -40.9687 C.2       6 UNK         0.4892 
     43 O          27.0016  -29.4209  -41.0202 O.2       6 UNK        -0.5089 
     44 N          24.9752  -28.9227  -40.1249 N.am      7 UNK        -0.4243 
     45 CA         24.8155  -30.0167  -39.1594 C.3       7 UNK         0.0196 
     46 CB         25.9166  -29.9753  -38.0775 C.3       7 UNK        -0.2007 
     47 C          24.6596  -31.4038  -39.8148 C.2       7 UNK         0.5020 
     48 O          25.0403  -32.4099  -39.2130 O.2       7 UNK        -0.5147 
     49 N          24.0821  -31.4428  -41.0209 N.am      8 UNK        -0.4734 
     50 CA         23.6906  -32.6618  -41.7262 C.3       8 UNK         0.0238 
     51 CB         24.0117  -32.4867  -43.2214 C.3       8 UNK        -0.1912 
     52 C          22.1903  -32.9287  -41.5187 C.2       8 UNK         0.5038 
     53 O          21.4558  -32.0408  -41.0770 O.2       8 UNK        -0.5046 
     54 N          21.7587  -34.1442  -41.8779 N.am      9 UNK        -0.4200 
     55 CA         20.3727  -34.6273  -41.7703 C.3       9 UNK         0.0839 
     56 C          19.8970  -34.8293  -40.2984 C.2       9 UNK         0.5513 
     57 N          18.6034  -35.0140  -40.0735 N.am      9 UNK        -0.7519 
     58 O          20.6916  -34.8720  -39.3608 O.2       9 UNK        -0.4960 
     59 C59        19.3951  -33.7888  -42.6496 C.3       10 UNK        -0.0876 
     60 S60        18.0719  -34.7969  -43.3994 S.3       10 UNK        -0.2414 
     61 C61        16.6963  -33.5961  -43.4695 C.3       10 UNK         0.0169 
     62 H62        16.3232  -22.3717  -40.5322 H         1 UNK         0.0903 
     63 H63        16.5997  -24.0853  -40.2126 H         1 UNK         0.0903 
     64 H64        17.8972  -22.9193  -39.9476 H         1 UNK         0.0903 
     65 H65        16.9381  -25.2850  -42.0780 H         1 UNK         0.3096 
     66 H66        17.6322  -24.0675  -44.6065 H         1 UNK         0.1121 
     67 H67        17.4989  -26.4598  -45.4531 H         1 UNK         0.0849 
     68 H68        16.0526  -25.8521  -44.7063 H         1 UNK         0.0849 
     69 H69        15.0210  -28.8745  -43.5789 H         1 UNK         0.0865 
     70 H70        15.4559  -28.1779  -45.1165 H         1 UNK         0.0865 
     71 H71        15.6436  -31.1349  -43.0913 H         1 UNK         0.1346 
     72 H72        18.3938  -33.2231  -45.6374 H         1 UNK         0.1412 
     73 H73        17.6293  -29.0587  -46.2724 H         1 UNK         0.1426 
     74 H74        18.7268  -30.9350  -48.1164 H         1 UNK         0.0716 
     75 H75        19.6817  -32.0973  -47.2286 H         1 UNK         0.0716 
     76 H76        21.2796  -30.9639  -44.8696 H         1 UNK         0.0695 
     77 H77        19.8848  -29.9753  -44.5285 H         1 UNK         0.0695 
     78 H78        22.7481  -29.0283  -44.9301 H         1 UNK         0.0983 
     79 H79        20.4272  -27.4636  -45.4499 H         1 UNK         0.3095 
     80 H80        21.8889  -24.2847  -44.7812 H         1 UNK         0.0454 
     81 H81        21.2746  -25.6275  -47.4670 H         1 UNK         0.0851 
     82 H82        22.8152  -24.9107  -47.0181 H         1 UNK         0.0851 
     83 H83        21.3953  -23.8921  -47.1710 H         1 UNK         0.0851 
     84 H84        19.4202  -24.7932  -45.9454 H         1 UNK         0.2976 
     85 H85        20.0224  -27.9867  -42.8435 H         1 UNK         0.3116 
     86 H86        20.9407  -29.2597  -40.4509 H         1 UNK         0.0646 
     87 H87        18.5722  -28.5980  -40.7666 H         1 UNK         0.0847 
     88 H88        19.0246  -26.8952  -40.8402 H         1 UNK         0.0847 
     89 H89        19.2371  -27.8023  -39.3499 H         1 UNK         0.0847 
     90 H90        21.4096  -25.9781  -41.8082 H         1 UNK         0.3040 
     91 H91        22.9137  -24.8843  -39.6615 H         1 UNK         0.1015 
     92 H92        23.6209  -23.1981  -41.3397 H         1 UNK         0.0786 
     93 H93        21.9040  -23.5335  -41.5110 H         1 UNK         0.0786 
     94 H94        23.0579  -24.2213  -42.6522 H         1 UNK         0.0786 
     95 H95        23.9147  -26.9169  -42.3947 H         1 UNK         0.3172 
     96 H96        26.7576  -26.8623  -41.7297 H         1 UNK         0.0595 
     97 H97        25.1637  -28.6373  -43.6546 H         1 UNK         0.0839 
     98 H98        26.9142  -28.5041  -43.5834 H         1 UNK         0.0839 
     99 H99        25.9542  -27.1212  -44.0808 H         1 UNK         0.0839 
    100 H100       24.1873  -28.2874  -40.1736 H         1 UNK         0.2998 
    101 H101       23.8656  -29.8269  -38.6578 H         1 UNK         0.0822 
    102 H102       25.9927  -28.9856  -37.6272 H         1 UNK         0.0787 
    103 H103       25.7008  -30.6796  -37.2733 H         1 UNK         0.0787 
    104 H104       26.8944  -30.2372  -38.4826 H         1 UNK         0.0787 
    105 H105       23.7243  -30.5778  -41.4254 H         1 UNK         0.3055 
    106 H106       24.2515  -33.5169  -41.3423 H         1 UNK         0.1106 
    107 H107       23.4297  -31.6814  -43.6697 H         1 UNK         0.0828 
    108 H108       23.7944  -33.3960  -43.7828 H         1 UNK         0.0828 
    109 H109       25.0667  -32.2583  -43.3742 H         1 UNK         0.0828 
    110 H110       22.4297  -34.8229  -42.2075 H         1 UNK         0.2931 
    111 H111       20.4234  -35.6340  -42.1867 H         1 UNK         0.0412 
    112 H112       18.2803  -35.1660  -39.1306 H         1 UNK         0.3472 
    113 H113       17.9498  -35.0180  -40.8421 H         1 UNK         0.3472 
    114 H114       18.9712  -32.9577  -42.0819 H         1 UNK         0.0970 
    115 H115       19.9347  -33.3261  -43.4775 H         1 UNK         0.0970 
    116 H116       16.4256  -33.3318  -42.4459 H         1 UNK         0.0612 
    117 H117       15.8266  -34.0932  -43.9007 H         1 UNK         0.0612 
@<TRIPOS>BOND
     1    1    2 1    
     2    1   62 1    
     3    1   63 1    
     4    1   64 1    
     5    2    3 2    
     6    2    4 am   BACKBONE|DICT|INTERRES
     7    4    5 1    
     8    4   65 1    
     9    5    6 1    
    10    5   25 1    
    11    5   66 1    
    12    6    7 1    
    13    6   67 1    
    14    6   68 1    
    15    7    8 1    
    16    8    9 1    
    17    8   69 1    
    18    8   70 1    
    19    9   10 ar   
    20    9   14 ar   
    21   10   11 ar   
    22   10   71 1    
    23   11   12 ar   
    24   11   61 1    
    25   12   13 ar   
    26   12   72 1    
    27   13   14 ar   
    28   13   15 1    
    29   14   73 1    
    30   15   16 1    
    31   15   74 1    
    32   15   75 1    
    33   16   17 1    
    34   17   18 1    
    35   17   76 1    
    36   17   77 1    
    37   18   19 1    
    38   18   27 1    
    39   18   78 1    
    40   19   20 am   BACKBONE|DICT|INTERRES
    41   19   79 1    
    42   20   21 2    
    43   20   22 1    
    44   22   23 1    
    45   22   24 1    
    46   22   80 1    
    47   23   81 1    
    48   23   82 1    
    49   23   83 1    
    50   24   25 am   BACKBONE|DICT|INTERRES
    51   24   84 1    
    52   25   26 2    
    53   27   28 2    
    54   27   29 am   BACKBONE|DICT|INTERRES
    55   29   30 1    
    56   29   85 1    
    57   30   31 1    
    58   30   32 1    
    59   30   86 1    
    60   31   87 1    
    61   31   88 1    
    62   31   89 1    
    63   32   33 2    
    64   32   34 am   BACKBONE|DICT|INTERRES
    65   34   35 1    
    66   34   90 1    
    67   35   36 1    
    68   35   37 1    
    69   35   91 1    
    70   36   92 1    
    71   36   93 1    
    72   36   94 1    
    73   37   38 2    
    74   37   39 am   BACKBONE|DICT|INTERRES
    75   39   40 1    
    76   39   95 1    
    77   40   41 1    
    78   40   42 1    
    79   40   96 1    
    80   41   97 1    
    81   41   98 1    
    82   41   99 1    
    83   42   43 2    
    84   42   44 am   BACKBONE|DICT|INTERRES
    85   44   45 1    
    86   44  100 1    
    87   45   46 1    
    88   45   47 1    
    89   45  101 1    
    90   46  102 1    
    91   46  103 1    
    92   46  104 1    
    93   47   48 2    
    94   47   49 am   BACKBONE|DICT|INTERRES
    95   49   50 1    
    96   49  105 1    
    97   50   51 1    
    98   50   52 1    
    99   50  106 1    
   100   51  107 1    
   101   51  108 1    
   102   51  109 1    
   103   52   53 2    
   104   52   54 am   BACKBONE|DICT|INTERRES
   105   54   55 1    
   106   54  110 1    
   107   55   56 1    
   108   55   59 1    
   109   55  111 1    
   110   56   57 am   BACKBONE|DICT|INTERRES
   111   56   58 2    
   112   57  112 1    
   113   57  113 1    
   114   59   60 1    
   115   59  114 1    
   116   59  115 1    
   117   60   61 1    
   118   61  116 1    
   119   61  117 1    
@<TRIPOS>SUBSTRUCTURE
     1 UNK         1 GROUP             0       ****    0 ROOT    
