@<TRIPOS>MOLECULE
3R8
117   119    1
SMALL
USER_CHARGES


@<TRIPOS>ATOM
      1 CA         17.2012  -25.7126  -40.5979 C.3       0 UNK        -0.2013 
      2 C          17.5780  -25.5459  -42.0610 C.2       0 UNK         0.4866 
      3 O          18.7128  -25.8417  -42.4368 O.2       0 UNK        -0.5176 
      4 N          16.6455  -25.0527  -42.8914 N.am      1 UNK        -0.4884 
      5 CA         16.7331  -24.8939  -44.3584 C.3       1 UNK         0.0853 
      6 C6         16.9925  -26.2411  -45.0857 C.3       10 UNK        -0.0849 
      7 S7         15.6927  -27.5074  -44.8781 S.3       10 UNK        -0.2776 
      8 C8         16.4992  -28.7679  -43.8222 C.3       10 UNK         0.0316 
      9 C9         17.5428  -29.6692  -44.4953 C.ar      10 UNK        -0.0863 
     10 C10        17.7633  -30.9483  -43.9704 C.ar      10 UNK        -0.1009 
     11 C11        18.7629  -31.7776  -44.4903 C.ar      10 UNK        -0.0712 
     12 C12        19.5824  -31.3028  -45.5210 C.ar      10 UNK        -0.0894 
     13 C13        19.3703  -30.0326  -46.0672 C.ar      10 UNK        -0.0745 
     14 C14        18.3241  -29.2484  -45.5790 C.ar      10 UNK        -0.0972 
     15 C15        20.2381  -29.5140  -47.2103 C.3       10 UNK         0.0209 
     16 S16        21.6919  -28.5650  -46.6359 S.3       10 UNK        -0.2568 
     17 C17        20.9941  -26.9279  -46.1811 C.3       10 UNK        -0.0983 
     18 CA         21.5893  -26.2669  -44.8983 C.3       3 UNK         0.0876 
     19 N          20.7986  -25.1301  -44.4354 N.am      3 UNK        -0.4424 
     20 C          20.9232  -23.8694  -44.8736 C.2       2 UNK         0.4918 
     21 O          21.7271  -23.5267  -45.7421 O.2       2 UNK        -0.4875 
     22 CA         19.9843  -22.8211  -44.2314 C.3       2 UNK         0.0481 
     23 CB         19.8975  -21.5025  -45.0295 C.3       2 UNK        -0.1831 
     24 N          18.6581  -23.3859  -43.9533 N.am      2 UNK        -0.4498 
     25 C          17.7834  -23.8651  -44.8502 C.2       1 UNK         0.5027 
     26 O          17.8159  -23.5813  -46.0483 O.2       1 UNK        -0.4969 
     27 C          21.7603  -27.2040  -43.6949 C.2       3 UNK         0.5005 
     28 O          22.7999  -27.1626  -43.0320 O.2       3 UNK        -0.5279 
     29 N          20.7529  -28.0593  -43.4629 N.am      4 UNK        -0.4463 
     30 CA         20.7128  -29.1302  -42.4613 C.3       4 UNK         0.0283 
     31 CB         20.5549  -28.5421  -41.0440 C.3       4 UNK        -0.1875 
     32 C          21.8910  -30.1187  -42.5700 C.2       4 UNK         0.4949 
     33 O          22.2938  -30.6872  -41.5567 O.2       4 UNK        -0.5039 
     34 N          22.4544  -30.2662  -43.7799 N.am      5 UNK        -0.4663 
     35 CA         23.6841  -31.0008  -44.1042 C.3       5 UNK         0.0242 
     36 CB         23.4275  -32.5201  -44.0707 C.3       5 UNK        -0.1982 
     37 C          24.8888  -30.5652  -43.2411 C.2       5 UNK         0.5017 
     38 O          25.6559  -31.4138  -42.7849 O.2       5 UNK        -0.5012 
     39 N          25.0049  -29.2452  -43.0188 N.am      6 UNK        -0.4439 
     40 CA         25.9576  -28.5710  -42.1290 C.3       6 UNK         0.0297 
     41 CB         27.4198  -28.8114  -42.5645 C.3       6 UNK        -0.2006 
     42 C          25.6912  -28.9046  -40.6482 C.2       6 UNK         0.4892 
     43 O          26.6143  -29.2685  -39.9175 O.2       6 UNK        -0.5089 
     44 N          24.4188  -28.7586  -40.2473 N.am      7 UNK        -0.4243 
     45 CA         23.8705  -28.9849  -38.9023 C.3       7 UNK         0.0196 
     46 CB         24.4462  -27.9659  -37.8953 C.3       7 UNK        -0.2007 
     47 C          23.9861  -30.4448  -38.4160 C.2       7 UNK         0.5020 
     48 O          24.1662  -30.6819  -37.2204 O.2       7 UNK        -0.5147 
     49 N          23.8517  -31.3979  -39.3447 N.am      8 UNK        -0.4734 
     50 CA         23.8126  -32.8363  -39.0741 C.3       8 UNK         0.0238 
     51 CB         24.6409  -33.5732  -40.1376 C.3       8 UNK        -0.1912 
     52 C          22.3708  -33.3708  -39.0460 C.2       8 UNK         0.5038 
     53 O          22.1031  -34.3199  -38.3080 O.2       8 UNK        -0.5046 
     54 N          21.4697  -32.7583  -39.8277 N.am      9 UNK        -0.4200 
     55 CA         20.0362  -33.0959  -39.8905 C.3       9 UNK         0.0839 
     56 C          19.2061  -32.5899  -38.6745 C.2       9 UNK         0.5513 
     57 N          19.7525  -31.7686  -37.7854 N.am      9 UNK        -0.7519 
     58 O          18.0420  -32.9553  -38.5335 O.2       9 UNK        -0.4960 
     59 C59        19.3855  -32.6409  -41.2257 C.3       10 UNK        -0.0876 
     60 S60        20.2089  -33.3510  -42.6907 S.3       10 UNK        -0.2414 
     61 C61        18.9253  -33.2013  -43.9707 C.3       10 UNK         0.0169 
     62 H62        17.8803  -25.1383  -39.9684 H         1 UNK         0.0903 
     63 H63        16.1840  -25.3771  -40.3969 H         1 UNK         0.0903 
     64 H64        17.2764  -26.7612  -40.3116 H         1 UNK         0.0903 
     65 H65        15.7469  -24.7993  -42.5026 H         1 UNK         0.3096 
     66 H66        15.7655  -24.5112  -44.6873 H         1 UNK         0.1121 
     67 H67        17.9489  -26.6392  -44.7516 H         1 UNK         0.0849 
     68 H68        17.0907  -26.0873  -46.1626 H         1 UNK         0.0849 
     69 H69        16.9668  -28.2751  -42.9697 H         1 UNK         0.0865 
     70 H70        15.7050  -29.3913  -43.4084 H         1 UNK         0.0865 
     71 H71        17.1533  -31.3040  -43.1512 H         1 UNK         0.1346 
     72 H72        20.3698  -31.9325  -45.9123 H         1 UNK         0.1412 
     73 H73        18.1349  -28.3069  -46.0624 H         1 UNK         0.1426 
     74 H74        19.6467  -28.8965  -47.8884 H         1 UNK         0.0716 
     75 H75        20.5918  -30.3562  -47.8069 H         1 UNK         0.0716 
     76 H76        19.9147  -27.0121  -46.0859 H         1 UNK         0.0695 
     77 H77        21.1491  -26.2589  -47.0289 H         1 UNK         0.0695 
     78 H78        22.5942  -25.9170  -45.1463 H         1 UNK         0.0983 
     79 H79        20.1372  -25.3319  -43.6881 H         1 UNK         0.3095 
     80 H80        20.4178  -22.5843  -43.2589 H         1 UNK         0.0454 
     81 H81        20.8711  -21.0131  -45.0749 H         1 UNK         0.0851 
     82 H82        19.2046  -20.8014  -44.5649 H         1 UNK         0.0851 
     83 H83        19.5736  -21.6649  -46.0576 H         1 UNK         0.0851 
     84 H84        18.5254  -23.7128  -43.0049 H         1 UNK         0.2976 
     85 H85        19.9528  -28.0240  -44.0782 H         1 UNK         0.3116 
     86 H86        19.8184  -29.7103  -42.6741 H         1 UNK         0.0646 
     87 H87        20.4655  -29.3273  -40.2923 H         1 UNK         0.0847 
     88 H88        21.4030  -27.9158  -40.7695 H         1 UNK         0.0847 
     89 H89        19.6565  -27.9303  -40.9724 H         1 UNK         0.0847 
     90 H90        22.0371  -29.7570  -44.5488 H         1 UNK         0.3040 
     91 H91        23.9420  -30.7354  -45.1308 H         1 UNK         0.1015 
     92 H92        24.3131  -33.0789  -44.3751 H         1 UNK         0.0786 
     93 H93        22.6206  -32.7983  -44.7483 H         1 UNK         0.0786 
     94 H94        23.1525  -32.8580  -43.0728 H         1 UNK         0.0786 
     95 H95        24.2753  -28.6437  -43.3874 H         1 UNK         0.3172 
     96 H96        25.7616  -27.5030  -42.2371 H         1 UNK         0.0595 
     97 H97        27.7254  -29.8482  -42.4222 H         1 UNK         0.0839 
     98 H98        28.1033  -28.1933  -41.9812 H         1 UNK         0.0839 
     99 H99        27.5691  -28.5575  -43.6138 H         1 UNK         0.0839 
    100 H100       23.7455  -28.4806  -40.9490 H         1 UNK         0.2998 
    101 H101       22.8003  -28.7910  -38.9787 H         1 UNK         0.0822 
    102 H102       23.9353  -28.0333  -36.9340 H         1 UNK         0.0787 
    103 H103       24.3254  -26.9432  -38.2526 H         1 UNK         0.0787 
    104 H104       25.5076  -28.1344  -37.7107 H         1 UNK         0.0787 
    105 H105       23.6286  -31.1075  -40.2937 H         1 UNK         0.3055 
    106 H106       24.2578  -33.0446  -38.0985 H         1 UNK         0.1106 
    107 H107       25.6768  -33.2337  -40.1365 H         1 UNK         0.0828 
    108 H108       24.6494  -34.6481  -39.9524 H         1 UNK         0.0828 
    109 H109       24.2432  -33.4167  -41.1394 H         1 UNK         0.0828 
    110 H110       21.7742  -31.9980  -40.4309 H         1 UNK         0.2931 
    111 H111       19.9637  -34.1849  -39.8593 H         1 UNK         0.0412 
    112 H112       19.2034  -31.4534  -37.0011 H         1 UNK         0.3472 
    113 H113       20.7110  -31.4763  -37.8827 H         1 UNK         0.3472 
    114 H114       18.3351  -32.9370  -41.2516 H         1 UNK         0.0970 
    115 H115       19.3962  -31.5543  -41.3043 H         1 UNK         0.0970 
    116 H116       19.1926  -33.8568  -44.8007 H         1 UNK         0.0612 
    117 H117       17.9775  -33.5801  -43.5852 H         1 UNK         0.0612 
@<TRIPOS>BOND
     1    1    2 1    
     2    1   62 1    
     3    1   63 1    
     4    1   64 1    
     5    2    3 2    
     6    2    4 am   BACKBONE|DICT|INTERRES
     7    4    5 1    
     8    4   65 1    
     9    5    6 1    
    10    5   25 1    
    11    5   66 1    
    12    6    7 1    
    13    6   67 1    
    14    6   68 1    
    15    7    8 1    
    16    8    9 1    
    17    8   69 1    
    18    8   70 1    
    19    9   10 ar   
    20    9   14 ar   
    21   10   11 ar   
    22   10   71 1    
    23   11   12 ar   
    24   11   61 1    
    25   12   13 ar   
    26   12   72 1    
    27   13   14 ar   
    28   13   15 1    
    29   14   73 1    
    30   15   16 1    
    31   15   74 1    
    32   15   75 1    
    33   16   17 1    
    34   17   18 1    
    35   17   76 1    
    36   17   77 1    
    37   18   19 1    
    38   18   27 1    
    39   18   78 1    
    40   19   20 am   BACKBONE|DICT|INTERRES
    41   19   79 1    
    42   20   21 2    
    43   20   22 1    
    44   22   23 1    
    45   22   24 1    
    46   22   80 1    
    47   23   81 1    
    48   23   82 1    
    49   23   83 1    
    50   24   25 am   BACKBONE|DICT|INTERRES
    51   24   84 1    
    52   25   26 2    
    53   27   28 2    
    54   27   29 am   BACKBONE|DICT|INTERRES
    55   29   30 1    
    56   29   85 1    
    57   30   31 1    
    58   30   32 1    
    59   30   86 1    
    60   31   87 1    
    61   31   88 1    
    62   31   89 1    
    63   32   33 2    
    64   32   34 am   BACKBONE|DICT|INTERRES
    65   34   35 1    
    66   34   90 1    
    67   35   36 1    
    68   35   37 1    
    69   35   91 1    
    70   36   92 1    
    71   36   93 1    
    72   36   94 1    
    73   37   38 2    
    74   37   39 am   BACKBONE|DICT|INTERRES
    75   39   40 1    
    76   39   95 1    
    77   40   41 1    
    78   40   42 1    
    79   40   96 1    
    80   41   97 1    
    81   41   98 1    
    82   41   99 1    
    83   42   43 2    
    84   42   44 am   BACKBONE|DICT|INTERRES
    85   44   45 1    
    86   44  100 1    
    87   45   46 1    
    88   45   47 1    
    89   45  101 1    
    90   46  102 1    
    91   46  103 1    
    92   46  104 1    
    93   47   48 2    
    94   47   49 am   BACKBONE|DICT|INTERRES
    95   49   50 1    
    96   49  105 1    
    97   50   51 1    
    98   50   52 1    
    99   50  106 1    
   100   51  107 1    
   101   51  108 1    
   102   51  109 1    
   103   52   53 2    
   104   52   54 am   BACKBONE|DICT|INTERRES
   105   54   55 1    
   106   54  110 1    
   107   55   56 1    
   108   55   59 1    
   109   55  111 1    
   110   56   57 am   BACKBONE|DICT|INTERRES
   111   56   58 2    
   112   57  112 1    
   113   57  113 1    
   114   59   60 1    
   115   59  114 1    
   116   59  115 1    
   117   60   61 1    
   118   61  116 1    
   119   61  117 1    
@<TRIPOS>SUBSTRUCTURE
     1 UNK         1 GROUP             0       ****    0 ROOT    
