@<TRIPOS>MOLECULE
3R8
117   119    1
SMALL
USER_CHARGES


@<TRIPOS>ATOM
      1 CA         17.2884  -29.6744  -39.0072 C.3       0 UNK        -0.2013 
      2 C          18.4786  -29.0451  -39.7162 C.2       0 UNK         0.4866 
      3 O          19.2785  -28.3692  -39.0707 O.2       0 UNK        -0.5176 
      4 N          18.5995  -29.2843  -41.0298 N.am      1 UNK        -0.4884 
      5 CA         19.5970  -28.7109  -41.9435 C.3       1 UNK         0.0853 
      6 C6         21.0667  -28.9234  -41.4895 C.3       10 UNK        -0.0849 
      7 S7         22.2952  -28.6744  -42.8147 S.3       10 UNK        -0.2776 
      8 C8         22.6001  -30.3728  -43.4001 C.3       10 UNK         0.0316 
      9 C9         21.5261  -30.7887  -44.3899 C.ar      10 UNK        -0.0863 
     10 C10        20.6570  -31.8412  -44.1039 C.ar      10 UNK        -0.1009 
     11 C11        19.6238  -32.1679  -44.9856 C.ar      10 UNK        -0.0712 
     12 C12        19.4550  -31.4182  -46.1573 C.ar      10 UNK        -0.0894 
     13 C13        20.3408  -30.3784  -46.4693 C.ar      10 UNK        -0.0745 
     14 C14        21.3923  -30.0976  -45.5946 C.ar      10 UNK        -0.0972 
     15 C15        20.1879  -29.5785  -47.7593 C.3       10 UNK         0.0209 
     16 S16        19.3015  -27.9998  -47.5138 S.3       10 UNK        -0.2568 
     17 C17        20.6304  -26.8861  -46.9259 C.3       10 UNK        -0.0983 
     18 CA         20.1317  -25.6426  -46.1432 C.3       3 UNK         0.0876 
     19 N          19.1309  -26.0016  -45.1360 N.am      3 UNK        -0.4424 
     20 C          18.3619  -25.1513  -44.4424 C.2       2 UNK         0.4918 
     21 O          18.3243  -23.9378  -44.6443 O.2       2 UNK        -0.4875 
     22 CA         17.5197  -25.7585  -43.3012 C.3       2 UNK         0.0481 
     23 CB         16.0574  -25.9234  -43.7439 C.3       2 UNK        -0.1831 
     24 N          18.0261  -27.0491  -42.8114 N.am      2 UNK        -0.4498 
     25 C          19.2366  -27.2467  -42.2636 C.2       1 UNK         0.5027 
     26 O          20.0381  -26.3360  -42.0496 O.2       1 UNK        -0.4969 
     27 C          21.3430  -24.8894  -45.5358 C.2       3 UNK         0.5005 
     28 O          22.0537  -24.2112  -46.2787 O.2       3 UNK        -0.5279 
     29 N          21.5662  -25.0345  -44.2159 N.am      4 UNK        -0.4463 
     30 CA         22.6368  -24.4354  -43.4068 C.3       4 UNK         0.0283 
     31 CB         22.5184  -22.8965  -43.3836 C.3       4 UNK        -0.1875 
     32 C          24.0530  -24.9230  -43.7745 C.2       4 UNK         0.4949 
     33 O          25.0238  -24.1904  -43.5776 O.2       4 UNK        -0.5039 
     34 N          24.1538  -26.1550  -44.2902 N.am      5 UNK        -0.4663 
     35 CA         25.4177  -26.7956  -44.6664 C.3       5 UNK         0.0242 
     36 CB         25.1342  -27.8654  -45.7337 C.3       5 UNK        -0.1982 
     37 C          26.1604  -27.4155  -43.4682 C.2       5 UNK         0.5017 
     38 O          27.3856  -27.5312  -43.5141 O.2       5 UNK        -0.5012 
     39 N          25.4115  -27.8139  -42.4343 N.am      6 UNK        -0.4439 
     40 CA         25.8744  -28.4777  -41.2185 C.3       6 UNK         0.0297 
     41 CB         26.2648  -29.9441  -41.5188 C.3       6 UNK        -0.2006 
     42 C          24.7774  -28.3185  -40.1505 C.2       6 UNK         0.4892 
     43 O          24.3021  -27.1995  -39.9485 O.2       6 UNK        -0.5089 
     44 N          24.3788  -29.4190  -39.5030 N.am      7 UNK        -0.4243 
     45 CA         23.2834  -29.4959  -38.5411 C.3       7 UNK         0.0196 
     46 CB         23.8166  -29.2403  -37.1204 C.3       7 UNK        -0.2007 
     47 C          22.6417  -30.8851  -38.6487 C.2       7 UNK         0.5020 
     48 O          23.3460  -31.8438  -38.9752 O.2       7 UNK        -0.5147 
     49 N          21.3384  -30.9524  -38.3383 N.am      8 UNK        -0.4734 
     50 CA         20.4382  -32.1183  -38.3684 C.3       8 UNK         0.0238 
     51 CB         20.9793  -33.2824  -37.5135 C.3       8 UNK        -0.1912 
     52 C          20.0803  -32.5919  -39.7913 C.2       8 UNK         0.5038 
     53 O          20.8972  -32.5045  -40.7070 O.2       8 UNK        -0.5046 
     54 N          18.8520  -33.0970  -39.9460 N.am      9 UNK        -0.4200 
     55 CA         18.2768  -33.6045  -41.1975 C.3       9 UNK         0.0839 
     56 C          17.1145  -34.5677  -40.8493 C.2       9 UNK         0.5513 
     57 N          17.0055  -35.6955  -41.5370 N.am      9 UNK        -0.7519 
     58 O          16.3060  -34.2916  -39.9646 O.2       9 UNK        -0.4960 
     59 C59        17.8406  -32.4378  -42.1282 C.3       10 UNK        -0.0876 
     60 S60        17.2142  -32.9188  -43.7761 S.3       10 UNK        -0.2414 
     61 C61        18.7274  -33.3622  -44.6868 C.3       10 UNK         0.0169 
     62 H62        17.6083  -30.1563  -38.0842 H         1 UNK         0.0903 
     63 H63        16.5604  -28.9054  -38.7502 H         1 UNK         0.0903 
     64 H64        16.7899  -30.4226  -39.6225 H         1 UNK         0.0903 
     65 H65        17.8821  -29.8335  -41.4795 H         1 UNK         0.3096 
     66 H66        19.4802  -29.2576  -42.8811 H         1 UNK         0.1121 
     67 H67        21.1884  -29.9290  -41.0916 H         1 UNK         0.0849 
     68 H68        21.3184  -28.2449  -40.6742 H         1 UNK         0.0849 
     69 H69        23.5735  -30.4141  -43.8901 H         1 UNK         0.0865 
     70 H70        22.6542  -31.0592  -42.5530 H         1 UNK         0.0865 
     71 H71        20.7839  -32.4097  -43.1943 H         1 UNK         0.1346 
     72 H72        18.6493  -31.6608  -46.8367 H         1 UNK         0.1412 
     73 H73        22.1080  -29.3264  -45.8321 H         1 UNK         0.1426 
     74 H74        19.6402  -30.1697  -48.4946 H         1 UNK         0.0716 
     75 H75        21.1669  -29.3843  -48.2003 H         1 UNK         0.0716 
     76 H76        21.2154  -26.5739  -47.7931 H         1 UNK         0.0695 
     77 H77        21.3103  -27.4526  -46.2967 H         1 UNK         0.0695 
     78 H78        19.6516  -24.9631  -46.8507 H         1 UNK         0.0983 
     79 H79        19.0480  -26.9875  -44.9397 H         1 UNK         0.3095 
     80 H80        17.5476  -25.0551  -42.4666 H         1 UNK         0.0454 
     81 H81        15.6436  -24.9732  -44.0848 H         1 UNK         0.0851 
     82 H82        15.4292  -26.2702  -42.9232 H         1 UNK         0.0851 
     83 H83        15.9608  -26.6332  -44.5665 H         1 UNK         0.0851 
     84 H84        17.4151  -27.8432  -42.9357 H         1 UNK         0.2976 
     85 H85        20.9179  -25.6048  -43.6801 H         1 UNK         0.3116 
     86 H86        22.4636  -24.7874  -42.3886 H         1 UNK         0.0646 
     87 H87        22.7530  -22.4572  -44.3535 H         1 UNK         0.0847 
     88 H88        21.5131  -22.5803  -43.1054 H         1 UNK         0.0847 
     89 H89        23.2055  -22.4616  -42.6568 H         1 UNK         0.0847 
     90 H90        23.3091  -26.6973  -44.4017 H         1 UNK         0.3040 
     91 H91        26.0768  -26.0436  -45.1066 H         1 UNK         0.1015 
     92 H92        26.0593  -28.3383  -46.0663 H         1 UNK         0.0786 
     93 H93        24.6584  -27.4320  -46.6137 H         1 UNK         0.0786 
     94 H94        24.4846  -28.6540  -45.3541 H         1 UNK         0.0786 
     95 H95        24.4141  -27.6390  -42.4675 H         1 UNK         0.3172 
     96 H96        26.7552  -27.9492  -40.8489 H         1 UNK         0.0595 
     97 H97        25.4174  -30.5225  -41.8892 H         1 UNK         0.0839 
     98 H98        26.6518  -30.4432  -40.6296 H         1 UNK         0.0839 
     99 H99        27.0516  -29.9992  -42.2711 H         1 UNK         0.0839 
    100 H100       24.7688  -30.3190  -39.7547 H         1 UNK         0.2998 
    101 H101       22.5308  -28.7424  -38.7807 H         1 UNK         0.0822 
    102 H102       23.0140  -29.2995  -36.3843 H         1 UNK         0.0787 
    103 H103       24.5749  -29.9719  -36.8383 H         1 UNK         0.0787 
    104 H104       24.2606  -28.2482  -37.0367 H         1 UNK         0.0787 
    105 H105       20.8784  -30.0786  -38.1144 H         1 UNK         0.3055 
    106 H106       19.5148  -31.7747  -37.9000 H         1 UNK         0.1106 
    107 H107       21.2386  -32.9513  -36.5079 H         1 UNK         0.0828 
    108 H108       20.2329  -34.0711  -37.4117 H         1 UNK         0.0828 
    109 H109       21.8653  -33.7380  -37.9565 H         1 UNK         0.0828 
    110 H110       18.2388  -33.1916  -39.1469 H         1 UNK         0.2931 
    111 H111       19.0527  -34.1825  -41.7035 H         1 UNK         0.0412 
    112 H112       16.2502  -36.3287  -41.3248 H         1 UNK         0.3472 
    113 H113       17.6538  -35.9191  -42.2761 H         1 UNK         0.3472 
    114 H114       17.0534  -31.8604  -41.6422 H         1 UNK         0.0970 
    115 H115       18.6698  -31.7482  -42.2711 H         1 UNK         0.0970 
    116 H116       19.2791  -34.1185  -44.1269 H         1 UNK         0.0612 
    117 H117       18.4367  -33.8392  -45.6239 H         1 UNK         0.0612 
@<TRIPOS>BOND
     1    1    2 1    
     2    1   62 1    
     3    1   63 1    
     4    1   64 1    
     5    2    3 2    
     6    2    4 am   BACKBONE|DICT|INTERRES
     7    4    5 1    
     8    4   65 1    
     9    5    6 1    
    10    5   25 1    
    11    5   66 1    
    12    6    7 1    
    13    6   67 1    
    14    6   68 1    
    15    7    8 1    
    16    8    9 1    
    17    8   69 1    
    18    8   70 1    
    19    9   10 ar   
    20    9   14 ar   
    21   10   11 ar   
    22   10   71 1    
    23   11   12 ar   
    24   11   61 1    
    25   12   13 ar   
    26   12   72 1    
    27   13   14 ar   
    28   13   15 1    
    29   14   73 1    
    30   15   16 1    
    31   15   74 1    
    32   15   75 1    
    33   16   17 1    
    34   17   18 1    
    35   17   76 1    
    36   17   77 1    
    37   18   19 1    
    38   18   27 1    
    39   18   78 1    
    40   19   20 am   BACKBONE|DICT|INTERRES
    41   19   79 1    
    42   20   21 2    
    43   20   22 1    
    44   22   23 1    
    45   22   24 1    
    46   22   80 1    
    47   23   81 1    
    48   23   82 1    
    49   23   83 1    
    50   24   25 am   BACKBONE|DICT|INTERRES
    51   24   84 1    
    52   25   26 2    
    53   27   28 2    
    54   27   29 am   BACKBONE|DICT|INTERRES
    55   29   30 1    
    56   29   85 1    
    57   30   31 1    
    58   30   32 1    
    59   30   86 1    
    60   31   87 1    
    61   31   88 1    
    62   31   89 1    
    63   32   33 2    
    64   32   34 am   BACKBONE|DICT|INTERRES
    65   34   35 1    
    66   34   90 1    
    67   35   36 1    
    68   35   37 1    
    69   35   91 1    
    70   36   92 1    
    71   36   93 1    
    72   36   94 1    
    73   37   38 2    
    74   37   39 am   BACKBONE|DICT|INTERRES
    75   39   40 1    
    76   39   95 1    
    77   40   41 1    
    78   40   42 1    
    79   40   96 1    
    80   41   97 1    
    81   41   98 1    
    82   41   99 1    
    83   42   43 2    
    84   42   44 am   BACKBONE|DICT|INTERRES
    85   44   45 1    
    86   44  100 1    
    87   45   46 1    
    88   45   47 1    
    89   45  101 1    
    90   46  102 1    
    91   46  103 1    
    92   46  104 1    
    93   47   48 2    
    94   47   49 am   BACKBONE|DICT|INTERRES
    95   49   50 1    
    96   49  105 1    
    97   50   51 1    
    98   50   52 1    
    99   50  106 1    
   100   51  107 1    
   101   51  108 1    
   102   51  109 1    
   103   52   53 2    
   104   52   54 am   BACKBONE|DICT|INTERRES
   105   54   55 1    
   106   54  110 1    
   107   55   56 1    
   108   55   59 1    
   109   55  111 1    
   110   56   57 am   BACKBONE|DICT|INTERRES
   111   56   58 2    
   112   57  112 1    
   113   57  113 1    
   114   59   60 1    
   115   59  114 1    
   116   59  115 1    
   117   60   61 1    
   118   61  116 1    
   119   61  117 1    
@<TRIPOS>SUBSTRUCTURE
     1 UNK         1 GROUP             0       ****    0 ROOT    
