@<TRIPOS>MOLECULE
3R8
117   119    1
SMALL
USER_CHARGES


@<TRIPOS>ATOM
      1 CA         16.8183  -23.0779  -47.4908 C.3       0 UNK        -0.2013 
      2 C          17.7869  -24.2409  -47.3376 C.2       0 UNK         0.4866 
      3 O          18.8065  -24.2837  -48.0263 O.2       0 UNK        -0.5176 
      4 N          17.4766  -25.1859  -46.4403 N.am      1 UNK        -0.4884 
      5 CA         18.2850  -26.3830  -46.1731 C.3       1 UNK         0.0853 
      6 C6         17.5143  -27.4190  -45.3186 C.3       10 UNK        -0.0849 
      7 S7         16.0275  -28.0934  -46.1247 S.3       10 UNK        -0.2776 
      8 C8         15.2271  -28.9487  -44.7199 C.3       10 UNK         0.0316 
      9 C9         16.2002  -29.8065  -43.9154 C.ar      10 UNK        -0.0863 
     10 C10        16.8605  -30.8799  -44.5225 C.ar      10 UNK        -0.1009 
     11 C11        17.7865  -31.6380  -43.8027 C.ar      10 UNK        -0.0712 
     12 C12        18.0321  -31.3316  -42.4631 C.ar      10 UNK        -0.0894 
     13 C13        17.3882  -30.2610  -41.8378 C.ar      10 UNK        -0.0745 
     14 C14        16.4618  -29.5072  -42.5721 C.ar      10 UNK        -0.0972 
     15 C15        17.7318  -29.9699  -40.3741 C.3       10 UNK         0.0209 
     16 S16        17.3885  -28.2746  -39.7817 S.3       10 UNK        -0.2568 
     17 C17        18.4306  -27.1337  -40.7650 C.3       10 UNK        -0.0983 
     18 CA         19.6879  -27.6930  -41.4957 C.3       3 UNK         0.0876 
     19 N          20.1350  -26.7747  -42.5449 N.am      3 UNK        -0.4424 
     20 C          20.6144  -25.5311  -42.3954 C.2       2 UNK         0.4918 
     21 O          20.9509  -25.0583  -41.3094 O.2       2 UNK        -0.4875 
     22 CA         20.6458  -24.6248  -43.6487 C.3       2 UNK         0.0481 
     23 CB         22.0602  -24.4982  -44.2448 C.3       2 UNK        -0.1831 
     24 N          19.6447  -24.9862  -44.6689 N.am      2 UNK        -0.4498 
     25 C          19.6120  -26.0768  -45.4512 C.2       1 UNK         0.5027 
     26 O          20.5286  -26.8952  -45.5155 O.2       1 UNK        -0.4969 
     27 C          20.8655  -28.0886  -40.5857 C.2       3 UNK         0.5005 
     28 O          21.7601  -28.7978  -41.0493 O.2       3 UNK        -0.5279 
     29 N          20.8866  -27.6113  -39.3341 N.am      4 UNK        -0.4463 
     30 CA         21.9770  -27.8242  -38.3763 C.3       4 UNK         0.0283 
     31 CB         21.6089  -27.1842  -37.0292 C.3       4 UNK        -0.1875 
     32 C          23.3411  -27.3027  -38.8666 C.2       4 UNK         0.4949 
     33 O          24.3621  -27.9240  -38.5738 O.2       4 UNK        -0.5039 
     34 N          23.3379  -26.2160  -39.6536 N.am      5 UNK        -0.4663 
     35 CA         24.5362  -25.6625  -40.2945 C.3       5 UNK         0.0242 
     36 CB         24.2789  -24.1985  -40.6832 C.3       5 UNK        -0.1982 
     37 C          25.0259  -26.4887  -41.5013 C.2       5 UNK         0.5017 
     38 O          26.1686  -26.3063  -41.9206 O.2       5 UNK        -0.5012 
     39 N          24.1842  -27.3999  -42.0111 N.am      6 UNK        -0.4439 
     40 CA         24.5299  -28.4136  -43.0118 C.3       6 UNK         0.0297 
     41 CB         23.4129  -28.4830  -44.0708 C.3       6 UNK        -0.2006 
     42 C          24.7641  -29.7909  -42.3596 C.2       6 UNK         0.4892 
     43 O          24.7302  -30.7999  -43.0654 O.2       6 UNK        -0.5089 
     44 N          24.9583  -29.8232  -41.0292 N.am      7 UNK        -0.4243 
     45 CA         25.1415  -31.0107  -40.1837 C.3       7 UNK         0.0196 
     46 CB         26.5014  -31.6797  -40.4761 C.3       7 UNK        -0.2007 
     47 C          23.9601  -31.9975  -40.2680 C.2       7 UNK         0.5020 
     48 O          24.1682  -33.2116  -40.2364 O.2       7 UNK        -0.5147 
     49 N          22.7420  -31.4548  -40.4219 N.am      8 UNK        -0.4734 
     50 CA         21.4767  -32.1657  -40.6384 C.3       8 UNK         0.0238 
     51 CB         21.0435  -32.9191  -39.3639 C.3       8 UNK        -0.1912 
     52 C          21.4849  -33.0570  -41.8977 C.2       8 UNK         0.5038 
     53 O          20.8343  -34.1029  -41.9110 O.2       8 UNK        -0.5046 
     54 N          22.2254  -32.6187  -42.9248 N.am      9 UNK        -0.4200 
     55 CA         22.4721  -33.3179  -44.1958 C.3       9 UNK         0.0839 
     56 C          23.4169  -34.5518  -44.0699 C.2       9 UNK         0.5513 
     57 N          24.0963  -34.7666  -42.9482 N.am      9 UNK        -0.7519 
     58 O          23.5613  -35.3186  -45.0189 O.2       9 UNK        -0.4960 
     59 C59        21.1833  -33.6336  -45.0151 C.3       10 UNK        -0.0876 
     60 S60        20.0831  -32.1877  -45.2259 S.3       10 UNK        -0.2414 
     61 C61        18.5382  -32.7814  -44.4635 C.3       10 UNK         0.0169 
     62 H62        16.4471  -23.0318  -48.5143 H         1 UNK         0.0903 
     63 H63        15.9614  -23.1692  -46.8237 H         1 UNK         0.0903 
     64 H64        17.3225  -22.1377  -47.2686 H         1 UNK         0.0903 
     65 H65        16.6087  -25.1197  -45.9265 H         1 UNK         0.3096 
     66 H66        18.5416  -26.8424  -47.1306 H         1 UNK         0.1121 
     67 H67        17.2249  -26.9867  -44.3580 H         1 UNK         0.0849 
     68 H68        18.1596  -28.2703  -45.0880 H         1 UNK         0.0849 
     69 H69        14.7535  -28.2016  -44.0811 H         1 UNK         0.0865 
     70 H70        14.4218  -29.5792  -45.0993 H         1 UNK         0.0865 
     71 H71        16.6725  -31.1070  -45.5632 H         1 UNK         0.1346 
     72 H72        18.7362  -31.9330  -41.9076 H         1 UNK         0.1412 
     73 H73        15.9480  -28.6786  -42.1055 H         1 UNK         0.1426 
     74 H74        17.1569  -30.6597  -39.7550 H         1 UNK         0.0716 
     75 H75        18.7794  -30.1970  -40.1770 H         1 UNK         0.0716 
     76 H76        18.6882  -26.2796  -40.1366 H         1 UNK         0.0695 
     77 H77        17.7561  -26.7217  -41.5177 H         1 UNK         0.0695 
     78 H78        19.4115  -28.5965  -42.0347 H         1 UNK         0.0983 
     79 H79        20.0187  -27.1025  -43.4952 H         1 UNK         0.3095 
     80 H80        20.3545  -23.6306  -43.3067 H         1 UNK         0.0454 
     81 H81        22.0613  -23.8553  -45.1248 H         1 UNK         0.0851 
     82 H82        22.4725  -25.4612  -44.5365 H         1 UNK         0.0851 
     83 H83        22.7499  -24.0572  -43.5270 H         1 UNK         0.0851 
     84 H84        18.8220  -24.3989  -44.6850 H         1 UNK         0.2976 
     85 H85        20.1177  -27.0307  -39.0303 H         1 UNK         0.3116 
     86 H86        22.0747  -28.9017  -38.2269 H         1 UNK         0.0646 
     87 H87        20.6918  -27.6113  -36.6231 H         1 UNK         0.0847 
     88 H88        22.3951  -27.3502  -36.2911 H         1 UNK         0.0847 
     89 H89        21.4684  -26.1062  -37.1180 H         1 UNK         0.0847 
     90 H90        22.4524  -25.7798  -39.8880 H         1 UNK         0.3040 
     91 H91        25.3483  -25.6711  -39.5635 H         1 UNK         0.1015 
     92 H92        23.4345  -24.1017  -41.3623 H         1 UNK         0.0786 
     93 H93        25.1488  -23.7627  -41.1768 H         1 UNK         0.0786 
     94 H94        24.0685  -23.5892  -39.8040 H         1 UNK         0.0786 
     95 H95        23.2769  -27.5216  -41.5735 H         1 UNK         0.3172 
     96 H96        25.4573  -28.1434  -43.5200 H         1 UNK         0.0595 
     97 H97        22.4477  -28.7386  -43.6331 H         1 UNK         0.0839 
     98 H98        23.6320  -29.2334  -44.8314 H         1 UNK         0.0839 
     99 H99        23.3046  -27.5354  -44.5937 H         1 UNK         0.0839 
    100 H100       24.9353  -28.9444  -40.5274 H         1 UNK         0.2998 
    101 H101       25.1623  -30.6527  -39.1532 H         1 UNK         0.0822 
    102 H102       26.7035  -32.4828  -39.7662 H         1 UNK         0.0787 
    103 H103       26.5313  -32.1148  -41.4757 H         1 UNK         0.0787 
    104 H104       27.3204  -30.9651  -40.3963 H         1 UNK         0.0787 
    105 H105       22.6747  -30.4430  -40.5023 H         1 UNK         0.3055 
    106 H106       20.7364  -31.3905  -40.8315 H         1 UNK         0.1106 
    107 H107       21.0224  -32.2560  -38.4991 H         1 UNK         0.0828 
    108 H108       20.0415  -33.3353  -39.4756 H         1 UNK         0.0828 
    109 H109       21.7155  -33.7472  -39.1365 H         1 UNK         0.0828 
    110 H110       22.7786  -31.7810  -42.7939 H         1 UNK         0.2931 
    111 H111       23.0454  -32.6012  -44.7851 H         1 UNK         0.0412 
    112 H112       24.7098  -35.5638  -42.8913 H         1 UNK         0.3472 
    113 H113       23.9999  -34.1490  -42.1511 H         1 UNK         0.3472 
    114 H114       20.6389  -34.4621  -44.5602 H         1 UNK         0.0970 
    115 H115       21.4544  -33.9793  -46.0141 H         1 UNK         0.0970 
    116 H116       18.7502  -33.5486  -43.7178 H         1 UNK         0.0612 
    117 H117       17.9196  -33.2563  -45.2263 H         1 UNK         0.0612 
@<TRIPOS>BOND
     1    1    2 1    
     2    1   62 1    
     3    1   63 1    
     4    1   64 1    
     5    2    3 2    
     6    2    4 am   BACKBONE|DICT|INTERRES
     7    4    5 1    
     8    4   65 1    
     9    5    6 1    
    10    5   25 1    
    11    5   66 1    
    12    6    7 1    
    13    6   67 1    
    14    6   68 1    
    15    7    8 1    
    16    8    9 1    
    17    8   69 1    
    18    8   70 1    
    19    9   10 ar   
    20    9   14 ar   
    21   10   11 ar   
    22   10   71 1    
    23   11   12 ar   
    24   11   61 1    
    25   12   13 ar   
    26   12   72 1    
    27   13   14 ar   
    28   13   15 1    
    29   14   73 1    
    30   15   16 1    
    31   15   74 1    
    32   15   75 1    
    33   16   17 1    
    34   17   18 1    
    35   17   76 1    
    36   17   77 1    
    37   18   19 1    
    38   18   27 1    
    39   18   78 1    
    40   19   20 am   BACKBONE|DICT|INTERRES
    41   19   79 1    
    42   20   21 2    
    43   20   22 1    
    44   22   23 1    
    45   22   24 1    
    46   22   80 1    
    47   23   81 1    
    48   23   82 1    
    49   23   83 1    
    50   24   25 am   BACKBONE|DICT|INTERRES
    51   24   84 1    
    52   25   26 2    
    53   27   28 2    
    54   27   29 am   BACKBONE|DICT|INTERRES
    55   29   30 1    
    56   29   85 1    
    57   30   31 1    
    58   30   32 1    
    59   30   86 1    
    60   31   87 1    
    61   31   88 1    
    62   31   89 1    
    63   32   33 2    
    64   32   34 am   BACKBONE|DICT|INTERRES
    65   34   35 1    
    66   34   90 1    
    67   35   36 1    
    68   35   37 1    
    69   35   91 1    
    70   36   92 1    
    71   36   93 1    
    72   36   94 1    
    73   37   38 2    
    74   37   39 am   BACKBONE|DICT|INTERRES
    75   39   40 1    
    76   39   95 1    
    77   40   41 1    
    78   40   42 1    
    79   40   96 1    
    80   41   97 1    
    81   41   98 1    
    82   41   99 1    
    83   42   43 2    
    84   42   44 am   BACKBONE|DICT|INTERRES
    85   44   45 1    
    86   44  100 1    
    87   45   46 1    
    88   45   47 1    
    89   45  101 1    
    90   46  102 1    
    91   46  103 1    
    92   46  104 1    
    93   47   48 2    
    94   47   49 am   BACKBONE|DICT|INTERRES
    95   49   50 1    
    96   49  105 1    
    97   50   51 1    
    98   50   52 1    
    99   50  106 1    
   100   51  107 1    
   101   51  108 1    
   102   51  109 1    
   103   52   53 2    
   104   52   54 am   BACKBONE|DICT|INTERRES
   105   54   55 1    
   106   54  110 1    
   107   55   56 1    
   108   55   59 1    
   109   55  111 1    
   110   56   57 am   BACKBONE|DICT|INTERRES
   111   56   58 2    
   112   57  112 1    
   113   57  113 1    
   114   59   60 1    
   115   59  114 1    
   116   59  115 1    
   117   60   61 1    
   118   61  116 1    
   119   61  117 1    
@<TRIPOS>SUBSTRUCTURE
     1 UNK         1 GROUP             0       ****    0 ROOT    
