@<TRIPOS>MOLECULE
3R8
117   119    1
SMALL
USER_CHARGES


@<TRIPOS>ATOM
      1 CA         16.7018  -24.7202  -40.8183 C.3       0 UNK        -0.2013 
      2 C          16.9269  -26.2206  -40.6484 C.2       0 UNK         0.4866 
      3 O          17.0228  -26.6926  -39.5167 O.2       0 UNK        -0.5176 
      4 N          16.9982  -27.0179  -41.7228 N.am      1 UNK        -0.4884 
      5 CA         16.9353  -26.6310  -43.1377 C.3       1 UNK         0.0853 
      6 C6         16.7343  -27.8637  -44.0502 C.3       10 UNK        -0.0849 
      7 S7         15.2389  -28.8300  -43.6447 S.3       10 UNK        -0.2776 
      8 C8         15.0918  -29.9072  -45.1122 C.3       10 UNK         0.0316 
      9 C9         16.4211  -30.5532  -45.4784 C.ar      10 UNK        -0.0863 
     10 C10        17.0247  -31.4618  -44.6048 C.ar      10 UNK        -0.1009 
     11 C11        18.2884  -31.9859  -44.8892 C.ar      10 UNK        -0.0712 
     12 C12        18.9340  -31.6218  -46.0749 C.ar      10 UNK        -0.0894 
     13 C13        18.3378  -30.7172  -46.9586 C.ar      10 UNK        -0.0745 
     14 C14        17.0765  -30.1942  -46.6602 C.ar      10 UNK        -0.0972 
     15 C15        19.0691  -30.2780  -48.2194 C.3       10 UNK         0.0209 
     16 S16        19.6173  -28.5418  -48.1220 S.3       10 UNK        -0.2568 
     17 C17        20.8021  -28.6113  -46.7367 C.3       10 UNK        -0.0983 
     18 CA         21.3332  -27.2140  -46.3323 C.3       3 UNK         0.0876 
     19 N          20.2460  -26.2950  -45.9762 N.am      3 UNK        -0.4424 
     20 C          20.3855  -24.9876  -45.7149 C.2       2 UNK         0.4918 
     21 O          21.4468  -24.3758  -45.8372 O.2       2 UNK        -0.4875 
     22 CA         19.1398  -24.2280  -45.2146 C.3       2 UNK         0.0481 
     23 CB         18.5451  -23.3789  -46.3498 C.3       2 UNK        -0.1831 
     24 N          18.0788  -25.0657  -44.6364 N.am      2 UNK        -0.4498 
     25 C          18.2079  -25.8777  -43.5762 C.2       1 UNK         0.5027 
     26 O          19.2767  -26.0803  -42.9946 O.2       1 UNK        -0.4969 
     27 C          22.3747  -27.3602  -45.2011 C.2       3 UNK         0.5005 
     28 O          23.5581  -27.5384  -45.4963 O.2       3 UNK        -0.5279 
     29 N          21.9167  -27.2776  -43.9399 N.am      4 UNK        -0.4463 
     30 CA         22.6547  -27.3741  -42.6739 C.3       4 UNK         0.0283 
     31 CB         23.6471  -26.2069  -42.5118 C.3       4 UNK        -0.1875 
     32 C          23.3420  -28.7275  -42.4222 C.2       4 UNK         0.4949 
     33 O          23.0788  -29.3441  -41.3918 O.2       4 UNK        -0.5039 
     34 N          24.2197  -29.1537  -43.3407 N.am      5 UNK        -0.4663 
     35 CA         25.0186  -30.3877  -43.3139 C.3       5 UNK         0.0242 
     36 CB         24.1119  -31.6091  -43.5660 C.3       5 UNK        -0.1982 
     37 C          25.8560  -30.5259  -42.0262 C.2       5 UNK         0.5017 
     38 O          25.8007  -31.5606  -41.3617 O.2       5 UNK        -0.5012 
     39 N          26.5725  -29.4477  -41.6710 N.am      6 UNK        -0.4439 
     40 CA         27.3370  -29.2730  -40.4256 C.3       6 UNK         0.0297 
     41 CB         28.5408  -30.2385  -40.3705 C.3       6 UNK        -0.2006 
     42 C          26.4469  -29.3430  -39.1650 C.2       6 UNK         0.4892 
     43 O          26.8488  -29.9179  -38.1523 O.2       6 UNK        -0.5089 
     44 N          25.2482  -28.7505  -39.2724 N.am      7 UNK        -0.4243 
     45 CA         24.1719  -28.6826  -38.2761 C.3       7 UNK         0.0196 
     46 CB         24.6347  -27.9571  -36.9940 C.3       7 UNK        -0.2007 
     47 C          23.4885  -30.0347  -37.9860 C.2       7 UNK         0.5020 
     48 O          22.8219  -30.1632  -36.9576 O.2       7 UNK        -0.5147 
     49 N          23.6268  -31.0122  -38.8930 N.am      8 UNK        -0.4734 
     50 CA         22.9004  -32.2838  -38.8401 C.3       8 UNK         0.0238 
     51 CB         23.6457  -33.3426  -39.6672 C.3       8 UNK        -0.1912 
     52 C          21.4486  -32.1452  -39.3296 C.2       8 UNK         0.5038 
     53 O          20.5820  -32.8683  -38.8359 O.2       8 UNK        -0.5046 
     54 N          21.2116  -31.2306  -40.2775 N.am      9 UNK        -0.4200 
     55 CA         19.8902  -30.8946  -40.8195 C.3       9 UNK         0.0839 
     56 C          19.3465  -29.6116  -40.1421 C.2       9 UNK         0.5513 
     57 N          18.0392  -29.5244  -39.9387 N.am      9 UNK        -0.7519 
     58 O          20.0877  -28.6792  -39.8393 O.2       9 UNK        -0.4960 
     59 C59        19.9301  -30.7158  -42.3588 C.3       10 UNK        -0.0876 
     60 S60        20.5111  -32.2117  -43.2334 S.3       10 UNK        -0.2414 
     61 C61        18.9683  -32.9183  -43.8967 C.3       10 UNK         0.0169 
     62 H62        16.4736  -24.2610  -39.8566 H         1 UNK         0.0903 
     63 H63        17.5967  -24.2377  -41.2100 H         1 UNK         0.0903 
     64 H64        15.8652  -24.5129  -41.4840 H         1 UNK         0.0903 
     65 H65        17.1587  -28.0028  -41.5669 H         1 UNK         0.3096 
     66 H66        16.0787  -25.9680  -43.2730 H         1 UNK         0.1121 
     67 H67        16.6612  -27.5588  -45.0963 H         1 UNK         0.0849 
     68 H68        17.5988  -28.5283  -43.9839 H         1 UNK         0.0849 
     69 H69        14.3518  -30.6840  -44.9147 H         1 UNK         0.0865 
     70 H70        14.7039  -29.3190  -45.9454 H         1 UNK         0.0865 
     71 H71        16.5248  -31.7255  -43.6826 H         1 UNK         0.1346 
     72 H72        19.9166  -32.0195  -46.2897 H         1 UNK         0.1412 
     73 H73        16.6246  -29.4797  -47.3351 H         1 UNK         0.1426 
     74 H74        18.4055  -30.3919  -49.0777 H         1 UNK         0.0716 
     75 H75        19.9328  -30.9163  -48.4125 H         1 UNK         0.0716 
     76 H76        21.6257  -29.2650  -47.0315 H         1 UNK         0.0695 
     77 H77        20.3185  -29.0898  -45.8829 H         1 UNK         0.0695 
     78 H78        21.8537  -26.7841  -47.1910 H         1 UNK         0.0983 
     79 H79        19.3273  -26.7038  -45.9032 H         1 UNK         0.3095 
     80 H80        19.4776  -23.5508  -44.4275 H         1 UNK         0.0454 
     81 H81        19.2988  -22.7179  -46.7805 H         1 UNK         0.0851 
     82 H82        17.7330  -22.7461  -45.9916 H         1 UNK         0.0851 
     83 H83        18.1580  -23.9999  -47.1586 H         1 UNK         0.0851 
     84 H84        17.1694  -24.9776  -45.0684 H         1 UNK         0.2976 
     85 H85        20.9279  -27.0821  -43.8203 H         1 UNK         0.3116 
     86 H86        21.8984  -27.2639  -41.8941 H         1 UNK         0.0646 
     87 H87        24.4342  -26.2270  -43.2659 H         1 UNK         0.0847 
     88 H88        23.1381  -25.2460  -42.5891 H         1 UNK         0.0847 
     89 H89        24.1307  -26.2377  -41.5347 H         1 UNK         0.0847 
     90 H90        24.3049  -28.5784  -44.1777 H         1 UNK         0.3040 
     91 H91        25.7285  -30.3244  -44.1402 H         1 UNK         0.1015 
     92 H92        24.6989  -32.5242  -43.6520 H         1 UNK         0.0786 
     93 H93        23.5428  -31.4990  -44.4891 H         1 UNK         0.0786 
     94 H94        23.4018  -31.7534  -42.7519 H         1 UNK         0.0786 
     95 H95        26.5436  -28.6459  -42.2865 H         1 UNK         0.3172 
     96 H96        27.7360  -28.2579  -40.4542 H         1 UNK         0.0595 
     97 H97        28.2250  -31.2775  -40.2721 H         1 UNK         0.0839 
     98 H98        29.1817  -30.0142  -39.5169 H         1 UNK         0.0839 
     99 H99        29.1567  -30.1579  -41.2660 H         1 UNK         0.0839 
    100 H100       25.0089  -28.3651  -40.1746 H         1 UNK         0.2998 
    101 H101       23.3955  -28.0660  -38.7324 H         1 UNK         0.0822 
    102 H102       23.7907  -27.7526  -36.3341 H         1 UNK         0.0787 
    103 H103       25.1011  -26.9995  -37.2253 H         1 UNK         0.0787 
    104 H104       25.3504  -28.5524  -36.4265 H         1 UNK         0.0787 
    105 H105       24.1767  -30.8305  -39.7240 H         1 UNK         0.3055 
    106 H106       22.8693  -32.6262  -37.8032 H         1 UNK         0.1106 
    107 H107       24.6780  -33.4540  -39.3349 H         1 UNK         0.0828 
    108 H108       23.1658  -34.3176  -39.5735 H         1 UNK         0.0828 
    109 H109       23.6609  -33.0899  -40.7276 H         1 UNK         0.0828 
    110 H110       21.9710  -30.6295  -40.5881 H         1 UNK         0.2931 
    111 H111       19.1951  -31.7089  -40.6047 H         1 UNK         0.0412 
    112 H112       17.6756  -28.6773  -39.5169 H         1 UNK         0.3472 
    113 H113       17.4197  -30.2901  -40.1540 H         1 UNK         0.3472 
    114 H114       18.9444  -30.4357  -42.7317 H         1 UNK         0.0970 
    115 H115       20.5916  -29.8923  -42.6308 H         1 UNK         0.0970 
    116 H116       19.1977  -33.8616  -44.3938 H         1 UNK         0.0612 
    117 H117       18.3046  -33.1596  -43.0649 H         1 UNK         0.0612 
@<TRIPOS>BOND
     1    1    2 1    
     2    1   62 1    
     3    1   63 1    
     4    1   64 1    
     5    2    3 2    
     6    2    4 am   BACKBONE|DICT|INTERRES
     7    4    5 1    
     8    4   65 1    
     9    5    6 1    
    10    5   25 1    
    11    5   66 1    
    12    6    7 1    
    13    6   67 1    
    14    6   68 1    
    15    7    8 1    
    16    8    9 1    
    17    8   69 1    
    18    8   70 1    
    19    9   10 ar   
    20    9   14 ar   
    21   10   11 ar   
    22   10   71 1    
    23   11   12 ar   
    24   11   61 1    
    25   12   13 ar   
    26   12   72 1    
    27   13   14 ar   
    28   13   15 1    
    29   14   73 1    
    30   15   16 1    
    31   15   74 1    
    32   15   75 1    
    33   16   17 1    
    34   17   18 1    
    35   17   76 1    
    36   17   77 1    
    37   18   19 1    
    38   18   27 1    
    39   18   78 1    
    40   19   20 am   BACKBONE|DICT|INTERRES
    41   19   79 1    
    42   20   21 2    
    43   20   22 1    
    44   22   23 1    
    45   22   24 1    
    46   22   80 1    
    47   23   81 1    
    48   23   82 1    
    49   23   83 1    
    50   24   25 am   BACKBONE|DICT|INTERRES
    51   24   84 1    
    52   25   26 2    
    53   27   28 2    
    54   27   29 am   BACKBONE|DICT|INTERRES
    55   29   30 1    
    56   29   85 1    
    57   30   31 1    
    58   30   32 1    
    59   30   86 1    
    60   31   87 1    
    61   31   88 1    
    62   31   89 1    
    63   32   33 2    
    64   32   34 am   BACKBONE|DICT|INTERRES
    65   34   35 1    
    66   34   90 1    
    67   35   36 1    
    68   35   37 1    
    69   35   91 1    
    70   36   92 1    
    71   36   93 1    
    72   36   94 1    
    73   37   38 2    
    74   37   39 am   BACKBONE|DICT|INTERRES
    75   39   40 1    
    76   39   95 1    
    77   40   41 1    
    78   40   42 1    
    79   40   96 1    
    80   41   97 1    
    81   41   98 1    
    82   41   99 1    
    83   42   43 2    
    84   42   44 am   BACKBONE|DICT|INTERRES
    85   44   45 1    
    86   44  100 1    
    87   45   46 1    
    88   45   47 1    
    89   45  101 1    
    90   46  102 1    
    91   46  103 1    
    92   46  104 1    
    93   47   48 2    
    94   47   49 am   BACKBONE|DICT|INTERRES
    95   49   50 1    
    96   49  105 1    
    97   50   51 1    
    98   50   52 1    
    99   50  106 1    
   100   51  107 1    
   101   51  108 1    
   102   51  109 1    
   103   52   53 2    
   104   52   54 am   BACKBONE|DICT|INTERRES
   105   54   55 1    
   106   54  110 1    
   107   55   56 1    
   108   55   59 1    
   109   55  111 1    
   110   56   57 am   BACKBONE|DICT|INTERRES
   111   56   58 2    
   112   57  112 1    
   113   57  113 1    
   114   59   60 1    
   115   59  114 1    
   116   59  115 1    
   117   60   61 1    
   118   61  116 1    
   119   61  117 1    
@<TRIPOS>SUBSTRUCTURE
     1 UNK         1 GROUP             0       ****    0 ROOT    
