@<TRIPOS>MOLECULE
3R8
117   119    1
SMALL
USER_CHARGES


@<TRIPOS>ATOM
      1 CA         16.6122  -25.4690  -49.5066 C.3       0 UNK        -0.2013 
      2 C          17.6641  -25.9892  -48.5381 C.2       0 UNK         0.4866 
      3 O          18.8404  -25.6497  -48.6722 O.2       0 UNK        -0.5176 
      4 N          17.2517  -26.8171  -47.5706 N.am      1 UNK        -0.4884 
      5 CA         18.1140  -27.3766  -46.5244 C.3       1 UNK         0.0853 
      6 C6         17.4154  -28.5242  -45.7629 C.3       10 UNK        -0.0849 
      7 S7         17.0685  -29.9875  -46.7983 S.3       10 UNK        -0.2776 
      8 C8         15.9626  -30.9568  -45.7113 C.3       10 UNK         0.0316 
      9 C9         16.4637  -30.9824  -44.2738 C.ar      10 UNK        -0.0863 
     10 C10        17.5730  -31.7556  -43.9253 C.ar      10 UNK        -0.1009 
     11 C11        18.1193  -31.6757  -42.6396 C.ar      10 UNK        -0.0712 
     12 C12        17.5231  -30.8404  -41.6883 C.ar      10 UNK        -0.0894 
     13 C13        16.3957  -30.0834  -42.0211 C.ar      10 UNK        -0.0745 
     14 C14        15.8654  -30.1667  -43.3106 C.ar      10 UNK        -0.0972 
     15 C15        15.7517  -29.1503  -41.0096 C.3       10 UNK         0.0209 
     16 S16        16.2671  -27.4268  -41.2960 S.3       10 UNK        -0.2568 
     17 C17        17.6356  -27.2243  -40.1078 C.3       10 UNK        -0.0983 
     18 CA         19.0469  -27.4060  -40.7206 C.3       3 UNK         0.0876 
     19 N          19.2514  -26.5756  -41.9218 N.am      3 UNK        -0.4424 
     20 C          20.3937  -26.4576  -42.6138 C.2       2 UNK         0.4918 
     21 O          21.4525  -26.9827  -42.2730 O.2       2 UNK        -0.4875 
     22 CA         20.3365  -25.6367  -43.9084 C.3       2 UNK         0.0481 
     23 CB         21.7337  -25.1706  -44.3586 C.3       2 UNK        -0.1831 
     24 N          19.7586  -26.4710  -44.9583 N.am      2 UNK        -0.4498 
     25 C          18.5559  -26.2956  -45.5158 C.2       1 UNK         0.5027 
     26 O          17.7900  -25.3721  -45.2260 O.2       1 UNK        -0.4969 
     27 C          20.1057  -27.1913  -39.6149 C.2       3 UNK         0.5005 
     28 O          20.5203  -28.1555  -38.9694 O.2       3 UNK        -0.5279 
     29 N          20.5491  -25.9362  -39.4459 N.am      4 UNK        -0.4463 
     30 CA         21.5735  -25.5082  -38.4880 C.3       4 UNK         0.0283 
     31 CB         21.6706  -23.9742  -38.5121 C.3       4 UNK        -0.1875 
     32 C          22.9647  -26.1340  -38.7080 C.2       4 UNK         0.4949 
     33 O          23.7575  -26.1610  -37.7667 O.2       4 UNK        -0.5039 
     34 N          23.2407  -26.6374  -39.9203 N.am      5 UNK        -0.4663 
     35 CA         24.4757  -27.3506  -40.2580 C.3       5 UNK         0.0242 
     36 CB         24.7652  -27.1728  -41.7559 C.3       5 UNK        -0.1982 
     37 C          24.4520  -28.8391  -39.8528 C.2       5 UNK         0.5017 
     38 O          25.4554  -29.5236  -40.0619 O.2       5 UNK        -0.5012 
     39 N          23.3377  -29.3124  -39.2687 N.am      6 UNK        -0.4439 
     40 CA         23.1332  -30.6390  -38.6783 C.3       6 UNK         0.0297 
     41 CB         23.9662  -30.7889  -37.3849 C.3       6 UNK        -0.2006 
     42 C          23.3541  -31.7705  -39.6967 C.2       6 UNK         0.4892 
     43 O          22.4892  -31.9870  -40.5420 O.2       6 UNK        -0.5089 
     44 N          24.4968  -32.4646  -39.6124 N.am      7 UNK        -0.4243 
     45 CA         24.8926  -33.5331  -40.5337 C.3       7 UNK         0.0196 
     46 CB         26.0923  -34.2884  -39.9391 C.3       7 UNK        -0.2007 
     47 C          25.2219  -33.0360  -41.9541 C.2       7 UNK         0.5020 
     48 O          25.1493  -33.8266  -42.8947 O.2       7 UNK        -0.5147 
     49 N          25.5726  -31.7506  -42.0932 N.am      8 UNK        -0.4734 
     50 CA         25.9180  -31.1027  -43.3610 C.3       8 UNK         0.0238 
     51 CB         27.2298  -30.3184  -43.1689 C.3       8 UNK        -0.1912 
     52 C          24.7708  -30.2114  -43.8745 C.2       8 UNK         0.5038 
     53 O          25.0355  -29.1960  -44.5194 O.2       8 UNK        -0.5046 
     54 N          23.5217  -30.5896  -43.5704 N.am      9 UNK        -0.4200 
     55 CA         22.2948  -29.8527  -43.9157 C.3       9 UNK         0.0839 
     56 C          21.9770  -29.6814  -45.4287 C.2       9 UNK         0.5513 
     57 N          22.5898  -30.4387  -46.3300 N.am      9 UNK        -0.7519 
     58 O          21.1648  -28.8305  -45.7843 O.2       9 UNK        -0.4960 
     59 C59        21.0683  -30.3852  -43.1314 C.3       10 UNK        -0.0876 
     60 S60        20.7424  -32.1577  -43.4397 S.3       10 UNK        -0.2414 
     61 C61        19.3674  -32.4742  -42.2869 C.3       10 UNK         0.0169 
     62 H62        16.8672  -25.7549  -50.5267 H         1 UNK         0.0903 
     63 H63        15.6207  -25.8623  -49.2825 H         1 UNK         0.0903 
     64 H64        16.5641  -24.3814  -49.4590 H         1 UNK         0.0903 
     65 H65        16.2733  -27.0578  -47.5028 H         1 UNK         0.3096 
     66 H66        19.0089  -27.7741  -47.0093 H         1 UNK         0.1121 
     67 H67        16.4829  -28.1719  -45.3174 H         1 UNK         0.0849 
     68 H68        18.0454  -28.8590  -44.9353 H         1 UNK         0.0849 
     69 H69        14.9576  -30.5346  -45.7595 H         1 UNK         0.0865 
     70 H70        15.8844  -31.9756  -46.0936 H         1 UNK         0.0865 
     71 H71        18.0448  -32.3801  -44.6718 H         1 UNK         0.1346 
     72 H72        17.9422  -30.7696  -40.6938 H         1 UNK         0.1412 
     73 H73        15.0114  -29.5577  -43.5749 H         1 UNK         0.1426 
     74 H74        15.9770  -29.4630  -39.9893 H         1 UNK         0.0716 
     75 H75        14.6665  -29.2087  -41.1068 H         1 UNK         0.0716 
     76 H76        17.5372  -26.2228  -39.6841 H         1 UNK         0.0695 
     77 H77        17.4903  -27.9117  -39.2723 H         1 UNK         0.0695 
     78 H78        19.1441  -28.4429  -41.0474 H         1 UNK         0.0983 
     79 H79        18.4199  -26.1317  -42.2864 H         1 UNK         0.3095 
     80 H80        19.7266  -24.7504  -43.7226 H         1 UNK         0.0454 
     81 H81        22.2163  -24.5754  -43.5823 H         1 UNK         0.0851 
     82 H82        22.3919  -26.0122  -44.5808 H         1 UNK         0.0851 
     83 H83        21.6733  -24.5506  -45.2529 H         1 UNK         0.0851 
     84 H84        20.3049  -27.2876  -45.2301 H         1 UNK         0.2976 
     85 H85        20.1568  -25.2171  -40.0366 H         1 UNK         0.3116 
     86 H86        21.2385  -25.8137  -37.4945 H         1 UNK         0.0646 
     87 H87        22.4016  -23.6174  -37.7849 H         1 UNK         0.0847 
     88 H88        20.7169  -23.5097  -38.2612 H         1 UNK         0.0847 
     89 H89        21.9796  -23.6045  -39.4908 H         1 UNK         0.0847 
     90 H90        22.5304  -26.6052  -40.6466 H         1 UNK         0.3040 
     91 H91        25.3035  -26.8956  -39.7094 H         1 UNK         0.1015 
     92 H92        24.8132  -26.1188  -42.0294 H         1 UNK         0.0786 
     93 H93        24.0003  -27.6412  -42.3715 H         1 UNK         0.0786 
     94 H94        25.7213  -27.6196  -42.0283 H         1 UNK         0.0786 
     95 H95        22.5390  -28.6899  -39.1992 H         1 UNK         0.3172 
     96 H96        22.0804  -30.6864  -38.3952 H         1 UNK         0.0595 
     97 H97        23.6717  -30.0428  -36.6467 H         1 UNK         0.0839 
     98 H98        25.0359  -30.6684  -37.5589 H         1 UNK         0.0839 
     99 H99        23.8110  -31.7670  -36.9273 H         1 UNK         0.0839 
    100 H100       25.1659  -32.1994  -38.9042 H         1 UNK         0.2998 
    101 H101       24.0564  -34.2305  -40.6199 H         1 UNK         0.0822 
    102 H102       25.8505  -34.7156  -38.9657 H         1 UNK         0.0787 
    103 H103       26.3942  -35.1130  -40.5867 H         1 UNK         0.0787 
    104 H104       26.9586  -33.6369  -39.8160 H         1 UNK         0.0787 
    105 H105       25.5652  -31.1487  -41.2738 H         1 UNK         0.3055 
    106 H106       26.0932  -31.8533  -44.1349 H         1 UNK         0.1106 
    107 H107       27.1229  -29.5306  -42.4231 H         1 UNK         0.0828 
    108 H108       28.0375  -30.9749  -42.8454 H         1 UNK         0.0828 
    109 H109       27.5522  -29.8494  -44.0994 H         1 UNK         0.0828 
    110 H110       23.3857  -31.4372  -43.0371 H         1 UNK         0.2931 
    111 H111       22.4707  -28.8379  -43.5680 H         1 UNK         0.0412 
    112 H112       22.3782  -30.3121  -47.3069 H         1 UNK         0.3472 
    113 H113       23.2539  -31.1384  -46.0416 H         1 UNK         0.3472 
    114 H114       20.1739  -29.8075  -43.3735 H         1 UNK         0.0970 
    115 H115       21.2278  -30.2383  -42.0623 H         1 UNK         0.0970 
    116 H116       19.7023  -32.2536  -41.2719 H         1 UNK         0.0612 
    117 H117       19.1256  -33.5374  -42.3107 H         1 UNK         0.0612 
@<TRIPOS>BOND
     1    1    2 1    
     2    1   62 1    
     3    1   63 1    
     4    1   64 1    
     5    2    3 2    
     6    2    4 am   BACKBONE|DICT|INTERRES
     7    4    5 1    
     8    4   65 1    
     9    5    6 1    
    10    5   25 1    
    11    5   66 1    
    12    6    7 1    
    13    6   67 1    
    14    6   68 1    
    15    7    8 1    
    16    8    9 1    
    17    8   69 1    
    18    8   70 1    
    19    9   10 ar   
    20    9   14 ar   
    21   10   11 ar   
    22   10   71 1    
    23   11   12 ar   
    24   11   61 1    
    25   12   13 ar   
    26   12   72 1    
    27   13   14 ar   
    28   13   15 1    
    29   14   73 1    
    30   15   16 1    
    31   15   74 1    
    32   15   75 1    
    33   16   17 1    
    34   17   18 1    
    35   17   76 1    
    36   17   77 1    
    37   18   19 1    
    38   18   27 1    
    39   18   78 1    
    40   19   20 am   BACKBONE|DICT|INTERRES
    41   19   79 1    
    42   20   21 2    
    43   20   22 1    
    44   22   23 1    
    45   22   24 1    
    46   22   80 1    
    47   23   81 1    
    48   23   82 1    
    49   23   83 1    
    50   24   25 am   BACKBONE|DICT|INTERRES
    51   24   84 1    
    52   25   26 2    
    53   27   28 2    
    54   27   29 am   BACKBONE|DICT|INTERRES
    55   29   30 1    
    56   29   85 1    
    57   30   31 1    
    58   30   32 1    
    59   30   86 1    
    60   31   87 1    
    61   31   88 1    
    62   31   89 1    
    63   32   33 2    
    64   32   34 am   BACKBONE|DICT|INTERRES
    65   34   35 1    
    66   34   90 1    
    67   35   36 1    
    68   35   37 1    
    69   35   91 1    
    70   36   92 1    
    71   36   93 1    
    72   36   94 1    
    73   37   38 2    
    74   37   39 am   BACKBONE|DICT|INTERRES
    75   39   40 1    
    76   39   95 1    
    77   40   41 1    
    78   40   42 1    
    79   40   96 1    
    80   41   97 1    
    81   41   98 1    
    82   41   99 1    
    83   42   43 2    
    84   42   44 am   BACKBONE|DICT|INTERRES
    85   44   45 1    
    86   44  100 1    
    87   45   46 1    
    88   45   47 1    
    89   45  101 1    
    90   46  102 1    
    91   46  103 1    
    92   46  104 1    
    93   47   48 2    
    94   47   49 am   BACKBONE|DICT|INTERRES
    95   49   50 1    
    96   49  105 1    
    97   50   51 1    
    98   50   52 1    
    99   50  106 1    
   100   51  107 1    
   101   51  108 1    
   102   51  109 1    
   103   52   53 2    
   104   52   54 am   BACKBONE|DICT|INTERRES
   105   54   55 1    
   106   54  110 1    
   107   55   56 1    
   108   55   59 1    
   109   55  111 1    
   110   56   57 am   BACKBONE|DICT|INTERRES
   111   56   58 2    
   112   57  112 1    
   113   57  113 1    
   114   59   60 1    
   115   59  114 1    
   116   59  115 1    
   117   60   61 1    
   118   61  116 1    
   119   61  117 1    
@<TRIPOS>SUBSTRUCTURE
     1 UNK         1 GROUP             0       ****    0 ROOT    
