@<TRIPOS>MOLECULE
3R8
117   119    1
SMALL
USER_CHARGES


@<TRIPOS>ATOM
      1 CA         11.8265  -24.8977  -44.5787 C.3       0 UNK        -0.2013 
      2 C          13.2536  -25.0753  -45.0756 C.2       0 UNK         0.4866 
      3 O          13.6596  -24.4045  -46.0255 O.2       0 UNK        -0.5176 
      4 N          14.0142  -25.9798  -44.4477 N.am      1 UNK        -0.4884 
      5 CA         15.4302  -26.2292  -44.7353 C.3       1 UNK         0.0853 
      6 C6         15.8685  -27.6403  -44.2577 C.3       10 UNK        -0.0849 
      7 S7         15.6256  -27.9403  -42.4705 S.3       10 UNK        -0.2776 
      8 C8         16.4670  -29.5409  -42.2534 C.3       10 UNK         0.0316 
      9 C9         17.9827  -29.4165  -42.3343 C.ar      10 UNK        -0.0863 
     10 C10        18.6705  -29.8679  -43.4651 C.ar      10 UNK        -0.1009 
     11 C11        20.0652  -29.7958  -43.5230 C.ar      10 UNK        -0.0712 
     12 C12        20.7722  -29.2663  -42.4385 C.ar      10 UNK        -0.0894 
     13 C13        20.0968  -28.7909  -41.3113 C.ar      10 UNK        -0.0745 
     14 C14        18.7016  -28.8758  -41.2631 C.ar      10 UNK        -0.0972 
     15 C15        20.8685  -28.2035  -40.1362 C.3       10 UNK         0.0209 
     16 S16        20.7235  -26.3857  -40.0677 S.3       10 UNK        -0.2568 
     17 C17        22.1358  -25.8319  -41.0848 C.3       10 UNK        -0.0983 
     18 CA         21.8247  -25.8141  -42.6020 C.3       3 UNK         0.0876 
     19 N          20.6760  -24.9711  -42.9399 N.am      3 UNK        -0.4424 
     20 C          19.8783  -25.1776  -43.9926 C.2       2 UNK         0.4918 
     21 O          20.0737  -26.0525  -44.8424 O.2       2 UNK        -0.4875 
     22 CA         18.6666  -24.2531  -44.1323 C.3       2 UNK         0.0481 
     23 CB         18.9702  -23.0939  -45.0949 C.3       2 UNK        -0.1831 
     24 N          17.5727  -25.0594  -44.6622 N.am      2 UNK        -0.4498 
     25 C          16.3361  -25.1179  -44.1586 C.2       1 UNK         0.5027 
     26 O          15.9226  -24.3723  -43.2651 O.2       1 UNK        -0.4969 
     27 C          23.0518  -25.4657  -43.4675 C.2       3 UNK         0.5005 
     28 O          24.0404  -24.9260  -42.9668 O.2       3 UNK        -0.5279 
     29 N          22.9608  -25.7954  -44.7634 N.am      4 UNK        -0.4463 
     30 CA         24.0673  -25.7623  -45.7257 C.3       4 UNK         0.0283 
     31 CB         23.4937  -25.8254  -47.1503 C.3       4 UNK        -0.1875 
     32 C          25.0830  -26.9013  -45.5015 C.2       4 UNK         0.4949 
     33 O          26.2197  -26.7988  -45.9630 O.2       4 UNK        -0.5039 
     34 N          24.6558  -27.9515  -44.7919 N.am      5 UNK        -0.4663 
     35 CA         25.4712  -29.0510  -44.2859 C.3       5 UNK         0.0242 
     36 CB         25.0550  -30.3504  -44.9985 C.3       5 UNK        -0.1982 
     37 C          25.2562  -29.1579  -42.7675 C.2       5 UNK         0.5017 
     38 O          24.3715  -28.4903  -42.2230 O.2       5 UNK        -0.5012 
     39 N          26.0704  -29.9991  -42.1169 N.am      6 UNK        -0.4439 
     40 CA         26.0352  -30.2812  -40.6778 C.3       6 UNK         0.0297 
     41 CB         27.2064  -31.2178  -40.3335 C.3       6 UNK        -0.2006 
     42 C          24.7050  -30.8977  -40.2063 C.2       6 UNK         0.4892 
     43 O          23.9630  -31.4582  -41.0134 O.2       6 UNK        -0.5089 
     44 N          24.4626  -30.8318  -38.8897 N.am      7 UNK        -0.4243 
     45 CA         23.2400  -31.2646  -38.1948 C.3       7 UNK         0.0196 
     46 CB         23.3616  -30.8860  -36.7086 C.3       7 UNK        -0.2007 
     47 C          22.8435  -32.7500  -38.3464 C.2       7 UNK         0.5020 
     48 O          21.7495  -33.1198  -37.9194 O.2       7 UNK        -0.5147 
     49 N          23.7075  -33.5762  -38.9521 N.am      8 UNK        -0.4734 
     50 CA         23.3760  -34.9271  -39.4166 C.3       8 UNK         0.0238 
     51 CB         24.6712  -35.6649  -39.7923 C.3       8 UNK        -0.1912 
     52 C          22.3906  -34.9233  -40.6042 C.2       8 UNK         0.5038 
     53 O          21.6411  -35.8874  -40.7648 O.2       8 UNK        -0.5046 
     54 N          22.4041  -33.8468  -41.4025 N.am      9 UNK        -0.4200 
     55 CA         21.4189  -33.5489  -42.4477 C.3       9 UNK         0.0839 
     56 C          20.0479  -33.1604  -41.8224 C.2       9 UNK         0.5513 
     57 N          18.9465  -33.6103  -42.4088 N.am      9 UNK        -0.7519 
     58 O          19.9750  -32.4533  -40.8203 O.2       9 UNK        -0.4960 
     59 C59        21.9875  -32.4633  -43.3996 C.3       10 UNK        -0.0876 
     60 S60        20.9412  -32.0912  -44.8495 S.3       10 UNK        -0.2414 
     61 C61        20.8055  -30.2743  -44.7645 C.3       10 UNK         0.0169 
     62 H62        11.6702  -23.8715  -44.2470 H         1 UNK         0.0903 
     63 H63        11.1203  -25.1082  -45.3815 H         1 UNK         0.0903 
     64 H64        11.5994  -25.5618  -43.7447 H         1 UNK         0.0903 
     65 H65        13.6483  -26.4769  -43.6474 H         1 UNK         0.3096 
     66 H66        15.5530  -26.2003  -45.8209 H         1 UNK         0.1121 
     67 H67        15.3062  -28.3983  -44.8054 H         1 UNK         0.0849 
     68 H68        16.9159  -27.8167  -44.5087 H         1 UNK         0.0849 
     69 H69        16.0945  -30.2513  -42.9932 H         1 UNK         0.0865 
     70 H70        16.1952  -29.9507  -41.2796 H         1 UNK         0.0865 
     71 H71        18.1241  -30.2874  -44.2987 H         1 UNK         0.1346 
     72 H72        21.8516  -29.2160  -42.4724 H         1 UNK         0.1412 
     73 H73        18.1736  -28.5195  -40.3890 H         1 UNK         0.1426 
     74 H74        21.9192  -28.4972  -40.1721 H         1 UNK         0.0716 
     75 H75        20.4714  -28.6201  -39.2094 H         1 UNK         0.0716 
     76 H76        22.9906  -26.4777  -40.8747 H         1 UNK         0.0695 
     77 H77        22.4215  -24.8347  -40.7454 H         1 UNK         0.0695 
     78 H78        21.5700  -26.8367  -42.8715 H         1 UNK         0.0983 
     79 H79        20.4661  -24.2235  -42.2946 H         1 UNK         0.3095 
     80 H80        18.4131  -23.8521  -43.1486 H         1 UNK         0.0454 
     81 H81        18.1043  -22.4424  -45.2132 H         1 UNK         0.0851 
     82 H82        19.2557  -23.4535  -46.0844 H         1 UNK         0.0851 
     83 H83        19.7901  -22.4795  -44.7211 H         1 UNK         0.0851 
     84 H84        17.8635  -25.7459  -45.3469 H         1 UNK         0.2976 
     85 H85        22.0679  -26.1502  -45.0944 H         1 UNK         0.3116 
     86 H86        24.5993  -24.8157  -45.6095 H         1 UNK         0.0646 
     87 H87        24.2901  -25.7723  -47.8940 H         1 UNK         0.0847 
     88 H88        22.8164  -24.9933  -47.3433 H         1 UNK         0.0847 
     89 H89        22.9462  -26.7524  -47.3253 H         1 UNK         0.0847 
     90 H90        23.7348  -27.8930  -44.3822 H         1 UNK         0.3040 
     91 H91        26.5304  -28.8550  -44.4678 H         1 UNK         0.1015 
     92 H92        25.1454  -30.2540  -46.0807 H         1 UNK         0.0786 
     93 H93        24.0246  -30.6235  -44.7729 H         1 UNK         0.0786 
     94 H94        25.6853  -31.1877  -44.6969 H         1 UNK         0.0786 
     95 H95        26.7428  -30.5250  -42.6556 H         1 UNK         0.3172 
     96 H96        26.1740  -29.3337  -40.1529 H         1 UNK         0.0595 
     97 H97        27.1166  -32.1792  -40.8413 H         1 UNK         0.0839 
     98 H98        27.2534  -31.4197  -39.2625 H         1 UNK         0.0839 
     99 H99        28.1634  -30.7780  -40.6152 H         1 UNK         0.0839 
    100 H100       25.1570  -30.3852  -38.3076 H         1 UNK         0.2998 
    101 H101       22.4159  -30.6902  -38.6233 H         1 UNK         0.0822 
    102 H102       24.1905  -31.4072  -36.2279 H         1 UNK         0.0787 
    103 H103       23.5170  -29.8144  -36.5817 H         1 UNK         0.0787 
    104 H104       22.4538  -31.1433  -36.1605 H         1 UNK         0.0787 
    105 H105       24.5844  -33.1877  -39.2669 H         1 UNK         0.3055 
    106 H106       22.8965  -35.4648  -38.5953 H         1 UNK         0.1106 
    107 H107       24.4579  -36.6834  -40.1200 H         1 UNK         0.0828 
    108 H108       25.2006  -35.1656  -40.6049 H         1 UNK         0.0828 
    109 H109       25.3493  -35.7358  -38.9416 H         1 UNK         0.0828 
    110 H110       23.0245  -33.0766  -41.1657 H         1 UNK         0.2931 
    111 H111       21.2816  -34.4612  -43.0320 H         1 UNK         0.0412 
    112 H112       18.0503  -33.3614  -42.0218 H         1 UNK         0.3472 
    113 H113       18.9968  -34.1717  -43.2445 H         1 UNK         0.3472 
    114 H114       22.9588  -32.7853  -43.7778 H         1 UNK         0.0970 
    115 H115       22.1837  -31.5482  -42.8440 H         1 UNK         0.0970 
    116 H116       21.8014  -29.8327  -44.8105 H         1 UNK         0.0612 
    117 H117       20.2796  -29.9221  -45.6530 H         1 UNK         0.0612 
@<TRIPOS>BOND
     1    1    2 1    
     2    1   62 1    
     3    1   63 1    
     4    1   64 1    
     5    2    3 2    
     6    2    4 am   BACKBONE|DICT|INTERRES
     7    4    5 1    
     8    4   65 1    
     9    5    6 1    
    10    5   25 1    
    11    5   66 1    
    12    6    7 1    
    13    6   67 1    
    14    6   68 1    
    15    7    8 1    
    16    8    9 1    
    17    8   69 1    
    18    8   70 1    
    19    9   10 ar   
    20    9   14 ar   
    21   10   11 ar   
    22   10   71 1    
    23   11   12 ar   
    24   11   61 1    
    25   12   13 ar   
    26   12   72 1    
    27   13   14 ar   
    28   13   15 1    
    29   14   73 1    
    30   15   16 1    
    31   15   74 1    
    32   15   75 1    
    33   16   17 1    
    34   17   18 1    
    35   17   76 1    
    36   17   77 1    
    37   18   19 1    
    38   18   27 1    
    39   18   78 1    
    40   19   20 am   BACKBONE|DICT|INTERRES
    41   19   79 1    
    42   20   21 2    
    43   20   22 1    
    44   22   23 1    
    45   22   24 1    
    46   22   80 1    
    47   23   81 1    
    48   23   82 1    
    49   23   83 1    
    50   24   25 am   BACKBONE|DICT|INTERRES
    51   24   84 1    
    52   25   26 2    
    53   27   28 2    
    54   27   29 am   BACKBONE|DICT|INTERRES
    55   29   30 1    
    56   29   85 1    
    57   30   31 1    
    58   30   32 1    
    59   30   86 1    
    60   31   87 1    
    61   31   88 1    
    62   31   89 1    
    63   32   33 2    
    64   32   34 am   BACKBONE|DICT|INTERRES
    65   34   35 1    
    66   34   90 1    
    67   35   36 1    
    68   35   37 1    
    69   35   91 1    
    70   36   92 1    
    71   36   93 1    
    72   36   94 1    
    73   37   38 2    
    74   37   39 am   BACKBONE|DICT|INTERRES
    75   39   40 1    
    76   39   95 1    
    77   40   41 1    
    78   40   42 1    
    79   40   96 1    
    80   41   97 1    
    81   41   98 1    
    82   41   99 1    
    83   42   43 2    
    84   42   44 am   BACKBONE|DICT|INTERRES
    85   44   45 1    
    86   44  100 1    
    87   45   46 1    
    88   45   47 1    
    89   45  101 1    
    90   46  102 1    
    91   46  103 1    
    92   46  104 1    
    93   47   48 2    
    94   47   49 am   BACKBONE|DICT|INTERRES
    95   49   50 1    
    96   49  105 1    
    97   50   51 1    
    98   50   52 1    
    99   50  106 1    
   100   51  107 1    
   101   51  108 1    
   102   51  109 1    
   103   52   53 2    
   104   52   54 am   BACKBONE|DICT|INTERRES
   105   54   55 1    
   106   54  110 1    
   107   55   56 1    
   108   55   59 1    
   109   55  111 1    
   110   56   57 am   BACKBONE|DICT|INTERRES
   111   56   58 2    
   112   57  112 1    
   113   57  113 1    
   114   59   60 1    
   115   59  114 1    
   116   59  115 1    
   117   60   61 1    
   118   61  116 1    
   119   61  117 1    
@<TRIPOS>SUBSTRUCTURE
     1 UNK         1 GROUP             0       ****    0 ROOT    
