@<TRIPOS>MOLECULE
3R8
117   119    1
SMALL
USER_CHARGES


@<TRIPOS>ATOM
      1 CA         14.5982  -26.1111  -48.8342 C.3       0 UNK        -0.2013 
      2 C          15.8158  -26.1717  -47.9249 C.2       0 UNK         0.4866 
      3 O          16.9475  -26.1202  -48.4090 O.2       0 UNK        -0.5176 
      4 N          15.5988  -26.2761  -46.6079 N.am      1 UNK        -0.4884 
      5 CA         16.6444  -26.3473  -45.5812 C.3       1 UNK         0.0853 
      6 C6         16.1474  -27.0435  -44.2871 C.3       10 UNK        -0.0849 
      7 S7         15.5073  -28.7365  -44.5386 S.3       10 UNK        -0.2776 
      8 C8         16.9763  -29.6653  -45.1008 C.3       10 UNK         0.0316 
      9 C9         18.2030  -29.4465  -44.2233 C.ar      10 UNK        -0.0863 
     10 C10        18.1855  -29.8056  -42.8724 C.ar      10 UNK        -0.1009 
     11 C11        19.3116  -29.6044  -42.0676 C.ar      10 UNK        -0.0712 
     12 C12        20.4582  -29.0294  -42.6235 C.ar      10 UNK        -0.0894 
     13 C13        20.4921  -28.6677  -43.9734 C.ar      10 UNK        -0.0745 
     14 C14        19.3636  -28.8905  -44.7690 C.ar      10 UNK        -0.0972 
     15 C15        21.7607  -28.0831  -44.5824 C.3       10 UNK         0.0209 
     16 S16        21.4614  -26.5295  -45.4854 S.3       10 UNK        -0.2568 
     17 C17        22.2264  -25.2509  -44.4197 C.3       10 UNK        -0.0983 
     18 CA         21.2348  -24.3319  -43.6474 C.3       3 UNK         0.0876 
     19 N          20.0459  -23.9663  -44.4090 N.am      3 UNK        -0.4424 
     20 C          19.9925  -23.1887  -45.4926 C.2       2 UNK         0.4918 
     21 O          20.9702  -22.5900  -45.9448 O.2       2 UNK        -0.4875 
     22 CA         18.6214  -23.0790  -46.1979 C.3       2 UNK         0.0481 
     23 CB         18.7349  -22.4918  -47.6168 C.3       2 UNK        -0.1831 
     24 N          17.9253  -24.3691  -46.2773 N.am      2 UNK        -0.4498 
     25 C          17.2280  -24.9475  -45.2915 C.2       1 UNK         0.5027 
     26 O          17.0489  -24.4130  -44.1958 O.2       1 UNK        -0.4969 
     27 C          20.7600  -24.9456  -42.3211 C.2       3 UNK         0.5005 
     28 O          19.6975  -25.5712  -42.2834 O.2       3 UNK        -0.5279 
     29 N          21.5318  -24.7192  -41.2500 N.am      4 UNK        -0.4463 
     30 CA         21.1883  -25.1419  -39.8890 C.3       4 UNK         0.0283 
     31 CB         21.8039  -24.1547  -38.8833 C.3       4 UNK        -0.1875 
     32 C          21.6423  -26.5736  -39.5661 C.2       4 UNK         0.4949 
     33 O          21.0162  -27.2240  -38.7294 O.2       4 UNK        -0.5039 
     34 N          22.7238  -27.0337  -40.2054 N.am      5 UNK        -0.4663 
     35 CA         23.3355  -28.3396  -39.9791 C.3       5 UNK         0.0242 
     36 CB         24.2680  -28.2760  -38.7551 C.3       5 UNK        -0.1982 
     37 C          24.1060  -28.7614  -41.2335 C.2       5 UNK         0.5017 
     38 O          24.5884  -27.8935  -41.9654 O.2       5 UNK        -0.5012 
     39 N          24.2140  -30.0770  -41.4398 N.am      6 UNK        -0.4439 
     40 CA         24.9346  -30.7383  -42.5257 C.3       6 UNK         0.0297 
     41 CB         24.3484  -30.3881  -43.9076 C.3       6 UNK        -0.2006 
     42 C          24.8464  -32.2487  -42.2962 C.2       6 UNK         0.4892 
     43 O          23.7366  -32.7700  -42.1608 O.2       6 UNK        -0.5089 
     44 N          26.0061  -32.9206  -42.2808 N.am      7 UNK        -0.4243 
     45 CA         26.1777  -34.3644  -42.0790 C.3       7 UNK         0.0196 
     46 CB         25.7018  -35.1418  -43.3289 C.3       7 UNK        -0.2007 
     47 C          25.5343  -34.8322  -40.7579 C.2       7 UNK         0.5020 
     48 O          25.9894  -34.4177  -39.6912 O.2       7 UNK        -0.5147 
     49 N          24.4933  -35.6695  -40.8454 N.am      8 UNK        -0.4734 
     50 CA         23.7189  -36.1564  -39.7019 C.3       8 UNK         0.0238 
     51 CB         22.9926  -37.4504  -40.1060 C.3       8 UNK        -0.1912 
     52 C          22.7132  -35.1262  -39.1538 C.2       8 UNK         0.5038 
     53 O          22.2821  -35.2774  -38.0097 O.2       8 UNK        -0.5046 
     54 N          22.3387  -34.1237  -39.9612 N.am      9 UNK        -0.4200 
     55 CA         21.4335  -33.0380  -39.5671 C.3       9 UNK         0.0839 
     56 C          22.1958  -31.9497  -38.7712 C.2       9 UNK         0.5513 
     57 N          21.6160  -31.4361  -37.6963 N.am      9 UNK        -0.7519 
     58 O          23.2880  -31.5359  -39.1524 O.2       9 UNK        -0.4960 
     59 C59        20.7005  -32.4411  -40.7988 C.3       10 UNK        -0.0876 
     60 S60        19.0578  -31.7809  -40.3548 S.3       10 UNK        -0.2414 
     61 C61        19.2779  -29.9886  -40.5944 C.3       10 UNK         0.0169 
     62 H62        14.5958  -25.1772  -49.3956 H         1 UNK         0.0903 
     63 H63        14.6204  -26.9364  -49.5453 H         1 UNK         0.0903 
     64 H64        13.6661  -26.1723  -48.2727 H         1 UNK         0.0903 
     65 H65        14.6500  -26.3061  -46.2616 H         1 UNK         0.3096 
     66 H66        17.4713  -26.9425  -45.9729 H         1 UNK         0.1121 
     67 H67        15.3483  -26.4591  -43.8269 H         1 UNK         0.0849 
     68 H68        16.9471  -27.0842  -43.5441 H         1 UNK         0.0849 
     69 H69        16.7353  -30.7291  -45.1120 H         1 UNK         0.0865 
     70 H70        17.1857  -29.3945  -46.1369 H         1 UNK         0.0865 
     71 H71        17.2923  -30.2407  -42.4450 H         1 UNK         0.1346 
     72 H72        21.3258  -28.8647  -42.0043 H         1 UNK         0.1412 
     73 H73        19.3936  -28.6244  -45.8168 H         1 UNK         0.1426 
     74 H74        22.1686  -28.8096  -45.2857 H         1 UNK         0.0716 
     75 H75        22.5244  -27.9322  -43.8201 H         1 UNK         0.0716 
     76 H76        22.9538  -25.7041  -43.7439 H         1 UNK         0.0695 
     77 H77        22.8217  -24.6247  -45.0857 H         1 UNK         0.0695 
     78 H78        21.7524  -23.4017  -43.4024 H         1 UNK         0.0983 
     79 H79        19.1926  -24.3936  -44.0623 H         1 UNK         0.3095 
     80 H80        18.0148  -22.3912  -45.6055 H         1 UNK         0.0454 
     81 H81        19.1793  -21.4958  -47.5961 H         1 UNK         0.0851 
     82 H82        19.3569  -23.1144  -48.2610 H         1 UNK         0.0851 
     83 H83        17.7559  -22.3959  -48.0866 H         1 UNK         0.0851 
     84 H84        17.9907  -24.8727  -47.1565 H         1 UNK         0.2976 
     85 H85        22.3842  -24.1874  -41.3588 H         1 UNK         0.3116 
     86 H86        20.1032  -25.1068  -39.7666 H         1 UNK         0.0646 
     87 H87        21.5422  -24.4278  -37.8599 H         1 UNK         0.0847 
     88 H88        21.4399  -23.1404  -39.0479 H         1 UNK         0.0847 
     89 H89        22.8927  -24.1366  -38.9455 H         1 UNK         0.0847 
     90 H90        23.1736  -26.4710  -40.9159 H         1 UNK         0.3040 
     91 H91        22.5467  -29.0711  -39.7954 H         1 UNK         0.1015 
     92 H92        23.7175  -28.0243  -37.8485 H         1 UNK         0.0786 
     93 H93        25.0549  -27.5325  -38.8877 H         1 UNK         0.0786 
     94 H94        24.7521  -29.2377  -38.5802 H         1 UNK         0.0786 
     95 H95        23.8299  -30.7124  -40.7393 H         1 UNK         0.3172 
     96 H96        25.9793  -30.4234  -42.4873 H         1 UNK         0.0595 
     97 H97        23.2779  -30.5925  -43.9489 H         1 UNK         0.0839 
     98 H98        24.8218  -30.9786  -44.6932 H         1 UNK         0.0839 
     99 H99        24.5084  -29.3412  -44.1624 H         1 UNK         0.0839 
    100 H100       26.8627  -32.3923  -42.3738 H         1 UNK         0.2998 
    101 H101       27.2493  -34.5398  -41.9713 H         1 UNK         0.0822 
    102 H102       25.8692  -36.2139  -43.2158 H         1 UNK         0.0787 
    103 H103       24.6423  -34.9875  -43.5372 H         1 UNK         0.0787 
    104 H104       26.2551  -34.8280  -44.2141 H         1 UNK         0.0787 
    105 H105       24.1768  -35.9447  -41.7644 H         1 UNK         0.3055 
    106 H106       24.4100  -36.3935  -38.8894 H         1 UNK         0.1106 
    107 H107       23.6971  -38.2180  -40.4269 H         1 UNK         0.0828 
    108 H108       22.4304  -37.8613  -39.2661 H         1 UNK         0.0828 
    109 H109       22.2852  -37.2808  -40.9187 H         1 UNK         0.0828 
    110 H110       22.8211  -33.9925  -40.8443 H         1 UNK         0.2931 
    111 H111       20.6791  -33.4776  -38.9105 H         1 UNK         0.0412 
    112 H112       22.0926  -30.7164  -37.1767 H         1 UNK         0.3472 
    113 H113       20.7092  -31.7565  -37.3939 H         1 UNK         0.3472 
    114 H114       21.3033  -31.6855  -41.3071 H         1 UNK         0.0970 
    115 H115       20.5267  -33.2192  -41.5437 H         1 UNK         0.0970 
    116 H116       18.4484  -29.4669  -40.1154 H         1 UNK         0.0612 
    117 H117       20.1816  -29.6633  -40.0775 H         1 UNK         0.0612 
@<TRIPOS>BOND
     1    1    2 1    
     2    1   62 1    
     3    1   63 1    
     4    1   64 1    
     5    2    3 2    
     6    2    4 am   BACKBONE|DICT|INTERRES
     7    4    5 1    
     8    4   65 1    
     9    5    6 1    
    10    5   25 1    
    11    5   66 1    
    12    6    7 1    
    13    6   67 1    
    14    6   68 1    
    15    7    8 1    
    16    8    9 1    
    17    8   69 1    
    18    8   70 1    
    19    9   10 ar   
    20    9   14 ar   
    21   10   11 ar   
    22   10   71 1    
    23   11   12 ar   
    24   11   61 1    
    25   12   13 ar   
    26   12   72 1    
    27   13   14 ar   
    28   13   15 1    
    29   14   73 1    
    30   15   16 1    
    31   15   74 1    
    32   15   75 1    
    33   16   17 1    
    34   17   18 1    
    35   17   76 1    
    36   17   77 1    
    37   18   19 1    
    38   18   27 1    
    39   18   78 1    
    40   19   20 am   BACKBONE|DICT|INTERRES
    41   19   79 1    
    42   20   21 2    
    43   20   22 1    
    44   22   23 1    
    45   22   24 1    
    46   22   80 1    
    47   23   81 1    
    48   23   82 1    
    49   23   83 1    
    50   24   25 am   BACKBONE|DICT|INTERRES
    51   24   84 1    
    52   25   26 2    
    53   27   28 2    
    54   27   29 am   BACKBONE|DICT|INTERRES
    55   29   30 1    
    56   29   85 1    
    57   30   31 1    
    58   30   32 1    
    59   30   86 1    
    60   31   87 1    
    61   31   88 1    
    62   31   89 1    
    63   32   33 2    
    64   32   34 am   BACKBONE|DICT|INTERRES
    65   34   35 1    
    66   34   90 1    
    67   35   36 1    
    68   35   37 1    
    69   35   91 1    
    70   36   92 1    
    71   36   93 1    
    72   36   94 1    
    73   37   38 2    
    74   37   39 am   BACKBONE|DICT|INTERRES
    75   39   40 1    
    76   39   95 1    
    77   40   41 1    
    78   40   42 1    
    79   40   96 1    
    80   41   97 1    
    81   41   98 1    
    82   41   99 1    
    83   42   43 2    
    84   42   44 am   BACKBONE|DICT|INTERRES
    85   44   45 1    
    86   44  100 1    
    87   45   46 1    
    88   45   47 1    
    89   45  101 1    
    90   46  102 1    
    91   46  103 1    
    92   46  104 1    
    93   47   48 2    
    94   47   49 am   BACKBONE|DICT|INTERRES
    95   49   50 1    
    96   49  105 1    
    97   50   51 1    
    98   50   52 1    
    99   50  106 1    
   100   51  107 1    
   101   51  108 1    
   102   51  109 1    
   103   52   53 2    
   104   52   54 am   BACKBONE|DICT|INTERRES
   105   54   55 1    
   106   54  110 1    
   107   55   56 1    
   108   55   59 1    
   109   55  111 1    
   110   56   57 am   BACKBONE|DICT|INTERRES
   111   56   58 2    
   112   57  112 1    
   113   57  113 1    
   114   59   60 1    
   115   59  114 1    
   116   59  115 1    
   117   60   61 1    
   118   61  116 1    
   119   61  117 1    
@<TRIPOS>SUBSTRUCTURE
     1 UNK         1 GROUP             0       ****    0 ROOT    
