@<TRIPOS>MOLECULE
3R8
117   119    1
SMALL
USER_CHARGES


@<TRIPOS>ATOM
      1 CA         15.7459  -29.4843  -39.1741 C.3       0 UNK        -0.2013 
      2 C          15.8168  -28.3641  -40.2014 C.2       0 UNK         0.4866 
      3 O          15.3688  -27.2500  -39.9292 O.2       0 UNK        -0.5176 
      4 N          16.3828  -28.6511  -41.3790 N.am      1 UNK        -0.4884 
      5 CA         16.5988  -27.6873  -42.4663 C.3       1 UNK         0.0853 
      6 C6         16.7801  -28.3925  -43.8323 C.3       10 UNK        -0.0849 
      7 S7         15.3712  -29.4553  -44.2943 S.3       10 UNK        -0.2776 
      8 C8         15.7643  -29.8256  -46.0382 C.3       10 UNK         0.0316 
      9 C9         17.1813  -30.3590  -46.2079 C.ar      10 UNK        -0.0863 
     10 C10        17.5475  -31.5775  -45.6294 C.ar      10 UNK        -0.1009 
     11 C11        18.8599  -32.0461  -45.7321 C.ar      10 UNK        -0.0712 
     12 C12        19.8052  -31.2942  -46.4364 C.ar      10 UNK        -0.0894 
     13 C13        19.4538  -30.0737  -47.0195 C.ar      10 UNK        -0.0745 
     14 C14        18.1354  -29.6176  -46.9126 C.ar      10 UNK        -0.0972 
     15 C15        20.5076  -29.2523  -47.7544 C.3       10 UNK         0.0209 
     16 S16        20.6564  -27.5482  -47.1223 S.3       10 UNK        -0.2568 
     17 C17        20.9696  -27.8309  -45.3483 C.3       10 UNK        -0.0983 
     18 CA         21.4610  -26.5369  -44.6356 C.3       3 UNK         0.0876 
     19 N          20.7928  -26.3283  -43.3460 N.am      3 UNK        -0.4424 
     20 C          21.0157  -26.9934  -42.2051 C.2       2 UNK         0.4918 
     21 O          21.8867  -27.8457  -42.0565 O.2       2 UNK        -0.4875 
     22 CA         20.0639  -26.6900  -41.0406 C.3       2 UNK         0.0481 
     23 CB         20.0630  -25.2036  -40.6283 C.3       2 UNK        -0.1831 
     24 N          18.7233  -27.2171  -41.3114 N.am      2 UNK        -0.4498 
     25 C          17.8207  -26.7819  -42.2048 C.2       1 UNK         0.5027 
     26 O          17.9460  -25.7418  -42.8538 O.2       1 UNK        -0.4969 
     27 C          23.0004  -26.3951  -44.5485 C.2       3 UNK         0.5005 
     28 O          23.7427  -27.2273  -45.0767 O.2       3 UNK        -0.5279 
     29 N          23.4440  -25.3303  -43.8600 N.am      4 UNK        -0.4463 
     30 CA         24.8368  -24.9311  -43.6332 C.3       4 UNK         0.0283 
     31 CB         25.4611  -24.3918  -44.9410 C.3       4 UNK        -0.1875 
     32 C          25.6577  -26.0469  -42.9580 C.2       4 UNK         0.4949 
     33 O          25.4353  -26.3274  -41.7796 O.2       4 UNK        -0.5039 
     34 N          26.5753  -26.6690  -43.7113 N.am      5 UNK        -0.4663 
     35 CA         27.4946  -27.7203  -43.2636 C.3       5 UNK         0.0242 
     36 CB         28.4724  -28.0443  -44.4050 C.3       5 UNK        -0.1982 
     37 C          26.8171  -29.0066  -42.7554 C.2       5 UNK         0.5017 
     38 O          27.4598  -29.7654  -42.0289 O.2       5 UNK        -0.5012 
     39 N          25.5449  -29.2294  -43.1184 N.am      6 UNK        -0.4439 
     40 CA         24.7297  -30.3389  -42.6140 C.3       6 UNK         0.0297 
     41 CB         23.5326  -30.5581  -43.5487 C.3       6 UNK        -0.2006 
     42 C          24.2708  -30.1587  -41.1505 C.2       6 UNK         0.4892 
     43 O          23.7967  -31.1296  -40.5577 O.2       6 UNK        -0.5089 
     44 N          24.4228  -28.9456  -40.5932 N.am      7 UNK        -0.4243 
     45 CA         24.1892  -28.5116  -39.2074 C.3       7 UNK         0.0196 
     46 CB         25.1069  -29.2685  -38.2281 C.3       7 UNK        -0.2007 
     47 C          22.7271  -28.5467  -38.7251 C.2       7 UNK         0.5020 
     48 O          22.3004  -27.6095  -38.0499 O.2       7 UNK        -0.5147 
     49 N          21.9889  -29.6069  -39.0604 N.am      8 UNK        -0.4734 
     50 CA         20.5819  -29.8043  -38.7189 C.3       8 UNK         0.0238 
     51 CB         20.4506  -30.5622  -37.3856 C.3       8 UNK        -0.1912 
     52 C          19.8708  -30.5290  -39.8630 C.2       8 UNK         0.5038 
     53 O          18.9083  -29.9934  -40.4123 O.2       8 UNK        -0.5046 
     54 N          20.3711  -31.7228  -40.2083 N.am      9 UNK        -0.4200 
     55 CA         19.8406  -32.6084  -41.2582 C.3       9 UNK         0.0839 
     56 C          18.4319  -33.2139  -40.9644 C.2       9 UNK         0.5513 
     57 N          17.9446  -33.1806  -39.7295 N.am      9 UNK        -0.7519 
     58 O          17.7786  -33.7479  -41.8562 O.2       9 UNK        -0.4960 
     59 C59        19.9605  -31.9792  -42.6785 C.3       10 UNK        -0.0876 
     60 S60        20.6394  -33.1572  -43.8991 S.3       10 UNK        -0.2414 
     61 C61        19.2554  -33.3575  -45.0668 C.3       10 UNK         0.0169 
     62 H62        16.2986  -29.2053  -38.2775 H         1 UNK         0.0903 
     63 H63        14.7102  -29.6736  -38.8937 H         1 UNK         0.0903 
     64 H64        16.1704  -30.4133  -39.5557 H         1 UNK         0.0903 
     65 H65        16.7610  -29.5767  -41.5321 H         1 UNK         0.3096 
     66 H66        15.7252  -27.0346  -42.5311 H         1 UNK         0.1121 
     67 H67        16.9199  -27.6555  -44.6264 H         1 UNK         0.0849 
     68 H68        17.6833  -29.0069  -43.8228 H         1 UNK         0.0849 
     69 H69        15.0539  -30.5624  -46.4157 H         1 UNK         0.0865 
     70 H70        15.6150  -28.9235  -46.6337 H         1 UNK         0.0865 
     71 H71        16.8130  -32.1463  -45.0751 H         1 UNK         0.1346 
     72 H72        20.8221  -31.6549  -46.5104 H         1 UNK         0.1412 
     73 H73        17.8633  -28.6699  -47.3571 H         1 UNK         0.1426 
     74 H74        21.4865  -29.7302  -47.6909 H         1 UNK         0.0716 
     75 H75        20.2512  -29.2146  -48.8138 H         1 UNK         0.0716 
     76 H76        20.0250  -28.1660  -44.9164 H         1 UNK         0.0695 
     77 H77        21.6561  -28.6683  -45.2208 H         1 UNK         0.0695 
     78 H78        21.1394  -25.6824  -45.2334 H         1 UNK         0.0983 
     79 H79        19.9965  -25.7006  -43.3593 H         1 UNK         0.3095 
     80 H80        20.4321  -27.2483  -40.1828 H         1 UNK         0.0454 
     81 H81        19.7345  -24.5393  -41.4269 H         1 UNK         0.0851 
     82 H82        19.4133  -25.0363  -39.7694 H         1 UNK         0.0851 
     83 H83        21.0658  -24.8867  -40.3391 H         1 UNK         0.0851 
     84 H84        18.5389  -28.1262  -40.8948 H         1 UNK         0.2976 
     85 H85        22.7496  -24.7427  -43.4197 H         1 UNK         0.3116 
     86 H86        24.8100  -24.1053  -42.9205 H         1 UNK         0.0646 
     87 H87        26.4911  -24.0685  -44.7835 H         1 UNK         0.0847 
     88 H88        24.9105  -23.5243  -45.3048 H         1 UNK         0.0847 
     89 H89        25.4621  -25.1338  -45.7403 H         1 UNK         0.0847 
     90 H90        26.6481  -26.3942  -44.6804 H         1 UNK         0.3040 
     91 H91        28.0672  -27.3159  -42.4260 H         1 UNK         0.1015 
     92 H92        29.0393  -27.1630  -44.7061 H         1 UNK         0.0786 
     93 H93        27.9526  -28.4279  -45.2840 H         1 UNK         0.0786 
     94 H94        29.1958  -28.8014  -44.0982 H         1 UNK         0.0786 
     95 H95        25.0860  -28.5535  -43.7195 H         1 UNK         0.3172 
     96 H96        25.3391  -31.2445  -42.6453 H         1 UNK         0.0595 
     97 H97        23.8497  -30.7140  -44.5798 H         1 UNK         0.0839 
     98 H98        22.9708  -31.4413  -43.2466 H         1 UNK         0.0839 
     99 H99        22.8480  -29.7124  -43.5314 H         1 UNK         0.0839 
    100 H100       24.7557  -28.2035  -41.2006 H         1 UNK         0.2998 
    101 H101       24.4898  -27.4626  -39.1886 H         1 UNK         0.0822 
    102 H102       26.1550  -29.1689  -38.5110 H         1 UNK         0.0787 
    103 H103       25.0047  -28.8749  -37.2159 H         1 UNK         0.0787 
    104 H104       24.8701  -30.3322  -38.1870 H         1 UNK         0.0787 
    105 H105       22.4348  -30.3070  -39.6509 H         1 UNK         0.3055 
    106 H106       20.0919  -28.8362  -38.5994 H         1 UNK         0.1106 
    107 H107       19.4038  -30.7544  -37.1461 H         1 UNK         0.0828 
    108 H108       20.9668  -31.5224  -37.4052 H         1 UNK         0.0828 
    109 H109       20.8667  -29.9807  -36.5627 H         1 UNK         0.0828 
    110 H110       21.1606  -32.0867  -39.6949 H         1 UNK         0.2931 
    111 H111       20.5102  -33.4681  -41.2132 H         1 UNK         0.0412 
    112 H112       18.4731  -32.7663  -38.9796 H         1 UNK         0.3472 
    113 H113       17.0403  -33.5866  -39.5472 H         1 UNK         0.3472 
    114 H114       20.6387  -31.1249  -42.6654 H         1 UNK         0.0970 
    115 H115       19.0060  -31.5701  -43.0141 H         1 UNK         0.0970 
    116 H116       19.5464  -34.0715  -45.8382 H         1 UNK         0.0612 
    117 H117       18.4097  -33.8001  -44.5386 H         1 UNK         0.0612 
@<TRIPOS>BOND
     1    1    2 1    
     2    1   62 1    
     3    1   63 1    
     4    1   64 1    
     5    2    3 2    
     6    2    4 am   BACKBONE|DICT|INTERRES
     7    4    5 1    
     8    4   65 1    
     9    5    6 1    
    10    5   25 1    
    11    5   66 1    
    12    6    7 1    
    13    6   67 1    
    14    6   68 1    
    15    7    8 1    
    16    8    9 1    
    17    8   69 1    
    18    8   70 1    
    19    9   10 ar   
    20    9   14 ar   
    21   10   11 ar   
    22   10   71 1    
    23   11   12 ar   
    24   11   61 1    
    25   12   13 ar   
    26   12   72 1    
    27   13   14 ar   
    28   13   15 1    
    29   14   73 1    
    30   15   16 1    
    31   15   74 1    
    32   15   75 1    
    33   16   17 1    
    34   17   18 1    
    35   17   76 1    
    36   17   77 1    
    37   18   19 1    
    38   18   27 1    
    39   18   78 1    
    40   19   20 am   BACKBONE|DICT|INTERRES
    41   19   79 1    
    42   20   21 2    
    43   20   22 1    
    44   22   23 1    
    45   22   24 1    
    46   22   80 1    
    47   23   81 1    
    48   23   82 1    
    49   23   83 1    
    50   24   25 am   BACKBONE|DICT|INTERRES
    51   24   84 1    
    52   25   26 2    
    53   27   28 2    
    54   27   29 am   BACKBONE|DICT|INTERRES
    55   29   30 1    
    56   29   85 1    
    57   30   31 1    
    58   30   32 1    
    59   30   86 1    
    60   31   87 1    
    61   31   88 1    
    62   31   89 1    
    63   32   33 2    
    64   32   34 am   BACKBONE|DICT|INTERRES
    65   34   35 1    
    66   34   90 1    
    67   35   36 1    
    68   35   37 1    
    69   35   91 1    
    70   36   92 1    
    71   36   93 1    
    72   36   94 1    
    73   37   38 2    
    74   37   39 am   BACKBONE|DICT|INTERRES
    75   39   40 1    
    76   39   95 1    
    77   40   41 1    
    78   40   42 1    
    79   40   96 1    
    80   41   97 1    
    81   41   98 1    
    82   41   99 1    
    83   42   43 2    
    84   42   44 am   BACKBONE|DICT|INTERRES
    85   44   45 1    
    86   44  100 1    
    87   45   46 1    
    88   45   47 1    
    89   45  101 1    
    90   46  102 1    
    91   46  103 1    
    92   46  104 1    
    93   47   48 2    
    94   47   49 am   BACKBONE|DICT|INTERRES
    95   49   50 1    
    96   49  105 1    
    97   50   51 1    
    98   50   52 1    
    99   50  106 1    
   100   51  107 1    
   101   51  108 1    
   102   51  109 1    
   103   52   53 2    
   104   52   54 am   BACKBONE|DICT|INTERRES
   105   54   55 1    
   106   54  110 1    
   107   55   56 1    
   108   55   59 1    
   109   55  111 1    
   110   56   57 am   BACKBONE|DICT|INTERRES
   111   56   58 2    
   112   57  112 1    
   113   57  113 1    
   114   59   60 1    
   115   59  114 1    
   116   59  115 1    
   117   60   61 1    
   118   61  116 1    
   119   61  117 1    
@<TRIPOS>SUBSTRUCTURE
     1 UNK         1 GROUP             0       ****    0 ROOT    
