@<TRIPOS>MOLECULE
3R8
117   119    1
SMALL
USER_CHARGES


@<TRIPOS>ATOM
      1 CA         17.0152  -25.2521  -47.8776 C.3       0 UNK        -0.2013 
      2 C          17.4929  -26.3385  -46.9256 C.2       0 UNK         0.4866 
      3 O          17.9789  -27.3766  -47.3752 O.2       0 UNK        -0.5176 
      4 N          17.3499  -26.1127  -45.6142 N.am      1 UNK        -0.4884 
      5 CA         17.7956  -27.0228  -44.5563 C.3       1 UNK         0.0853 
      6 C6         17.2479  -26.5980  -43.1695 C.3       10 UNK        -0.0849 
      7 S7         15.4299  -26.6246  -43.0100 S.3       10 UNK        -0.2776 
      8 C8         14.9705  -28.3651  -43.3329 C.3       10 UNK         0.0316 
      9 C9         15.9320  -29.3959  -42.7475 C.ar      10 UNK        -0.0863 
     10 C10        16.4328  -30.4107  -43.5687 C.ar      10 UNK        -0.1009 
     11 C11        17.3234  -31.3608  -43.0646 C.ar      10 UNK        -0.0712 
     12 C12        17.7157  -31.2933  -41.7260 C.ar      10 UNK        -0.0894 
     13 C13        17.2155  -30.2916  -40.8892 C.ar      10 UNK        -0.0745 
     14 C14        16.3129  -29.3534  -41.4007 C.ar      10 UNK        -0.0972 
     15 C15        17.6346  -30.2510  -39.4274 C.3       10 UNK         0.0209 
     16 S16        19.3997  -29.8491  -39.2337 S.3       10 UNK        -0.2568 
     17 C17        19.3993  -28.0359  -39.4207 C.3       10 UNK        -0.0983 
     18 CA         20.6322  -27.5486  -40.2191 C.3       3 UNK         0.0876 
     19 N          20.5904  -28.0053  -41.6155 N.am      3 UNK        -0.4424 
     20 C          21.6041  -27.9579  -42.4934 C.2       2 UNK         0.4918 
     21 O          22.7250  -27.5346  -42.2160 O.2       2 UNK        -0.4875 
     22 CA         21.3143  -28.4436  -43.9227 C.3       2 UNK         0.0481 
     23 CB         21.7398  -29.9112  -44.0712 C.3       2 UNK        -0.1831 
     24 N          19.9023  -28.2736  -44.2916 N.am      2 UNK        -0.4498 
     25 C          19.3326  -27.0717  -44.4745 C.2       1 UNK         0.5027 
     26 O          19.9656  -26.0132  -44.4687 O.2       1 UNK        -0.4969 
     27 C          20.8332  -26.0242  -40.0638 C.2       3 UNK         0.5005 
     28 O          21.1352  -25.5733  -38.9582 O.2       3 UNK        -0.5279 
     29 N          20.7133  -25.2575  -41.1591 N.am      4 UNK        -0.4463 
     30 CA         21.1401  -23.8574  -41.2353 C.3       4 UNK         0.0283 
     31 CB         20.5180  -23.2100  -42.4831 C.3       4 UNK        -0.1875 
     32 C          22.6760  -23.7006  -41.2553 C.2       4 UNK         0.4949 
     33 O          23.1665  -22.5999  -41.0022 O.2       4 UNK        -0.5039 
     34 N          23.4005  -24.7861  -41.5586 N.am      5 UNK        -0.4663 
     35 CA         24.8549  -24.8699  -41.5932 C.3       5 UNK         0.0242 
     36 CB         25.3155  -24.9549  -43.0641 C.3       5 UNK        -0.1982 
     37 C          25.3002  -26.0528  -40.7140 C.2       5 UNK         0.5017 
     38 O          25.0781  -26.0158  -39.5031 O.2       5 UNK        -0.5012 
     39 N          25.9392  -27.0629  -41.3187 N.am      6 UNK        -0.4439 
     40 CA         26.5960  -28.1819  -40.6355 C.3       6 UNK         0.0297 
     41 CB         27.6580  -28.7717  -41.5799 C.3       6 UNK        -0.2006 
     42 C          25.6581  -29.2966  -40.1302 C.2       6 UNK         0.4892 
     43 O          26.1259  -30.1359  -39.3588 O.2       6 UNK        -0.5089 
     44 N          24.3898  -29.3044  -40.5722 N.am      7 UNK        -0.4243 
     45 CA         23.3734  -30.3525  -40.3719 C.3       7 UNK         0.0196 
     46 CB         23.1430  -30.6558  -38.8747 C.3       7 UNK        -0.2007 
     47 C          23.6454  -31.6267  -41.1964 C.2       7 UNK         0.5020 
     48 O          24.7080  -31.7593  -41.8053 O.2       7 UNK        -0.5147 
     49 N          22.6496  -32.5274  -41.2029 N.am      8 UNK        -0.4734 
     50 CA         22.5863  -33.8155  -41.9103 C.3       8 UNK         0.0238 
     51 CB         23.6936  -34.7758  -41.4265 C.3       8 UNK        -0.1912 
     52 C          22.5892  -33.6596  -43.4441 C.2       8 UNK         0.5038 
     53 O          23.6533  -33.5251  -44.0507 O.2       8 UNK        -0.5046 
     54 N          21.3921  -33.6990  -44.0459 N.am      9 UNK        -0.4200 
     55 CA         21.1855  -33.6333  -45.5059 C.3       9 UNK         0.0839 
     56 C          21.7134  -34.8648  -46.3008 C.2       9 UNK         0.5513 
     57 N          21.9877  -36.0001  -45.6689 N.am      9 UNK        -0.7519 
     58 O          21.8746  -34.7856  -47.5159 O.2       9 UNK        -0.4960 
     59 C59        19.7039  -33.3565  -45.8791 C.3       10 UNK        -0.0876 
     60 S60        19.0586  -31.8139  -45.1531 S.3       10 UNK        -0.2414 
     61 C61        17.8499  -32.4651  -43.9652 C.3       10 UNK         0.0169 
     62 H62        16.2471  -25.6467  -48.5422 H         1 UNK         0.0903 
     63 H63        16.5967  -24.3981  -47.3453 H         1 UNK         0.0903 
     64 H64        17.8452  -24.8974  -48.4882 H         1 UNK         0.0903 
     65 H65        16.9504  -25.2404  -45.2981 H         1 UNK         0.3096 
     66 H66        17.4335  -28.0226  -44.8008 H         1 UNK         0.1121 
     67 H67        17.6638  -27.2214  -42.3775 H         1 UNK         0.0849 
     68 H68        17.5754  -25.5833  -42.9325 H         1 UNK         0.0849 
     69 H69        13.9737  -28.5450  -42.9284 H         1 UNK         0.0865 
     70 H70        14.8842  -28.4935  -44.4131 H         1 UNK         0.0865 
     71 H71        16.1346  -30.4652  -44.6072 H         1 UNK         0.1346 
     72 H72        18.4064  -32.0241  -41.3279 H         1 UNK         0.1412 
     73 H73        15.9162  -28.5794  -40.7576 H         1 UNK         0.1426 
     74 H74        17.4488  -31.2289  -38.9811 H         1 UNK         0.0716 
     75 H75        17.0322  -29.5388  -38.8611 H         1 UNK         0.0716 
     76 H76        18.4763  -27.7052  -39.9001 H         1 UNK         0.0695 
     77 H77        19.3904  -27.6128  -38.4142 H         1 UNK         0.0695 
     78 H78        21.5189  -27.9921  -39.7613 H         1 UNK         0.0983 
     79 H79        19.7195  -28.4184  -41.9130 H         1 UNK         0.3095 
     80 H80        21.9222  -27.8459  -44.6052 H         1 UNK         0.0454 
     81 H81        22.7940  -30.0403  -43.8214 H         1 UNK         0.0851 
     82 H82        21.1689  -30.5699  -43.4159 H         1 UNK         0.0851 
     83 H83        21.6136  -30.2576  -45.0966 H         1 UNK         0.0851 
     84 H84        19.3357  -29.1106  -44.3325 H         1 UNK         0.2976 
     85 H85        20.4604  -25.6963  -42.0338 H         1 UNK         0.3116 
     86 H86        20.7648  -23.3318  -40.3546 H         1 UNK         0.0646 
     87 H87        20.7635  -22.1484  -42.5340 H         1 UNK         0.0847 
     88 H88        19.4309  -23.2903  -42.4754 H         1 UNK         0.0847 
     89 H89        20.8829  -23.6710  -43.4018 H         1 UNK         0.0847 
     90 H90        22.9228  -25.6666  -41.7232 H         1 UNK         0.3040 
     91 H91        25.2973  -23.9760  -41.1477 H         1 UNK         0.1015 
     92 H92        25.0140  -24.0634  -43.6146 H         1 UNK         0.0786 
     93 H93        24.8862  -25.8152  -43.5799 H         1 UNK         0.0786 
     94 H94        26.4020  -25.0185  -43.1393 H         1 UNK         0.0786 
     95 H95        26.0448  -27.0220  -42.3222 H         1 UNK         0.3172 
     96 H96        27.1137  -27.7838  -39.7600 H         1 UNK         0.0595 
     97 H97        28.2130  -29.5747  -41.0926 H         1 UNK         0.0839 
     98 H98        28.3855  -28.0188  -41.8838 H         1 UNK         0.0839 
     99 H99        27.2075  -29.1911  -42.4806 H         1 UNK         0.0839 
    100 H100       24.1142  -28.5630  -41.2082 H         1 UNK         0.2998 
    101 H101       22.4419  -29.9469  -40.7577 H         1 UNK         0.0822 
    102 H102       23.0181  -29.7387  -38.2990 H         1 UNK         0.0787 
    103 H103       22.2408  -31.2496  -38.7260 H         1 UNK         0.0787 
    104 H104       23.9690  -31.2176  -38.4380 H         1 UNK         0.0787 
    105 H105       21.8187  -32.2972  -40.6749 H         1 UNK         0.3055 
    106 H106       21.6351  -34.2698  -41.6271 H         1 UNK         0.1106 
    107 H107       24.6916  -34.4101  -41.6700 H         1 UNK         0.0828 
    108 H108       23.6466  -34.9242  -40.3478 H         1 UNK         0.0828 
    109 H109       23.5887  -35.7557  -41.8938 H         1 UNK         0.0828 
    110 H110       20.5599  -33.8123  -43.4882 H         1 UNK         0.2931 
    111 H111       21.7688  -32.7815  -45.8618 H         1 UNK         0.0412 
    112 H112       21.8571  -36.0791  -44.6736 H         1 UNK         0.3472 
    113 H113       22.3307  -36.7877  -46.1966 H         1 UNK         0.3472 
    114 H114       19.5978  -33.2658  -46.9621 H         1 UNK         0.0970 
    115 H115       19.0718  -34.1981  -45.5895 H         1 UNK         0.0970 
    116 H116       18.3110  -33.2549  -43.3705 H         1 UNK         0.0612 
    117 H117       17.0216  -32.9247  -44.5066 H         1 UNK         0.0612 
@<TRIPOS>BOND
     1    1    2 1    
     2    1   62 1    
     3    1   63 1    
     4    1   64 1    
     5    2    3 2    
     6    2    4 am   BACKBONE|DICT|INTERRES
     7    4    5 1    
     8    4   65 1    
     9    5    6 1    
    10    5   25 1    
    11    5   66 1    
    12    6    7 1    
    13    6   67 1    
    14    6   68 1    
    15    7    8 1    
    16    8    9 1    
    17    8   69 1    
    18    8   70 1    
    19    9   10 ar   
    20    9   14 ar   
    21   10   11 ar   
    22   10   71 1    
    23   11   12 ar   
    24   11   61 1    
    25   12   13 ar   
    26   12   72 1    
    27   13   14 ar   
    28   13   15 1    
    29   14   73 1    
    30   15   16 1    
    31   15   74 1    
    32   15   75 1    
    33   16   17 1    
    34   17   18 1    
    35   17   76 1    
    36   17   77 1    
    37   18   19 1    
    38   18   27 1    
    39   18   78 1    
    40   19   20 am   BACKBONE|DICT|INTERRES
    41   19   79 1    
    42   20   21 2    
    43   20   22 1    
    44   22   23 1    
    45   22   24 1    
    46   22   80 1    
    47   23   81 1    
    48   23   82 1    
    49   23   83 1    
    50   24   25 am   BACKBONE|DICT|INTERRES
    51   24   84 1    
    52   25   26 2    
    53   27   28 2    
    54   27   29 am   BACKBONE|DICT|INTERRES
    55   29   30 1    
    56   29   85 1    
    57   30   31 1    
    58   30   32 1    
    59   30   86 1    
    60   31   87 1    
    61   31   88 1    
    62   31   89 1    
    63   32   33 2    
    64   32   34 am   BACKBONE|DICT|INTERRES
    65   34   35 1    
    66   34   90 1    
    67   35   36 1    
    68   35   37 1    
    69   35   91 1    
    70   36   92 1    
    71   36   93 1    
    72   36   94 1    
    73   37   38 2    
    74   37   39 am   BACKBONE|DICT|INTERRES
    75   39   40 1    
    76   39   95 1    
    77   40   41 1    
    78   40   42 1    
    79   40   96 1    
    80   41   97 1    
    81   41   98 1    
    82   41   99 1    
    83   42   43 2    
    84   42   44 am   BACKBONE|DICT|INTERRES
    85   44   45 1    
    86   44  100 1    
    87   45   46 1    
    88   45   47 1    
    89   45  101 1    
    90   46  102 1    
    91   46  103 1    
    92   46  104 1    
    93   47   48 2    
    94   47   49 am   BACKBONE|DICT|INTERRES
    95   49   50 1    
    96   49  105 1    
    97   50   51 1    
    98   50   52 1    
    99   50  106 1    
   100   51  107 1    
   101   51  108 1    
   102   51  109 1    
   103   52   53 2    
   104   52   54 am   BACKBONE|DICT|INTERRES
   105   54   55 1    
   106   54  110 1    
   107   55   56 1    
   108   55   59 1    
   109   55  111 1    
   110   56   57 am   BACKBONE|DICT|INTERRES
   111   56   58 2    
   112   57  112 1    
   113   57  113 1    
   114   59   60 1    
   115   59  114 1    
   116   59  115 1    
   117   60   61 1    
   118   61  116 1    
   119   61  117 1    
@<TRIPOS>SUBSTRUCTURE
     1 UNK         1 GROUP             0       ****    0 ROOT    
