@<TRIPOS>MOLECULE
3R8
117   119    1
SMALL
USER_CHARGES


@<TRIPOS>ATOM
      1 CA         15.7302  -21.8368  -43.8362 C.3       0 UNK        -0.2013 
      2 C          16.7004  -22.6626  -44.6676 C.2       0 UNK         0.4866 
      3 O          17.5373  -22.0989  -45.3734 O.2       0 UNK        -0.5176 
      4 N          16.5896  -23.9943  -44.5975 N.am      1 UNK        -0.4884 
      5 CA         17.4773  -24.9530  -45.2592 C.3       1 UNK         0.0853 
      6 C6         16.8509  -26.3726  -45.3446 C.3       10 UNK        -0.0849 
      7 S7         16.0265  -26.9574  -43.8149 S.3       10 UNK        -0.2776 
      8 C8         15.5651  -28.6690  -44.2462 C.3       10 UNK         0.0316 
      9 C9         16.7732  -29.5937  -44.2332 C.ar      10 UNK        -0.0863 
     10 C10        17.1616  -30.2442  -43.0568 C.ar      10 UNK        -0.1009 
     11 C11        18.3131  -31.0384  -43.0358 C.ar      10 UNK        -0.0712 
     12 C12        19.0748  -31.1818  -44.1986 C.ar      10 UNK        -0.0894 
     13 C13        18.6905  -30.5397  -45.3770 C.ar      10 UNK        -0.0745 
     14 C14        17.5246  -29.7728  -45.3962 C.ar      10 UNK        -0.0972 
     15 C15        19.5525  -30.6228  -46.6223 C.3       10 UNK         0.0209 
     16 S16        20.4835  -29.0766  -46.8569 S.3       10 UNK        -0.2568 
     17 C17        21.8837  -29.2798  -45.6986 C.3       10 UNK        -0.0983 
     18 CA         21.9717  -28.2372  -44.5468 C.3       3 UNK         0.0876 
     19 N          21.5572  -26.8901  -44.9493 N.am      3 UNK        -0.4424 
     20 C          21.8991  -25.7581  -44.3225 C.2       2 UNK         0.4918 
     21 O          22.6175  -25.7249  -43.3228 O.2       2 UNK        -0.4875 
     22 CA         21.2938  -24.4550  -44.8681 C.3       2 UNK         0.0481 
     23 CB         22.1802  -23.8818  -45.9843 C.3       2 UNK        -0.1831 
     24 N          19.9146  -24.5980  -45.3539 N.am      2 UNK        -0.4498 
     25 C          18.8695  -24.9544  -44.5904 C.2       1 UNK         0.5027 
     26 O          18.9760  -25.2697  -43.4043 O.2       1 UNK        -0.4969 
     27 C          21.3699  -28.7172  -43.2058 C.2       3 UNK         0.5005 
     28 O          21.8468  -29.7232  -42.6829 O.2       3 UNK        -0.5279 
     29 N          20.4141  -27.9767  -42.6186 N.am      4 UNK        -0.4463 
     30 CA         19.9799  -28.1776  -41.2313 C.3       4 UNK         0.0283 
     31 CB         18.6329  -27.4806  -40.9930 C.3       4 UNK        -0.1875 
     32 C          21.0184  -27.6956  -40.2023 C.2       4 UNK         0.4949 
     33 O          21.0128  -28.1899  -39.0749 O.2       4 UNK        -0.5039 
     34 N          21.8741  -26.7414  -40.5946 N.am      5 UNK        -0.4663 
     35 CA         22.9624  -26.2103  -39.7734 C.3       5 UNK         0.0242 
     36 CB         22.9518  -24.6745  -39.8518 C.3       5 UNK        -0.1982 
     37 C          24.3211  -26.7612  -40.2279 C.2       5 UNK         0.5017 
     38 O          25.1478  -27.0998  -39.3810 O.2       5 UNK        -0.5012 
     39 N          24.5353  -26.8324  -41.5498 N.am      6 UNK        -0.4439 
     40 CA         25.7988  -27.2413  -42.1701 C.3       6 UNK         0.0297 
     41 CB         25.8500  -26.7035  -43.6108 C.3       6 UNK        -0.2006 
     42 C          26.0712  -28.7579  -42.1418 C.2       6 UNK         0.4892 
     43 O          27.1949  -29.1562  -42.4526 O.2       6 UNK        -0.5089 
     44 N          25.0738  -29.5765  -41.7851 N.am      7 UNK        -0.4243 
     45 CA         25.1898  -31.0274  -41.6522 C.3       7 UNK         0.0196 
     46 CB         24.7299  -31.7048  -42.9571 C.3       7 UNK        -0.2007 
     47 C          24.3687  -31.5051  -40.4477 C.2       7 UNK         0.5020 
     48 O          23.5458  -30.7564  -39.9180 O.2       7 UNK        -0.5147 
     49 N          24.6089  -32.7575  -40.0395 N.am      8 UNK        -0.4734 
     50 CA         23.9426  -33.4152  -38.9074 C.3       8 UNK         0.0238 
     51 CB         24.8713  -34.5144  -38.3619 C.3       8 UNK        -0.1912 
     52 C          22.5566  -33.9992  -39.2484 C.2       8 UNK         0.5038 
     53 O          21.8801  -34.4922  -38.3442 O.2       8 UNK        -0.5046 
     54 N          22.1630  -33.9441  -40.5276 N.am      9 UNK        -0.4200 
     55 CA         20.9395  -34.5288  -41.0967 C.3       9 UNK         0.0839 
     56 C          20.9788  -36.0833  -41.1927 C.2       9 UNK         0.5513 
     57 N          19.8783  -36.7119  -41.5832 N.am      9 UNK        -0.7519 
     58 O          22.0005  -36.7260  -40.9574 O.2       9 UNK        -0.4960 
     59 C59        19.6358  -33.9723  -40.4395 C.3       10 UNK        -0.0876 
     60 S60        18.4112  -33.4607  -41.6899 S.3       10 UNK        -0.2414 
     61 C61        18.7881  -31.6850  -41.7467 C.3       10 UNK         0.0169 
     62 H62        15.0417  -22.4643  -43.2704 H         1 UNK         0.0903 
     63 H63        16.2782  -21.2130  -43.1305 H         1 UNK         0.0903 
     64 H64        15.1423  -21.1855  -44.4823 H         1 UNK         0.0903 
     65 H65        15.9088  -24.4129  -43.9781 H         1 UNK         0.3096 
     66 H66        17.6107  -24.6083  -46.2874 H         1 UNK         0.1121 
     67 H67        16.1020  -26.3828  -46.1381 H         1 UNK         0.0849 
     68 H68        17.6109  -27.0917  -45.6495 H         1 UNK         0.0849 
     69 H69        14.8224  -29.0245  -43.5304 H         1 UNK         0.0865 
     70 H70        15.0774  -28.6858  -45.2221 H         1 UNK         0.0865 
     71 H71        16.5870  -30.1056  -42.1512 H         1 UNK         0.1346 
     72 H72        19.9840  -31.7669  -44.1728 H         1 UNK         0.1412 
     73 H73        17.2312  -29.2754  -46.3104 H         1 UNK         0.1426 
     74 H74        18.9154  -30.7872  -47.4926 H         1 UNK         0.0716 
     75 H75        20.2354  -31.4726  -46.5783 H         1 UNK         0.0716 
     76 H76        22.7852  -29.1937  -46.3073 H         1 UNK         0.0695 
     77 H77        21.9084  -30.3011  -45.3141 H         1 UNK         0.0695 
     78 H78        23.0353  -28.1618  -44.3162 H         1 UNK         0.0983 
     79 H79        20.9511  -26.8435  -45.7561 H         1 UNK         0.3095 
     80 H80        21.2782  -23.7356  -44.0467 H         1 UNK         0.0454 
     81 H81        23.2064  -23.7497  -45.6380 H         1 UNK         0.0851 
     82 H82        22.2127  -24.5378  -46.8551 H         1 UNK         0.0851 
     83 H83        21.8244  -22.9049  -46.3120 H         1 UNK         0.0851 
     84 H84        19.7475  -24.3335  -46.3146 H         1 UNK         0.2976 
     85 H85        20.0467  -27.1607  -43.0941 H         1 UNK         0.3116 
     86 H86        19.8377  -29.2446  -41.0664 H         1 UNK         0.0646 
     87 H87        18.2472  -27.7108  -39.9992 H         1 UNK         0.0847 
     88 H88        17.8849  -27.8069  -41.7132 H         1 UNK         0.0847 
     89 H89        18.7180  -26.3961  -41.0633 H         1 UNK         0.0847 
     90 H90        21.8110  -26.3919  -41.5435 H         1 UNK         0.3040 
     91 H91        22.8251  -26.4948  -38.7276 H         1 UNK         0.1015 
     92 H92        22.0137  -24.2674  -39.4743 H         1 UNK         0.0786 
     93 H93        23.0831  -24.3171  -40.8741 H         1 UNK         0.0786 
     94 H94        23.7554  -24.2474  -39.2503 H         1 UNK         0.0786 
     95 H95        23.8165  -26.4804  -42.1783 H         1 UNK         0.3172 
     96 H96        26.6104  -26.7665  -41.6146 H         1 UNK         0.0595 
     97 H97        26.8177  -26.9104  -44.0698 H         1 UNK         0.0839 
     98 H98        25.7064  -25.6231  -43.6377 H         1 UNK         0.0839 
     99 H99        25.0898  -27.1577  -44.2445 H         1 UNK         0.0839 
    100 H100       24.1873  -29.1918  -41.4820 H         1 UNK         0.2998 
    101 H101       26.2312  -31.2948  -41.4591 H         1 UNK         0.0822 
    102 H102       23.6755  -31.5182  -43.1606 H         1 UNK         0.0787 
    103 H103       25.3020  -31.3442  -43.8121 H         1 UNK         0.0787 
    104 H104       24.8672  -32.7856  -42.9127 H         1 UNK         0.0787 
    105 H105       25.3019  -33.3048  -40.5314 H         1 UNK         0.3055 
    106 H106       23.7874  -32.6779  -38.1160 H         1 UNK         0.1106 
    107 H107       25.0510  -35.2953  -39.1020 H         1 UNK         0.0828 
    108 H108       25.8362  -34.1068  -38.0599 H         1 UNK         0.0828 
    109 H109       24.4375  -34.9941  -37.4833 H         1 UNK         0.0828 
    110 H110       22.8022  -33.5367  -41.1928 H         1 UNK         0.2931 
    111 H111       20.9765  -34.1935  -42.1341 H         1 UNK         0.0412 
    112 H112       19.8860  -37.7167  -41.6669 H         1 UNK         0.3472 
    113 H113       19.0412  -36.1927  -41.8020 H         1 UNK         0.3472 
    114 H114       19.1796  -34.7008  -39.7664 H         1 UNK         0.0970 
    115 H115       19.8528  -33.1122  -39.8039 H         1 UNK         0.0970 
    116 H116       18.3417  -31.1967  -40.8791 H         1 UNK         0.0612 
    117 H117       19.8673  -31.5432  -41.6625 H         1 UNK         0.0612 
@<TRIPOS>BOND
     1    1    2 1    
     2    1   62 1    
     3    1   63 1    
     4    1   64 1    
     5    2    3 2    
     6    2    4 am   BACKBONE|DICT|INTERRES
     7    4    5 1    
     8    4   65 1    
     9    5    6 1    
    10    5   25 1    
    11    5   66 1    
    12    6    7 1    
    13    6   67 1    
    14    6   68 1    
    15    7    8 1    
    16    8    9 1    
    17    8   69 1    
    18    8   70 1    
    19    9   10 ar   
    20    9   14 ar   
    21   10   11 ar   
    22   10   71 1    
    23   11   12 ar   
    24   11   61 1    
    25   12   13 ar   
    26   12   72 1    
    27   13   14 ar   
    28   13   15 1    
    29   14   73 1    
    30   15   16 1    
    31   15   74 1    
    32   15   75 1    
    33   16   17 1    
    34   17   18 1    
    35   17   76 1    
    36   17   77 1    
    37   18   19 1    
    38   18   27 1    
    39   18   78 1    
    40   19   20 am   BACKBONE|DICT|INTERRES
    41   19   79 1    
    42   20   21 2    
    43   20   22 1    
    44   22   23 1    
    45   22   24 1    
    46   22   80 1    
    47   23   81 1    
    48   23   82 1    
    49   23   83 1    
    50   24   25 am   BACKBONE|DICT|INTERRES
    51   24   84 1    
    52   25   26 2    
    53   27   28 2    
    54   27   29 am   BACKBONE|DICT|INTERRES
    55   29   30 1    
    56   29   85 1    
    57   30   31 1    
    58   30   32 1    
    59   30   86 1    
    60   31   87 1    
    61   31   88 1    
    62   31   89 1    
    63   32   33 2    
    64   32   34 am   BACKBONE|DICT|INTERRES
    65   34   35 1    
    66   34   90 1    
    67   35   36 1    
    68   35   37 1    
    69   35   91 1    
    70   36   92 1    
    71   36   93 1    
    72   36   94 1    
    73   37   38 2    
    74   37   39 am   BACKBONE|DICT|INTERRES
    75   39   40 1    
    76   39   95 1    
    77   40   41 1    
    78   40   42 1    
    79   40   96 1    
    80   41   97 1    
    81   41   98 1    
    82   41   99 1    
    83   42   43 2    
    84   42   44 am   BACKBONE|DICT|INTERRES
    85   44   45 1    
    86   44  100 1    
    87   45   46 1    
    88   45   47 1    
    89   45  101 1    
    90   46  102 1    
    91   46  103 1    
    92   46  104 1    
    93   47   48 2    
    94   47   49 am   BACKBONE|DICT|INTERRES
    95   49   50 1    
    96   49  105 1    
    97   50   51 1    
    98   50   52 1    
    99   50  106 1    
   100   51  107 1    
   101   51  108 1    
   102   51  109 1    
   103   52   53 2    
   104   52   54 am   BACKBONE|DICT|INTERRES
   105   54   55 1    
   106   54  110 1    
   107   55   56 1    
   108   55   59 1    
   109   55  111 1    
   110   56   57 am   BACKBONE|DICT|INTERRES
   111   56   58 2    
   112   57  112 1    
   113   57  113 1    
   114   59   60 1    
   115   59  114 1    
   116   59  115 1    
   117   60   61 1    
   118   61  116 1    
   119   61  117 1    
@<TRIPOS>SUBSTRUCTURE
     1 UNK         1 GROUP             0       ****    0 ROOT    
