@<TRIPOS>MOLECULE
3R8
117   119    1
SMALL
USER_CHARGES


@<TRIPOS>ATOM
      1 CA         14.5991  -29.7079  -38.8282 C.3       0 UNK        -0.2013 
      2 C          15.2085  -28.8334  -39.9136 C.2       0 UNK         0.4866 
      3 O          15.7018  -27.7449  -39.6168 O.2       0 UNK        -0.5176 
      4 N          15.1732  -29.2985  -41.1695 N.am      1 UNK        -0.4884 
      5 CA         15.8039  -28.6452  -42.3219 C.3       1 UNK         0.0853 
      6 C6         15.2906  -29.2558  -43.6475 C.3       10 UNK        -0.0849 
      7 S7         15.5981  -28.1846  -45.0947 S.3       10 UNK        -0.2776 
      8 C8         16.3421  -29.3522  -46.2789 C.3       10 UNK         0.0316 
      9 C9         17.8534  -29.4582  -46.1237 C.ar      10 UNK        -0.0863 
     10 C10        18.4128  -30.3096  -45.1677 C.ar      10 UNK        -0.1009 
     11 C11        19.8007  -30.4522  -45.0579 C.ar      10 UNK        -0.0712 
     12 C12        20.6330  -29.7245  -45.9144 C.ar      10 UNK        -0.0894 
     13 C13        20.0864  -28.8656  -46.8731 C.ar      10 UNK        -0.0745 
     14 C14        18.6978  -28.7340  -46.9696 C.ar      10 UNK        -0.0972 
     15 C15        20.9857  -28.1015  -47.8325 C.3       10 UNK         0.0209 
     16 S16        21.2207  -26.3725  -47.3171 S.3       10 UNK        -0.2568 
     17 C17        22.5600  -26.5129  -46.0899 C.3       10 UNK        -0.0983 
     18 CA         22.1601  -25.9226  -44.7147 C.3       3 UNK         0.0876 
     19 N          21.2867  -26.8109  -43.9573 N.am      3 UNK        -0.4424 
     20 C          19.9923  -26.6383  -43.6941 C.2       2 UNK         0.4918 
     21 O          19.2612  -25.8068  -44.2369 O.2       2 UNK        -0.4875 
     22 CA         19.4671  -27.4909  -42.5352 C.3       2 UNK         0.0481 
     23 CB         19.8067  -26.8147  -41.1921 C.3       2 UNK        -0.1831 
     24 N          18.0230  -27.6501  -42.6397 N.am      2 UNK        -0.4498 
     25 C          17.3409  -28.7140  -42.2032 C.2       1 UNK         0.5027 
     26 O          17.8693  -29.7207  -41.7192 O.2       1 UNK        -0.4969 
     27 C          23.4000  -25.7329  -43.8217 C.2       3 UNK         0.5005 
     28 O          23.6274  -26.5470  -42.9212 O.2       3 UNK        -0.5279 
     29 N          24.2007  -24.6919  -44.0893 N.am      4 UNK        -0.4463 
     30 CA         25.3808  -24.3096  -43.2966 C.3       4 UNK         0.0283 
     31 CB         25.9846  -23.0215  -43.8797 C.3       4 UNK        -0.1875 
     32 C          26.4691  -25.3953  -43.1629 C.2       4 UNK         0.4949 
     33 O          27.2266  -25.3716  -42.1928 O.2       4 UNK        -0.5039 
     34 N          26.5251  -26.3235  -44.1264 N.am      5 UNK        -0.4663 
     35 CA         27.4311  -27.4741  -44.1283 C.3       5 UNK         0.0242 
     36 CB         27.7099  -27.8700  -45.5887 C.3       5 UNK        -0.1982 
     37 C          26.8971  -28.6858  -43.3371 C.2       5 UNK         0.5017 
     38 O          27.6543  -29.6388  -43.1455 O.2       5 UNK        -0.5012 
     39 N          25.6229  -28.6607  -42.9217 N.am      6 UNK        -0.4439 
     40 CA         24.9431  -29.7529  -42.2230 C.3       6 UNK         0.0297 
     41 CB         23.5981  -30.0196  -42.9220 C.3       6 UNK        -0.2006 
     42 C          24.7186  -29.4069  -40.7433 C.2       6 UNK         0.4892 
     43 O          24.8796  -28.2542  -40.3376 O.2       6 UNK        -0.5089 
     44 N          24.3160  -30.4228  -39.9708 N.am      7 UNK        -0.4243 
     45 CA         23.9881  -30.3300  -38.5466 C.3       7 UNK         0.0196 
     46 CB         24.9117  -31.2787  -37.7575 C.3       7 UNK        -0.2007 
     47 C          22.4942  -30.6291  -38.3245 C.2       7 UNK         0.5020 
     48 O          22.1540  -31.4311  -37.4543 O.2       7 UNK        -0.5147 
     49 N          21.6363  -29.9789  -39.1273 N.am      8 UNK        -0.4734 
     50 CA         20.1676  -30.0694  -39.1311 C.3       8 UNK         0.0238 
     51 CB         19.5743  -29.4396  -37.8532 C.3       8 UNK        -0.1912 
     52 C          19.6593  -31.5001  -39.3860 C.2       8 UNK         0.5038 
     53 O          19.0962  -32.1326  -38.4897 O.2       8 UNK        -0.5046 
     54 N          19.9028  -31.9845  -40.6100 N.am      9 UNK        -0.4200 
     55 CA         19.5053  -33.3168  -41.0872 C.3       9 UNK         0.0839 
     56 C          17.9684  -33.5610  -41.1795 C.2       9 UNK         0.5513 
     57 N          17.1340  -32.5297  -41.2506 N.am      9 UNK        -0.7519 
     58 O          17.5310  -34.7090  -41.1754 O.2       9 UNK        -0.4960 
     59 C59        20.2682  -33.7056  -42.3872 C.3       10 UNK        -0.0876 
     60 S60        19.6032  -33.0000  -43.9388 S.3       10 UNK        -0.2414 
     61 C61        20.4046  -31.3660  -43.9983 C.3       10 UNK         0.0169 
     62 H62        15.3603  -29.9808  -38.0976 H         1 UNK         0.0903 
     63 H63        13.8069  -29.1677  -38.3106 H         1 UNK         0.0903 
     64 H64        14.1748  -30.6263  -39.2336 H         1 UNK         0.0903 
     65 H65        14.7697  -30.2067  -41.3472 H         1 UNK         0.3096 
     66 H66        15.5078  -27.5938  -42.2899 H         1 UNK         0.1121 
     67 H67        15.6997  -30.2551  -43.8013 H         1 UNK         0.0849 
     68 H68        14.2090  -29.3909  -43.5933 H         1 UNK         0.0849 
     69 H69        15.8819  -30.3365  -46.1795 H         1 UNK         0.0865 
     70 H70        16.0987  -29.0163  -47.2881 H         1 UNK         0.0865 
     71 H71        17.7691  -30.8726  -44.5074 H         1 UNK         0.1346 
     72 H72        21.7066  -29.8264  -45.8377 H         1 UNK         0.1412 
     73 H73        18.2756  -28.0730  -47.7145 H         1 UNK         0.1426 
     74 H74        20.5356  -28.1076  -48.8264 H         1 UNK         0.0716 
     75 H75        21.9529  -28.5948  -47.9402 H         1 UNK         0.0716 
     76 H76        22.8759  -27.5525  -45.9863 H         1 UNK         0.0695 
     77 H77        23.4154  -25.9803  -46.5097 H         1 UNK         0.0695 
     78 H78        21.6860  -24.9468  -44.8440 H         1 UNK         0.0983 
     79 H79        21.8158  -27.4395  -43.3677 H         1 UNK         0.3095 
     80 H80        19.9458  -28.4710  -42.5836 H         1 UNK         0.0454 
     81 H81        20.8817  -26.8228  -41.0074 H         1 UNK         0.0851 
     82 H82        19.4831  -25.7730  -41.1774 H         1 UNK         0.0851 
     83 H83        19.3243  -27.3087  -40.3501 H         1 UNK         0.0851 
     84 H84        17.5440  -26.8976  -43.1184 H         1 UNK         0.2976 
     85 H85        23.9592  -24.0786  -44.8555 H         1 UNK         0.3116 
     86 H86        25.0296  -24.0908  -42.2859 H         1 UNK         0.0646 
     87 H87        26.8461  -22.6942  -43.2956 H         1 UNK         0.0847 
     88 H88        25.2641  -22.2035  -43.8721 H         1 UNK         0.0847 
     89 H89        26.3240  -23.1635  -44.9065 H         1 UNK         0.0847 
     90 H90        25.8673  -26.2595  -44.8892 H         1 UNK         0.3040 
     91 H91        28.3787  -27.1837  -43.6685 H         1 UNK         0.1015 
     92 H92        26.8009  -28.1855  -46.1026 H         1 UNK         0.0786 
     93 H93        28.4181  -28.6982  -45.6422 H         1 UNK         0.0786 
     94 H94        28.1433  -27.0412  -46.1490 H         1 UNK         0.0786 
     95 H95        25.0895  -27.7981  -43.0014 H         1 UNK         0.3172 
     96 H96        25.5411  -30.6654  -42.2697 H         1 UNK         0.0595 
     97 H97        23.0984  -30.8877  -42.4915 H         1 UNK         0.0839 
     98 H98        22.9182  -29.1731  -42.8316 H         1 UNK         0.0839 
     99 H99        23.7389  -30.2239  -43.9836 H         1 UNK         0.0839 
    100 H100       24.1865  -31.3317  -40.3938 H         1 UNK         0.2998 
    101 H101       24.1592  -29.3166  -38.1771 H         1 UNK         0.0822 
    102 H102       24.7254  -31.2059  -36.6851 H         1 UNK         0.0787 
    103 H103       24.7637  -32.3201  -38.0462 H         1 UNK         0.0787 
    104 H104       25.9613  -31.0323  -37.9188 H         1 UNK         0.0787 
    105 H105       22.0383  -29.3481  -39.8066 H         1 UNK         0.3055 
    106 H106       19.8198  -29.4758  -39.9748 H         1 UNK         0.1106 
    107 H107       19.8705  -29.9823  -36.9550 H         1 UNK         0.0828 
    108 H108       19.8904  -28.4029  -37.7386 H         1 UNK         0.0828 
    109 H109       18.4840  -29.4431  -37.8907 H         1 UNK         0.0828 
    110 H110       20.3388  -31.3830  -41.2893 H         1 UNK         0.2931 
    111 H111       19.8554  -34.0085  -40.3181 H         1 UNK         0.0412 
    112 H112       16.1450  -32.7072  -41.3040 H         1 UNK         0.3472 
    113 H113       17.4885  -31.5794  -41.3011 H         1 UNK         0.3472 
    114 H114       20.2400  -34.7909  -42.4991 H         1 UNK         0.0970 
    115 H115       21.3273  -33.4579  -42.3003 H         1 UNK         0.0970 
    116 H116       21.4684  -31.5171  -44.1820 H         1 UNK         0.0612 
    117 H117       20.3101  -30.8699  -43.0341 H         1 UNK         0.0612 
@<TRIPOS>BOND
     1    1    2 1    
     2    1   62 1    
     3    1   63 1    
     4    1   64 1    
     5    2    3 2    
     6    2    4 am   BACKBONE|DICT|INTERRES
     7    4    5 1    
     8    4   65 1    
     9    5    6 1    
    10    5   25 1    
    11    5   66 1    
    12    6    7 1    
    13    6   67 1    
    14    6   68 1    
    15    7    8 1    
    16    8    9 1    
    17    8   69 1    
    18    8   70 1    
    19    9   10 ar   
    20    9   14 ar   
    21   10   11 ar   
    22   10   71 1    
    23   11   12 ar   
    24   11   61 1    
    25   12   13 ar   
    26   12   72 1    
    27   13   14 ar   
    28   13   15 1    
    29   14   73 1    
    30   15   16 1    
    31   15   74 1    
    32   15   75 1    
    33   16   17 1    
    34   17   18 1    
    35   17   76 1    
    36   17   77 1    
    37   18   19 1    
    38   18   27 1    
    39   18   78 1    
    40   19   20 am   BACKBONE|DICT|INTERRES
    41   19   79 1    
    42   20   21 2    
    43   20   22 1    
    44   22   23 1    
    45   22   24 1    
    46   22   80 1    
    47   23   81 1    
    48   23   82 1    
    49   23   83 1    
    50   24   25 am   BACKBONE|DICT|INTERRES
    51   24   84 1    
    52   25   26 2    
    53   27   28 2    
    54   27   29 am   BACKBONE|DICT|INTERRES
    55   29   30 1    
    56   29   85 1    
    57   30   31 1    
    58   30   32 1    
    59   30   86 1    
    60   31   87 1    
    61   31   88 1    
    62   31   89 1    
    63   32   33 2    
    64   32   34 am   BACKBONE|DICT|INTERRES
    65   34   35 1    
    66   34   90 1    
    67   35   36 1    
    68   35   37 1    
    69   35   91 1    
    70   36   92 1    
    71   36   93 1    
    72   36   94 1    
    73   37   38 2    
    74   37   39 am   BACKBONE|DICT|INTERRES
    75   39   40 1    
    76   39   95 1    
    77   40   41 1    
    78   40   42 1    
    79   40   96 1    
    80   41   97 1    
    81   41   98 1    
    82   41   99 1    
    83   42   43 2    
    84   42   44 am   BACKBONE|DICT|INTERRES
    85   44   45 1    
    86   44  100 1    
    87   45   46 1    
    88   45   47 1    
    89   45  101 1    
    90   46  102 1    
    91   46  103 1    
    92   46  104 1    
    93   47   48 2    
    94   47   49 am   BACKBONE|DICT|INTERRES
    95   49   50 1    
    96   49  105 1    
    97   50   51 1    
    98   50   52 1    
    99   50  106 1    
   100   51  107 1    
   101   51  108 1    
   102   51  109 1    
   103   52   53 2    
   104   52   54 am   BACKBONE|DICT|INTERRES
   105   54   55 1    
   106   54  110 1    
   107   55   56 1    
   108   55   59 1    
   109   55  111 1    
   110   56   57 am   BACKBONE|DICT|INTERRES
   111   56   58 2    
   112   57  112 1    
   113   57  113 1    
   114   59   60 1    
   115   59  114 1    
   116   59  115 1    
   117   60   61 1    
   118   61  116 1    
   119   61  117 1    
@<TRIPOS>SUBSTRUCTURE
     1 UNK         1 GROUP             0       ****    0 ROOT    
