@<TRIPOS>MOLECULE
3R8
117   119    1
SMALL
USER_CHARGES


@<TRIPOS>ATOM
      1 CA         19.1811  -28.1687  -41.3542 C.3       0 UNK        -0.2013 
      2 C          18.3346  -27.0878  -42.0059 C.2       0 UNK         0.4866 
      3 O          18.1460  -26.0334  -41.4005 O.2       0 UNK        -0.5176 
      4 N          17.8360  -27.3253  -43.2302 N.am      1 UNK        -0.4884 
      5 CA         17.1364  -26.3202  -44.0401 C.3       1 UNK         0.0853 
      6 C6         16.0226  -26.9299  -44.9460 C.3       10 UNK        -0.0849 
      7 S7         16.5230  -28.0229  -46.3305 S.3       10 UNK        -0.2776 
      8 C8         16.0698  -29.6862  -45.7508 C.3       10 UNK         0.0316 
      9 C9         17.1304  -30.2604  -44.8266 C.ar      10 UNK        -0.0863 
     10 C10        16.8265  -30.5530  -43.4953 C.ar      10 UNK        -0.1009 
     11 C11        17.7938  -31.0882  -42.6398 C.ar      10 UNK        -0.0712 
     12 C12        19.0838  -31.3203  -43.1413 C.ar      10 UNK        -0.0894 
     13 C13        19.4043  -31.0303  -44.4713 C.ar      10 UNK        -0.0745 
     14 C14        18.4161  -30.5140  -45.3118 C.ar      10 UNK        -0.0972 
     15 C15        20.8047  -31.3160  -45.0069 C.3       10 UNK         0.0209 
     16 S16        21.5872  -29.8763  -45.8136 S.3       10 UNK        -0.2568 
     17 C17        21.9927  -28.8074  -44.3915 C.3       10 UNK        -0.0983 
     18 CA         22.2112  -27.3293  -44.8014 C.3       3 UNK         0.0876 
     19 N          21.0496  -26.7784  -45.5082 N.am      3 UNK        -0.4424 
     20 C          21.0169  -25.6120  -46.1704 C.2       2 UNK         0.4918 
     21 O          21.9949  -24.8808  -46.3250 O.2       2 UNK        -0.4875 
     22 CA         19.6527  -25.1786  -46.7407 C.3       2 UNK         0.0481 
     23 CB         19.5363  -25.5817  -48.2188 C.3       2 UNK        -0.1831 
     24 N          18.5256  -25.7467  -45.9956 N.am      2 UNK        -0.4498 
     25 C          18.1862  -25.4278  -44.7410 C.2       1 UNK         0.5027 
     26 O          18.7242  -24.5144  -44.1138 O.2       1 UNK        -0.4969 
     27 C          22.6014  -26.4729  -43.5759 C.2       3 UNK         0.5005 
     28 O          23.7886  -26.3718  -43.2611 O.2       3 UNK        -0.5279 
     29 N          21.5993  -25.8479  -42.9347 N.am      4 UNK        -0.4463 
     30 CA         21.7006  -24.8931  -41.8275 C.3       4 UNK         0.0283 
     31 CB         22.1168  -23.5112  -42.3803 C.3       4 UNK        -0.1875 
     32 C          22.5833  -25.4068  -40.6715 C.2       4 UNK         0.4949 
     33 O          22.2900  -26.4633  -40.1095 O.2       4 UNK        -0.5039 
     34 N          23.6569  -24.6711  -40.3531 N.am      5 UNK        -0.4663 
     35 CA         24.6095  -24.9568  -39.2765 C.3       5 UNK         0.0242 
     36 CB         25.5773  -23.7691  -39.1435 C.3       5 UNK        -0.1982 
     37 C          25.3931  -26.2744  -39.4282 C.2       5 UNK         0.5017 
     38 O          25.9521  -26.7428  -38.4357 O.2       5 UNK        -0.5012 
     39 N          25.4218  -26.8587  -40.6364 N.am      6 UNK        -0.4439 
     40 CA         26.0320  -28.1666  -40.8916 C.3       6 UNK         0.0297 
     41 CB         26.2910  -28.3334  -42.3980 C.3       6 UNK        -0.2006 
     42 C          25.1914  -29.3442  -40.3624 C.2       6 UNK         0.4892 
     43 O          25.7401  -30.4396  -40.2358 O.2       6 UNK        -0.5089 
     44 N          23.8979  -29.1106  -40.0752 N.am      7 UNK        -0.4243 
     45 CA         22.8854  -30.0971  -39.6826 C.3       7 UNK         0.0196 
     46 CB         23.1823  -30.6836  -38.2837 C.3       7 UNK        -0.2007 
     47 C          22.7053  -31.1488  -40.7906 C.2       7 UNK         0.5020 
     48 O          22.1398  -30.8097  -41.8264 O.2       7 UNK        -0.5147 
     49 N          23.2089  -32.3737  -40.5737 N.am      8 UNK        -0.4734 
     50 CA         23.2699  -33.4874  -41.5338 C.3       8 UNK         0.0238 
     51 CB         24.2028  -33.1343  -42.7137 C.3       8 UNK        -0.1912 
     52 C          21.8863  -33.9863  -41.9973 C.2       8 UNK         0.5038 
     53 O          21.7256  -34.3724  -43.1565 O.2       8 UNK        -0.5046 
     54 N          20.9140  -33.9717  -41.0774 N.am      9 UNK        -0.4200 
     55 CA         19.5225  -34.3911  -41.3128 C.3       9 UNK         0.0839 
     56 C          19.3132  -35.9292  -41.4320 C.2       9 UNK         0.5513 
     57 N          20.2937  -36.7648  -41.1106 N.am      9 UNK        -0.7519 
     58 O          18.2377  -36.3721  -41.8268 O.2       9 UNK        -0.4960 
     59 C59        18.5532  -33.7836  -40.2650 C.3       10 UNK        -0.0876 
     60 S60        18.7024  -31.9712  -40.0758 S.3       10 UNK        -0.2414 
     61 C61        17.3866  -31.3619  -41.1884 C.3       10 UNK         0.0169 
     62 H62        18.6212  -28.6654  -40.5635 H         1 UNK         0.0903 
     63 H63        19.5100  -28.9155  -42.0709 H         1 UNK         0.0903 
     64 H64        20.0728  -27.7302  -40.9083 H         1 UNK         0.0903 
     65 H65        17.9783  -28.2255  -43.6708 H         1 UNK         0.3096 
     66 H66        16.6095  -25.6495  -43.3566 H         1 UNK         0.1121 
     67 H67        15.3127  -27.4681  -44.3161 H         1 UNK         0.0849 
     68 H68        15.4420  -26.1156  -45.3832 H         1 UNK         0.0849 
     69 H69        15.0892  -29.6617  -45.2730 H         1 UNK         0.0865 
     70 H70        15.9685  -30.3426  -46.6163 H         1 UNK         0.0865 
     71 H71        15.8304  -30.3611  -43.1191 H         1 UNK         0.1346 
     72 H72        19.8553  -31.7188  -42.5010 H         1 UNK         0.1412 
     73 H73        18.6511  -30.2995  -46.3459 H         1 UNK         0.1426 
     74 H74        20.7350  -32.1254  -45.7344 H         1 UNK         0.0716 
     75 H75        21.4619  -31.6779  -44.2159 H         1 UNK         0.0716 
     76 H76        21.1946  -28.8868  -43.6534 H         1 UNK         0.0695 
     77 H77        22.8904  -29.2083  -43.9166 H         1 UNK         0.0695 
     78 H78        23.0574  -27.2932  -45.4912 H         1 UNK         0.0983 
     79 H79        20.2118  -27.3395  -45.4870 H         1 UNK         0.3095 
     80 H80        19.5927  -24.0903  -46.6746 H         1 UNK         0.0454 
     81 H81        19.5773  -26.6641  -48.3480 H         1 UNK         0.0851 
     82 H82        18.6023  -25.2268  -48.6546 H         1 UNK         0.0851 
     83 H83        20.3497  -25.1522  -48.8054 H         1 UNK         0.0851 
     84 H84        18.0172  -26.5069  -46.4345 H         1 UNK         0.2976 
     85 H85        20.6641  -25.9833  -43.2903 H         1 UNK         0.3116 
     86 H86        20.6954  -24.7924  -41.4158 H         1 UNK         0.0646 
     87 H87        22.1265  -22.7525  -41.5965 H         1 UNK         0.0847 
     88 H88        21.4099  -23.1705  -43.1375 H         1 UNK         0.0847 
     89 H89        23.1035  -23.5335  -42.8449 H         1 UNK         0.0847 
     90 H90        23.8315  -23.8363  -40.8938 H         1 UNK         0.3040 
     91 H91        24.0379  -25.0383  -38.3493 H         1 UNK         0.1015 
     92 H92        25.0438  -22.8423  -38.9317 H         1 UNK         0.0786 
     93 H93        26.1621  -23.6220  -40.0526 H         1 UNK         0.0786 
     94 H94        26.2818  -23.9272  -38.3255 H         1 UNK         0.0786 
     95 H95        24.9181  -26.4298  -41.4065 H         1 UNK         0.3172 
     96 H96        26.9977  -28.1972  -40.3825 H         1 UNK         0.0595 
     97 H97        26.8716  -29.2362  -42.5923 H         1 UNK         0.0839 
     98 H98        26.8528  -27.4927  -42.8051 H         1 UNK         0.0839 
     99 H99        25.3620  -28.4244  -42.9611 H         1 UNK         0.0839 
    100 H100       23.5422  -28.1716  -40.2208 H         1 UNK         0.2998 
    101 H101       21.9390  -29.5572  -39.6187 H         1 UNK         0.0822 
    102 H102       23.1990  -29.8956  -37.5306 H         1 UNK         0.0787 
    103 H103       22.4093  -31.3931  -37.9852 H         1 UNK         0.0787 
    104 H104       24.1422  -31.1981  -38.2368 H         1 UNK         0.0787 
    105 H105       23.6737  -32.5307  -39.6899 H         1 UNK         0.3055 
    106 H106       23.7231  -34.3256  -41.0022 H         1 UNK         0.1106 
    107 H107       23.7849  -32.3445  -43.3387 H         1 UNK         0.0828 
    108 H108       25.1781  -32.7989  -42.3606 H         1 UNK         0.0828 
    109 H109       24.3711  -34.0005  -43.3547 H         1 UNK         0.0828 
    110 H110       21.1258  -33.6244  -40.1542 H         1 UNK         0.2931 
    111 H111       19.2297  -33.9926  -42.2852 H         1 UNK         0.0412 
    112 H112       21.1798  -36.4138  -40.7851 H         1 UNK         0.3472 
    113 H113       20.1443  -37.7583  -41.1957 H         1 UNK         0.3472 
    114 H114       17.5197  -34.0350  -40.5099 H         1 UNK         0.0970 
    115 H115       18.7383  -34.2298  -39.2861 H         1 UNK         0.0970 
    116 H116       16.5468  -32.0576  -41.1768 H         1 UNK         0.0612 
    117 H117       17.0065  -30.4326  -40.7628 H         1 UNK         0.0612 
@<TRIPOS>BOND
     1    1    2 1    
     2    1   62 1    
     3    1   63 1    
     4    1   64 1    
     5    2    3 2    
     6    2    4 am   BACKBONE|DICT|INTERRES
     7    4    5 1    
     8    4   65 1    
     9    5    6 1    
    10    5   25 1    
    11    5   66 1    
    12    6    7 1    
    13    6   67 1    
    14    6   68 1    
    15    7    8 1    
    16    8    9 1    
    17    8   69 1    
    18    8   70 1    
    19    9   10 ar   
    20    9   14 ar   
    21   10   11 ar   
    22   10   71 1    
    23   11   12 ar   
    24   11   61 1    
    25   12   13 ar   
    26   12   72 1    
    27   13   14 ar   
    28   13   15 1    
    29   14   73 1    
    30   15   16 1    
    31   15   74 1    
    32   15   75 1    
    33   16   17 1    
    34   17   18 1    
    35   17   76 1    
    36   17   77 1    
    37   18   19 1    
    38   18   27 1    
    39   18   78 1    
    40   19   20 am   BACKBONE|DICT|INTERRES
    41   19   79 1    
    42   20   21 2    
    43   20   22 1    
    44   22   23 1    
    45   22   24 1    
    46   22   80 1    
    47   23   81 1    
    48   23   82 1    
    49   23   83 1    
    50   24   25 am   BACKBONE|DICT|INTERRES
    51   24   84 1    
    52   25   26 2    
    53   27   28 2    
    54   27   29 am   BACKBONE|DICT|INTERRES
    55   29   30 1    
    56   29   85 1    
    57   30   31 1    
    58   30   32 1    
    59   30   86 1    
    60   31   87 1    
    61   31   88 1    
    62   31   89 1    
    63   32   33 2    
    64   32   34 am   BACKBONE|DICT|INTERRES
    65   34   35 1    
    66   34   90 1    
    67   35   36 1    
    68   35   37 1    
    69   35   91 1    
    70   36   92 1    
    71   36   93 1    
    72   36   94 1    
    73   37   38 2    
    74   37   39 am   BACKBONE|DICT|INTERRES
    75   39   40 1    
    76   39   95 1    
    77   40   41 1    
    78   40   42 1    
    79   40   96 1    
    80   41   97 1    
    81   41   98 1    
    82   41   99 1    
    83   42   43 2    
    84   42   44 am   BACKBONE|DICT|INTERRES
    85   44   45 1    
    86   44  100 1    
    87   45   46 1    
    88   45   47 1    
    89   45  101 1    
    90   46  102 1    
    91   46  103 1    
    92   46  104 1    
    93   47   48 2    
    94   47   49 am   BACKBONE|DICT|INTERRES
    95   49   50 1    
    96   49  105 1    
    97   50   51 1    
    98   50   52 1    
    99   50  106 1    
   100   51  107 1    
   101   51  108 1    
   102   51  109 1    
   103   52   53 2    
   104   52   54 am   BACKBONE|DICT|INTERRES
   105   54   55 1    
   106   54  110 1    
   107   55   56 1    
   108   55   59 1    
   109   55  111 1    
   110   56   57 am   BACKBONE|DICT|INTERRES
   111   56   58 2    
   112   57  112 1    
   113   57  113 1    
   114   59   60 1    
   115   59  114 1    
   116   59  115 1    
   117   60   61 1    
   118   61  116 1    
   119   61  117 1    
@<TRIPOS>SUBSTRUCTURE
     1 UNK         1 GROUP             0       ****    0 ROOT    
