@<TRIPOS>MOLECULE
3R8
117   119    1
SMALL
USER_CHARGES


@<TRIPOS>ATOM
      1 CA         17.4123  -24.4274  -46.2087 C.3       0 UNK        -0.2013 
      2 C          15.9045  -24.6337  -46.3103 C.2       0 UNK         0.4866 
      3 O          15.1961  -23.7123  -46.7122 O.2       0 UNK        -0.5176 
      4 N          15.3639  -25.8135  -45.9778 N.am      1 UNK        -0.4884 
      5 CA         16.0537  -26.9891  -45.4280 C.3       1 UNK         0.0853 
      6 C6         15.2906  -28.2943  -45.7813 C.3       10 UNK        -0.0849 
      7 S7         15.5914  -28.7520  -47.5192 S.3       10 UNK        -0.2776 
      8 C8         16.6835  -30.2070  -47.3386 C.3       10 UNK         0.0316 
      9 C9         17.9624  -29.9398  -46.5442 C.ar      10 UNK        -0.0863 
     10 C10        18.3605  -30.8368  -45.5469 C.ar      10 UNK        -0.1009 
     11 C11        19.5604  -30.6501  -44.8528 C.ar      10 UNK        -0.0712 
     12 C12        20.3515  -29.5347  -45.1408 C.ar      10 UNK        -0.0894 
     13 C13        19.9666  -28.6248  -46.1311 C.ar      10 UNK        -0.0745 
     14 C14        18.7795  -28.8424  -46.8377 C.ar      10 UNK        -0.0972 
     15 C15        20.8578  -27.4419  -46.4894 C.3       10 UNK         0.0209 
     16 S16        20.5468  -25.9859  -45.4378 S.3       10 UNK        -0.2568 
     17 C17        21.5880  -26.3432  -43.9824 C.3       10 UNK        -0.0983 
     18 CA         20.8245  -26.2756  -42.6348 C.3       3 UNK         0.0876 
     19 N          19.5958  -27.0705  -42.6501 N.am      3 UNK        -0.4424 
     20 C          18.6262  -27.0193  -41.7266 C.2       2 UNK         0.4918 
     21 O          18.6413  -26.2628  -40.7545 O.2       2 UNK        -0.4875 
     22 CA         17.4376  -27.9703  -41.9575 C.3       2 UNK         0.0481 
     23 CB         16.3048  -27.8098  -40.9208 C.3       2 UNK        -0.1831 
     24 N          16.9448  -27.8872  -43.3365 N.am      2 UNK        -0.4498 
     25 C          16.3149  -26.8516  -43.9130 C.2       1 UNK         0.5027 
     26 O          15.9740  -25.8295  -43.3129 O.2       1 UNK        -0.4969 
     27 C          21.7329  -26.7453  -41.4819 C.2       3 UNK         0.5005 
     28 O          22.2684  -27.8514  -41.5593 O.2       3 UNK        -0.5279 
     29 N          21.8957  -25.9146  -40.4429 N.am      4 UNK        -0.4463 
     30 CA         22.6063  -26.2503  -39.2004 C.3       4 UNK         0.0283 
     31 CB         22.4878  -25.0740  -38.2178 C.3       4 UNK        -0.1875 
     32 C          24.0837  -26.6541  -39.3716 C.2       4 UNK         0.4949 
     33 O          24.6055  -27.3923  -38.5359 O.2       4 UNK        -0.5039 
     34 N          24.7274  -26.1619  -40.4375 N.am      5 UNK        -0.4663 
     35 CA         26.1225  -26.4495  -40.7758 C.3       5 UNK         0.0242 
     36 CB         26.6969  -25.2431  -41.5386 C.3       5 UNK        -0.1982 
     37 C          26.3106  -27.7406  -41.5962 C.2       5 UNK         0.5017 
     38 O          27.4554  -28.1629  -41.7690 O.2       5 UNK        -0.5012 
     39 N          25.2235  -28.3266  -42.1181 N.am      6 UNK        -0.4439 
     40 CA         25.2631  -29.5319  -42.9500 C.3       6 UNK         0.0297 
     41 CB         24.0420  -29.5345  -43.8818 C.3       6 UNK        -0.2006 
     42 C          25.2878  -30.8117  -42.1006 C.2       6 UNK         0.4892 
     43 O          24.9889  -30.7756  -40.9045 O.2       6 UNK        -0.5089 
     44 N          25.6066  -31.9373  -42.7537 N.am      7 UNK        -0.4243 
     45 CA         25.5331  -33.2809  -42.1757 C.3       7 UNK         0.0196 
     46 CB         26.0770  -34.3023  -43.1873 C.3       7 UNK        -0.2007 
     47 C          24.0924  -33.6357  -41.7705 C.2       7 UNK         0.5020 
     48 O          23.1589  -33.3319  -42.5173 O.2       7 UNK        -0.5147 
     49 N          23.9449  -34.2475  -40.5885 N.am      8 UNK        -0.4734 
     50 CA         22.7008  -34.6206  -39.8959 C.3       8 UNK         0.0238 
     51 CB         21.8537  -35.6049  -40.7275 C.3       8 UNK        -0.1912 
     52 C          21.8537  -33.4260  -39.4156 C.2       8 UNK         0.5038 
     53 O          21.4082  -33.4380  -38.2672 O.2       8 UNK        -0.5046 
     54 N          21.6421  -32.4315  -40.2843 N.am      9 UNK        -0.4200 
     55 CA         20.8775  -31.2102  -39.9968 C.3       9 UNK         0.0839 
     56 C          21.5895  -30.2162  -39.0372 C.2       9 UNK         0.5513 
     57 N          22.9142  -30.1668  -38.9866 N.am      9 UNK        -0.7519 
     58 O          20.9187  -29.4874  -38.3114 O.2       9 UNK        -0.4960 
     59 C59        20.4153  -30.5004  -41.2932 C.3       10 UNK        -0.0876 
     60 S60        19.2139  -31.5047  -42.2316 S.3       10 UNK        -0.2414 
     61 C61        20.0270  -31.6958  -43.8469 C.3       10 UNK         0.0169 
     62 H62        17.6784  -23.4060  -46.4795 H         1 UNK         0.0903 
     63 H63        17.9404  -25.0966  -46.8874 H         1 UNK         0.0903 
     64 H64        17.7659  -24.6000  -45.1929 H         1 UNK         0.0903 
     65 H65        14.3607  -25.9063  -46.0450 H         1 UNK         0.3096 
     66 H66        17.0449  -27.0425  -45.8768 H         1 UNK         0.1121 
     67 H67        15.5781  -29.1396  -45.1547 H         1 UNK         0.0849 
     68 H68        14.2173  -28.1720  -45.6250 H         1 UNK         0.0849 
     69 H69        16.1080  -31.0135  -46.8812 H         1 UNK         0.0865 
     70 H70        16.9610  -30.5595  -48.3328 H         1 UNK         0.0865 
     71 H71        17.7538  -31.7057  -45.3294 H         1 UNK         0.1346 
     72 H72        21.2840  -29.3964  -44.6173 H         1 UNK         0.1412 
     73 H73        18.4926  -28.1593  -47.6260 H         1 UNK         0.1426 
     74 H74        20.6854  -27.1545  -47.5278 H         1 UNK         0.0716 
     75 H75        21.9095  -27.7272  -46.4344 H         1 UNK         0.0716 
     76 H76        22.0520  -27.3194  -44.1139 H         1 UNK         0.0695 
     77 H77        22.4106  -25.6258  -43.9801 H         1 UNK         0.0695 
     78 H78        20.5418  -25.2347  -42.4627 H         1 UNK         0.0983 
     79 H79        19.5022  -27.7117  -43.4233 H         1 UNK         0.3095 
     80 H80        17.8227  -28.9816  -41.8437 H         1 UNK         0.0454 
     81 H81        15.9038  -26.7964  -40.9007 H         1 UNK         0.0851 
     82 H82        15.4812  -28.4941  -41.1228 H         1 UNK         0.0851 
     83 H83        16.6687  -28.0288  -39.9163 H         1 UNK         0.0851 
     84 H84        17.1829  -28.6787  -43.9193 H         1 UNK         0.2976 
     85 H85        21.4076  -25.0300  -40.4521 H         1 UNK         0.3116 
     86 H86        22.0928  -27.1067  -38.7611 H         1 UNK         0.0646 
     87 H87        22.9808  -25.3040  -37.2721 H         1 UNK         0.0847 
     88 H88        21.4458  -24.8497  -37.9889 H         1 UNK         0.0847 
     89 H89        22.9498  -24.1687  -38.6135 H         1 UNK         0.0847 
     90 H90        24.2163  -25.5629  -41.0693 H         1 UNK         0.3040 
     91 H91        26.6954  -26.5712  -39.8535 H         1 UNK         0.1015 
     92 H92        26.6292  -24.3302  -40.9465 H         1 UNK         0.0786 
     93 H93        26.1733  -25.0737  -42.4804 H         1 UNK         0.0786 
     94 H94        27.7512  -25.3945  -41.7750 H         1 UNK         0.0786 
     95 H95        24.3028  -27.9966  -41.8452 H         1 UNK         0.3172 
     96 H96        26.1637  -29.5123  -43.5678 H         1 UNK         0.0595 
     97 H97        23.1168  -29.6024  -43.3118 H         1 UNK         0.0839 
     98 H98        24.0627  -30.3835  -44.5660 H         1 UNK         0.0839 
     99 H99        24.0057  -28.6317  -44.4910 H         1 UNK         0.0839 
    100 H100       25.8082  -31.8837  -43.7414 H         1 UNK         0.2998 
    101 H101       26.1687  -33.2953  -41.2876 H         1 UNK         0.0822 
    102 H102       25.4854  -34.3161  -44.1038 H         1 UNK         0.0787 
    103 H103       27.1108  -34.0845  -43.4566 H         1 UNK         0.0787 
    104 H104       26.0569  -35.3110  -42.7721 H         1 UNK         0.0787 
    105 H105       24.7858  -34.4233  -40.0546 H         1 UNK         0.3055 
    106 H106       23.0167  -35.1508  -38.9954 H         1 UNK         0.1106 
    107 H107       21.4613  -35.1459  -41.6354 H         1 UNK         0.0828 
    108 H108       22.4337  -36.4807  -41.0179 H         1 UNK         0.0828 
    109 H109       20.9974  -35.9597  -40.1523 H         1 UNK         0.0828 
    110 H110       22.0524  -32.5184  -41.2093 H         1 UNK         0.2931 
    111 H111       19.9736  -31.5252  -39.4707 H         1 UNK         0.0412 
    112 H112       23.4897  -30.6769  -39.6484 H         1 UNK         0.3472 
    113 H113       23.3554  -29.4972  -38.3755 H         1 UNK         0.3472 
    114 H114       19.9388  -29.5515  -41.0505 H         1 UNK         0.0970 
    115 H115       21.2747  -30.2519  -41.9159 H         1 UNK         0.0970 
    116 H116       21.1120  -31.6746  -43.7334 H         1 UNK         0.0612 
    117 H117       19.7915  -32.6893  -44.2312 H         1 UNK         0.0612 
@<TRIPOS>BOND
     1    1    2 1    
     2    1   62 1    
     3    1   63 1    
     4    1   64 1    
     5    2    3 2    
     6    2    4 am   BACKBONE|DICT|INTERRES
     7    4    5 1    
     8    4   65 1    
     9    5    6 1    
    10    5   25 1    
    11    5   66 1    
    12    6    7 1    
    13    6   67 1    
    14    6   68 1    
    15    7    8 1    
    16    8    9 1    
    17    8   69 1    
    18    8   70 1    
    19    9   10 ar   
    20    9   14 ar   
    21   10   11 ar   
    22   10   71 1    
    23   11   12 ar   
    24   11   61 1    
    25   12   13 ar   
    26   12   72 1    
    27   13   14 ar   
    28   13   15 1    
    29   14   73 1    
    30   15   16 1    
    31   15   74 1    
    32   15   75 1    
    33   16   17 1    
    34   17   18 1    
    35   17   76 1    
    36   17   77 1    
    37   18   19 1    
    38   18   27 1    
    39   18   78 1    
    40   19   20 am   BACKBONE|DICT|INTERRES
    41   19   79 1    
    42   20   21 2    
    43   20   22 1    
    44   22   23 1    
    45   22   24 1    
    46   22   80 1    
    47   23   81 1    
    48   23   82 1    
    49   23   83 1    
    50   24   25 am   BACKBONE|DICT|INTERRES
    51   24   84 1    
    52   25   26 2    
    53   27   28 2    
    54   27   29 am   BACKBONE|DICT|INTERRES
    55   29   30 1    
    56   29   85 1    
    57   30   31 1    
    58   30   32 1    
    59   30   86 1    
    60   31   87 1    
    61   31   88 1    
    62   31   89 1    
    63   32   33 2    
    64   32   34 am   BACKBONE|DICT|INTERRES
    65   34   35 1    
    66   34   90 1    
    67   35   36 1    
    68   35   37 1    
    69   35   91 1    
    70   36   92 1    
    71   36   93 1    
    72   36   94 1    
    73   37   38 2    
    74   37   39 am   BACKBONE|DICT|INTERRES
    75   39   40 1    
    76   39   95 1    
    77   40   41 1    
    78   40   42 1    
    79   40   96 1    
    80   41   97 1    
    81   41   98 1    
    82   41   99 1    
    83   42   43 2    
    84   42   44 am   BACKBONE|DICT|INTERRES
    85   44   45 1    
    86   44  100 1    
    87   45   46 1    
    88   45   47 1    
    89   45  101 1    
    90   46  102 1    
    91   46  103 1    
    92   46  104 1    
    93   47   48 2    
    94   47   49 am   BACKBONE|DICT|INTERRES
    95   49   50 1    
    96   49  105 1    
    97   50   51 1    
    98   50   52 1    
    99   50  106 1    
   100   51  107 1    
   101   51  108 1    
   102   51  109 1    
   103   52   53 2    
   104   52   54 am   BACKBONE|DICT|INTERRES
   105   54   55 1    
   106   54  110 1    
   107   55   56 1    
   108   55   59 1    
   109   55  111 1    
   110   56   57 am   BACKBONE|DICT|INTERRES
   111   56   58 2    
   112   57  112 1    
   113   57  113 1    
   114   59   60 1    
   115   59  114 1    
   116   59  115 1    
   117   60   61 1    
   118   61  116 1    
   119   61  117 1    
@<TRIPOS>SUBSTRUCTURE
     1 UNK         1 GROUP             0       ****    0 ROOT    
