@<TRIPOS>MOLECULE
3R8
117   119    1
SMALL
USER_CHARGES


@<TRIPOS>ATOM
      1 CA         20.1065  -27.8869  -41.4850 C.3       0 UNK        -0.2013 
      2 C          19.3290  -27.1732  -42.5772 C.2       0 UNK         0.4866 
      3 O          19.7000  -27.2642  -43.7463 O.2       0 UNK        -0.5176 
      4 N          18.2692  -26.4440  -42.2027 N.am      1 UNK        -0.4884 
      5 CA         17.3875  -25.6753  -43.0969 C.3       1 UNK         0.0853 
      6 C6         16.5196  -26.5814  -44.0206 C.3       10 UNK        -0.0849 
      7 S7         15.5765  -27.8494  -43.1082 S.3       10 UNK        -0.2776 
      8 C8         15.3213  -29.1089  -44.4014 C.3       10 UNK         0.0316 
      9 C9         16.6169  -29.7982  -44.8117 C.ar      10 UNK        -0.0863 
     10 C10        17.2150  -30.7316  -43.9590 C.ar      10 UNK        -0.1009 
     11 C11        18.3854  -31.3920  -44.3429 C.ar      10 UNK        -0.0712 
     12 C12        18.9672  -31.1013  -45.5805 C.ar      10 UNK        -0.0894 
     13 C13        18.3812  -30.1713  -46.4434 C.ar      10 UNK        -0.0745 
     14 C14        17.2005  -29.5285  -46.0555 C.ar      10 UNK        -0.0972 
     15 C15        18.9990  -29.9096  -47.8131 C.3       10 UNK         0.0209 
     16 S16        19.4300  -28.1618  -48.0922 S.3       10 UNK        -0.2568 
     17 C17        20.8144  -27.9178  -46.9278 C.3       10 UNK        -0.0983 
     18 CA         21.1966  -26.4212  -46.7919 C.3       3 UNK         0.0876 
     19 N          20.0451  -25.5935  -46.4127 N.am      3 UNK        -0.4424 
     20 C          19.9617  -24.2633  -46.5608 C.2       2 UNK         0.4918 
     21 O          20.8539  -23.5752  -47.0571 O.2       2 UNK        -0.4875 
     22 CA         18.6630  -23.5779  -46.0892 C.3       2 UNK         0.0481 
     23 CB         17.7840  -23.2147  -47.2969 C.3       2 UNK        -0.1831 
     24 N          17.8837  -24.4042  -45.1625 N.am      2 UNK        -0.4498 
     25 C          18.1906  -24.5981  -43.8712 C.2       1 UNK         0.5027 
     26 O          19.0923  -23.9839  -43.2949 O.2       1 UNK        -0.4969 
     27 C          22.3808  -26.2295  -45.8192 C.2       3 UNK         0.5005 
     28 O          23.5329  -26.3740  -46.2300 O.2       3 UNK        -0.5279 
     29 N          22.0668  -25.8848  -44.5606 N.am      4 UNK        -0.4463 
     30 CA         22.9593  -25.5346  -43.4500 C.3       4 UNK         0.0283 
     31 CB         23.8447  -24.3211  -43.8025 C.3       4 UNK        -0.1875 
     32 C          23.7745  -26.7135  -42.8880 C.2       4 UNK         0.4949 
     33 O          24.7017  -26.4897  -42.1090 O.2       4 UNK        -0.5039 
     34 N          23.3935  -27.9536  -43.2208 N.am      5 UNK        -0.4663 
     35 CA         24.0274  -29.1938  -42.7557 C.3       5 UNK         0.0242 
     36 CB         23.7740  -30.2981  -43.7977 C.3       5 UNK        -0.1982 
     37 C          23.5781  -29.5960  -41.3342 C.2       5 UNK         0.5017 
     38 O          23.3193  -30.7717  -41.0735 O.2       5 UNK        -0.5012 
     39 N          23.4985  -28.6130  -40.4271 N.am      6 UNK        -0.4439 
     40 CA         22.9714  -28.7238  -39.0607 C.3       6 UNK         0.0297 
     41 CB         22.9146  -27.3207  -38.4350 C.3       6 UNK        -0.2006 
     42 C          23.7325  -29.6955  -38.1384 C.2       6 UNK         0.4892 
     43 O          23.1814  -30.1084  -37.1184 O.2       6 UNK        -0.5089 
     44 N          24.9702  -30.0522  -38.5068 N.am      7 UNK        -0.4243 
     45 CA         25.7655  -31.0886  -37.8465 C.3       7 UNK         0.0196 
     46 CB         27.2317  -30.9532  -38.2888 C.3       7 UNK        -0.2007 
     47 C          25.2509  -32.5146  -38.1247 C.2       7 UNK         0.5020 
     48 O          25.5156  -33.4081  -37.3198 O.2       7 UNK        -0.5147 
     49 N          24.5482  -32.7101  -39.2494 N.am      8 UNK        -0.4734 
     50 CA         23.9919  -33.9955  -39.6747 C.3       8 UNK         0.0238 
     51 CB         24.4016  -34.2650  -41.1330 C.3       8 UNK        -0.1912 
     52 C          22.4636  -34.0190  -39.5360 C.2       8 UNK         0.5038 
     53 O          21.9202  -35.0115  -39.0490 O.2       8 UNK        -0.5046 
     54 N          21.8010  -32.9454  -39.9830 N.am      9 UNK        -0.4200 
     55 CA         20.3391  -32.7947  -39.9877 C.3       9 UNK         0.0839 
     56 C          19.7445  -32.6625  -38.5609 C.2       9 UNK         0.5513 
     57 N          18.5675  -33.2266  -38.3267 N.am      9 UNK        -0.7519 
     58 O          20.3129  -32.0177  -37.6834 O.2       9 UNK        -0.4960 
     59 C59        19.8992  -31.6060  -40.8791 C.3       10 UNK        -0.0876 
     60 S60        20.4815  -31.7977  -42.5978 S.3       10 UNK        -0.2414 
     61 C61        19.0127  -32.4462  -43.4455 C.3       10 UNK         0.0169 
     62 H62        20.8861  -27.2357  -41.0925 H         1 UNK         0.0903 
     63 H63        19.4573  -28.1898  -40.6640 H         1 UNK         0.0903 
     64 H64        20.5815  -28.7788  -41.8912 H         1 UNK         0.0903 
     65 H65        18.0364  -26.3851  -41.2214 H         1 UNK         0.3096 
     66 H66        16.7080  -25.1195  -42.4487 H         1 UNK         0.1121 
     67 H67        15.7934  -25.9876  -44.5785 H         1 UNK         0.0849 
     68 H68        17.1542  -27.0760  -44.7566 H         1 UNK         0.0849 
     69 H69        14.6214  -29.8580  -44.0282 H         1 UNK         0.0865 
     70 H70        14.8366  -28.6471  -45.2631 H         1 UNK         0.0865 
     71 H71        16.7619  -30.9497  -43.0016 H         1 UNK         0.1346 
     72 H72        19.8724  -31.6148  -45.8745 H         1 UNK         0.1412 
     73 H73        16.7375  -28.8185  -46.7272 H         1 UNK         0.1426 
     74 H74        18.2868  -30.2180  -48.5795 H         1 UNK         0.0716 
     75 H75        19.8916  -30.5189  -47.9636 H         1 UNK         0.0716 
     76 H76        20.5373  -28.3383  -45.9600 H         1 UNK         0.0695 
     77 H77        21.6668  -28.4994  -47.2838 H         1 UNK         0.0695 
     78 H78        21.5390  -26.0770  -47.7705 H         1 UNK         0.0983 
     79 H79        19.2792  -26.0886  -45.9800 H         1 UNK         0.3095 
     80 H80        18.9428  -22.6517  -45.5827 H         1 UNK         0.0454 
     81 H81        18.3233  -22.5687  -47.9913 H         1 UNK         0.0851 
     82 H82        17.4725  -24.1000  -47.8528 H         1 UNK         0.0851 
     83 H83        16.8873  -22.6768  -46.9890 H         1 UNK         0.0851 
     84 H84        17.1163  -24.9236  -45.5635 H         1 UNK         0.2976 
     85 H85        21.0794  -25.9203  -44.3233 H         1 UNK         0.3116 
     86 H86        22.2983  -25.2255  -42.6390 H         1 UNK         0.0646 
     87 H87        24.3806  -23.9585  -42.9245 H         1 UNK         0.0847 
     88 H88        23.2478  -23.4912  -44.1808 H         1 UNK         0.0847 
     89 H89        24.5922  -24.5691  -44.5563 H         1 UNK         0.0847 
     90 H90        22.5894  -28.0532  -43.8243 H         1 UNK         0.3040 
     91 H91        25.1070  -29.0365  -42.7034 H         1 UNK         0.1015 
     92 H92        24.1955  -30.0294  -44.7665 H         1 UNK         0.0786 
     93 H93        22.7093  -30.4815  -43.9388 H         1 UNK         0.0786 
     94 H94        24.2335  -31.2412  -43.4984 H         1 UNK         0.0786 
     95 H95        23.8059  -27.6938  -40.7278 H         1 UNK         0.3172 
     96 H96        21.9503  -29.1023  -39.1400 H         1 UNK         0.0595 
     97 H97        22.2878  -26.6469  -39.0192 H         1 UNK         0.0839 
     98 H98        23.9067  -26.8743  -38.3568 H         1 UNK         0.0839 
     99 H99        22.4942  -27.3575  -37.4289 H         1 UNK         0.0839 
    100 H100       25.3519  -29.6462  -39.3482 H         1 UNK         0.2998 
    101 H101       25.7163  -30.9255  -36.7676 H         1 UNK         0.0822 
    102 H102       27.6331  -29.9709  -38.0387 H         1 UNK         0.0787 
    103 H103       27.8589  -31.6940  -37.7907 H         1 UNK         0.0787 
    104 H104       27.3452  -31.1004  -39.3637 H         1 UNK         0.0787 
    105 H105       24.3285  -31.9109  -39.8358 H         1 UNK         0.3055 
    106 H106       24.3887  -34.8063  -39.0593 H         1 UNK         0.1106 
    107 H107       24.0393  -33.4881  -41.8080 H         1 UNK         0.0828 
    108 H108       25.4856  -34.3168  -41.2351 H         1 UNK         0.0828 
    109 H109       23.9975  -35.2159  -41.4828 H         1 UNK         0.0828 
    110 H110       22.3241  -32.1728  -40.3860 H         1 UNK         0.2931 
    111 H111       19.9313  -33.7057  -40.4314 H         1 UNK         0.0412 
    112 H112       18.0883  -33.7521  -39.0416 H         1 UNK         0.3472 
    113 H113       18.1558  -33.1381  -37.4105 H         1 UNK         0.3472 
    114 H114       20.3084  -30.6763  -40.4819 H         1 UNK         0.0970 
    115 H115       18.8144  -31.4855  -40.8730 H         1 UNK         0.0970 
    116 H116       18.2890  -32.8302  -42.7252 H         1 UNK         0.0612 
    117 H117       19.3136  -33.3014  -44.0523 H         1 UNK         0.0612 
@<TRIPOS>BOND
     1    1    2 1    
     2    1   62 1    
     3    1   63 1    
     4    1   64 1    
     5    2    3 2    
     6    2    4 am   BACKBONE|DICT|INTERRES
     7    4    5 1    
     8    4   65 1    
     9    5    6 1    
    10    5   25 1    
    11    5   66 1    
    12    6    7 1    
    13    6   67 1    
    14    6   68 1    
    15    7    8 1    
    16    8    9 1    
    17    8   69 1    
    18    8   70 1    
    19    9   10 ar   
    20    9   14 ar   
    21   10   11 ar   
    22   10   71 1    
    23   11   12 ar   
    24   11   61 1    
    25   12   13 ar   
    26   12   72 1    
    27   13   14 ar   
    28   13   15 1    
    29   14   73 1    
    30   15   16 1    
    31   15   74 1    
    32   15   75 1    
    33   16   17 1    
    34   17   18 1    
    35   17   76 1    
    36   17   77 1    
    37   18   19 1    
    38   18   27 1    
    39   18   78 1    
    40   19   20 am   BACKBONE|DICT|INTERRES
    41   19   79 1    
    42   20   21 2    
    43   20   22 1    
    44   22   23 1    
    45   22   24 1    
    46   22   80 1    
    47   23   81 1    
    48   23   82 1    
    49   23   83 1    
    50   24   25 am   BACKBONE|DICT|INTERRES
    51   24   84 1    
    52   25   26 2    
    53   27   28 2    
    54   27   29 am   BACKBONE|DICT|INTERRES
    55   29   30 1    
    56   29   85 1    
    57   30   31 1    
    58   30   32 1    
    59   30   86 1    
    60   31   87 1    
    61   31   88 1    
    62   31   89 1    
    63   32   33 2    
    64   32   34 am   BACKBONE|DICT|INTERRES
    65   34   35 1    
    66   34   90 1    
    67   35   36 1    
    68   35   37 1    
    69   35   91 1    
    70   36   92 1    
    71   36   93 1    
    72   36   94 1    
    73   37   38 2    
    74   37   39 am   BACKBONE|DICT|INTERRES
    75   39   40 1    
    76   39   95 1    
    77   40   41 1    
    78   40   42 1    
    79   40   96 1    
    80   41   97 1    
    81   41   98 1    
    82   41   99 1    
    83   42   43 2    
    84   42   44 am   BACKBONE|DICT|INTERRES
    85   44   45 1    
    86   44  100 1    
    87   45   46 1    
    88   45   47 1    
    89   45  101 1    
    90   46  102 1    
    91   46  103 1    
    92   46  104 1    
    93   47   48 2    
    94   47   49 am   BACKBONE|DICT|INTERRES
    95   49   50 1    
    96   49  105 1    
    97   50   51 1    
    98   50   52 1    
    99   50  106 1    
   100   51  107 1    
   101   51  108 1    
   102   51  109 1    
   103   52   53 2    
   104   52   54 am   BACKBONE|DICT|INTERRES
   105   54   55 1    
   106   54  110 1    
   107   55   56 1    
   108   55   59 1    
   109   55  111 1    
   110   56   57 am   BACKBONE|DICT|INTERRES
   111   56   58 2    
   112   57  112 1    
   113   57  113 1    
   114   59   60 1    
   115   59  114 1    
   116   59  115 1    
   117   60   61 1    
   118   61  116 1    
   119   61  117 1    
@<TRIPOS>SUBSTRUCTURE
     1 UNK         1 GROUP             0       ****    0 ROOT    
