@<TRIPOS>MOLECULE
3R8
117   119    1
SMALL
USER_CHARGES


@<TRIPOS>ATOM
      1 CA         14.2517  -24.9380  -43.0121 C.3       0 UNK        -0.2013 
      2 C          14.8170  -26.3230  -42.7344 C.2       0 UNK         0.4866 
      3 O          14.5489  -26.8855  -41.6730 O.2       0 UNK        -0.5176 
      4 N          15.5922  -26.8657  -43.6839 N.am      1 UNK        -0.4884 
      5 CA         16.2527  -28.1789  -43.6401 C.3       1 UNK         0.0853 
      6 C6         15.2695  -29.3796  -43.7110 C.3       10 UNK        -0.0849 
      7 S7         14.4687  -29.4705  -45.3496 S.3       10 UNK        -0.2776 
      8 C8         15.4756  -30.7393  -46.1957 C.3       10 UNK         0.0316 
      9 C9         16.9646  -30.4104  -46.1808 C.ar      10 UNK        -0.0863 
     10 C10        17.8489  -31.1870  -45.4242 C.ar      10 UNK        -0.1009 
     11 C11        19.2090  -30.8689  -45.3768 C.ar      10 UNK        -0.0712 
     12 C12        19.6839  -29.7702  -46.0965 C.ar      10 UNK        -0.0894 
     13 C13        18.8118  -28.9800  -46.8503 C.ar      10 UNK        -0.0745 
     14 C14        17.4548  -29.3162  -46.9024 C.ar      10 UNK        -0.0972 
     15 C15        19.3313  -27.7676  -47.6112 C.3       10 UNK         0.0209 
     16 S16        19.5962  -26.3333  -46.5150 S.3       10 UNK        -0.2568 
     17 C17        21.3483  -26.5434  -46.0374 C.3       10 UNK        -0.0983 
     18 CA         21.6393  -26.1903  -44.5558 C.3       3 UNK         0.0876 
     19 N          20.7641  -26.9133  -43.6305 N.am      3 UNK        -0.4424 
     20 C          20.5303  -26.5510  -42.3622 C.2       2 UNK         0.4918 
     21 O          21.0914  -25.6064  -41.8058 O.2       2 UNK        -0.4875 
     22 CA         19.4126  -27.3200  -41.6391 C.3       2 UNK         0.0481 
     23 CB         19.0206  -26.7013  -40.2821 C.3       2 UNK        -0.1831 
     24 N          18.2527  -27.3738  -42.5257 N.am      2 UNK        -0.4498 
     25 C          17.2679  -28.2772  -42.4853 C.2       1 UNK         0.5027 
     26 O          17.1463  -29.1328  -41.6079 O.2       1 UNK        -0.4969 
     27 C          23.1281  -26.4399  -44.2409 C.2       3 UNK         0.5005 
     28 O          23.4991  -27.5673  -43.9054 O.2       3 UNK        -0.5279 
     29 N          23.9524  -25.3986  -44.4378 N.am      4 UNK        -0.4463 
     30 CA         25.4175  -25.3872  -44.3217 C.3       4 UNK         0.0283 
     31 CB         26.0471  -26.2615  -45.4319 C.3       4 UNK        -0.1875 
     32 C          25.9223  -25.7386  -42.9053 C.2       4 UNK         0.4949 
     33 O          25.1964  -25.5494  -41.9277 O.2       4 UNK        -0.5039 
     34 N          27.1746  -26.2083  -42.8106 N.am      5 UNK        -0.4663 
     35 CA         27.7981  -26.6568  -41.5612 C.3       5 UNK         0.0242 
     36 CB         29.3207  -26.7452  -41.7526 C.3       5 UNK        -0.1982 
     37 C          27.2367  -28.0024  -41.0713 C.2       5 UNK         0.5017 
     38 O          27.1558  -28.2227  -39.8626 O.2       5 UNK        -0.5012 
     39 N          26.8240  -28.8649  -42.0106 N.am      6 UNK        -0.4439 
     40 CA         26.1925  -30.1640  -41.7637 C.3       6 UNK         0.0297 
     41 CB         26.4771  -31.0907  -42.9608 C.3       6 UNK        -0.2006 
     42 C          24.6851  -30.0111  -41.4764 C.2       6 UNK         0.4892 
     43 O          23.8639  -30.6705  -42.1131 O.2       6 UNK        -0.5089 
     44 N          24.3552  -29.1347  -40.5192 N.am      7 UNK        -0.4243 
     45 CA         22.9952  -28.7310  -40.1557 C.3       7 UNK         0.0196 
     46 CB         23.0774  -27.4442  -39.3189 C.3       7 UNK        -0.2007 
     47 C          22.1805  -29.8080  -39.4172 C.2       7 UNK         0.5020 
     48 O          20.9688  -29.6453  -39.2697 O.2       7 UNK        -0.5147 
     49 N          22.8332  -30.8865  -38.9625 N.am      8 UNK        -0.4734 
     50 CA         22.2238  -32.0379  -38.2883 C.3       8 UNK         0.0238 
     51 CB         23.3137  -32.7766  -37.4884 C.3       8 UNK        -0.1912 
     52 C          21.4791  -32.9641  -39.2742 C.2       8 UNK         0.5038 
     53 O          21.8086  -34.1469  -39.3838 O.2       8 UNK        -0.5046 
     54 N          20.4994  -32.3981  -39.9858 N.am      9 UNK        -0.4200 
     55 CA         19.6716  -33.0669  -41.0013 C.3       9 UNK         0.0839 
     56 C          18.5859  -34.0226  -40.4266 C.2       9 UNK         0.5513 
     57 N          18.3224  -34.0323  -39.1251 N.am      9 UNK        -0.7519 
     58 O          17.9744  -34.7763  -41.1793 O.2       9 UNK        -0.4960 
     59 C59        19.0440  -32.0369  -41.9759 C.3       10 UNK        -0.0876 
     60 S60        20.3086  -31.0530  -42.8531 S.3       10 UNK        -0.2414 
     61 C61        20.1761  -31.6997  -44.5477 C.3       10 UNK         0.0169 
     62 H62        14.5614  -24.5563  -43.9849 H         1 UNK         0.0903 
     63 H63        13.1625  -24.9669  -42.9912 H         1 UNK         0.0903 
     64 H64        14.5884  -24.2358  -42.2498 H         1 UNK         0.0903 
     65 H65        15.7528  -26.3402  -44.5324 H         1 UNK         0.3096 
     66 H66        16.8724  -28.2160  -44.5343 H         1 UNK         0.1121 
     67 H67        14.5015  -29.3002  -42.9404 H         1 UNK         0.0849 
     68 H68        15.7829  -30.3242  -43.5226 H         1 UNK         0.0849 
     69 H69        15.2882  -31.7084  -45.7305 H         1 UNK         0.0865 
     70 H70        15.1380  -30.8291  -47.2292 H         1 UNK         0.0865 
     71 H71        17.4779  -32.0337  -44.8636 H         1 UNK         0.1346 
     72 H72        20.7368  -29.5334  -46.0597 H         1 UNK         0.1412 
     73 H73        16.7704  -28.7102  -47.4810 H         1 UNK         0.1426 
     74 H74        18.6173  -27.4796  -48.3843 H         1 UNK         0.0716 
     75 H75        20.2536  -28.0185  -48.1371 H         1 UNK         0.0716 
     76 H76        21.9405  -25.9052  -46.6962 H         1 UNK         0.0695 
     77 H77        21.6694  -27.5619  -46.2535 H         1 UNK         0.0695 
     78 H78        21.4381  -25.1247  -44.4225 H         1 UNK         0.0983 
     79 H79        20.2937  -27.7234  -44.0058 H         1 UNK         0.3095 
     80 H80        19.7787  -28.3341  -41.4688 H         1 UNK         0.0454 
     81 H81        18.6378  -25.6869  -40.3983 H         1 UNK         0.0851 
     82 H82        19.8770  -26.6548  -39.6104 H         1 UNK         0.0851 
     83 H83        18.2554  -27.2938  -39.7809 H         1 UNK         0.0851 
     84 H84        18.2455  -26.6870  -43.2683 H         1 UNK         0.2976 
     85 H85        23.5397  -24.5095  -44.6848 H         1 UNK         0.3116 
     86 H86        25.7232  -24.3554  -44.5011 H         1 UNK         0.0646 
     87 H87        25.8875  -27.3253  -45.2513 H         1 UNK         0.0847 
     88 H88        27.1214  -26.0958  -45.5163 H         1 UNK         0.0847 
     89 H89        25.6196  -26.0265  -46.4068 H         1 UNK         0.0847 
     90 H90        27.7247  -26.2968  -43.6531 H         1 UNK         0.3040 
     91 H91        27.5929  -25.9143  -40.7863 H         1 UNK         0.1015 
     92 H92        29.5923  -27.4668  -42.5242 H         1 UNK         0.0786 
     93 H93        29.8116  -27.0559  -40.8291 H         1 UNK         0.0786 
     94 H94        29.7423  -25.7793  -42.0316 H         1 UNK         0.0786 
     95 H95        26.8745  -28.5675  -42.9737 H         1 UNK         0.3172 
     96 H96        26.6456  -30.6171  -40.8794 H         1 UNK         0.0595 
     97 H97        26.0666  -32.0869  -42.7900 H         1 UNK         0.0839 
     98 H98        27.5479  -31.2088  -43.1272 H         1 UNK         0.0839 
     99 H99        26.0327  -30.7090  -43.8810 H         1 UNK         0.0839 
    100 H100       25.1145  -28.6554  -40.0486 H         1 UNK         0.2998 
    101 H101       22.4595  -28.5073  -41.0806 H         1 UNK         0.0822 
    102 H102       22.0871  -27.1036  -39.0176 H         1 UNK         0.0787 
    103 H103       23.6615  -27.5905  -38.4096 H         1 UNK         0.0787 
    104 H104       23.5344  -26.6338  -39.8880 H         1 UNK         0.0787 
    105 H105       23.8218  -30.9486  -39.1567 H         1 UNK         0.3055 
    106 H106       21.4817  -31.6702  -37.5756 H         1 UNK         0.1106 
    107 H107       24.0955  -33.1714  -38.1386 H         1 UNK         0.0828 
    108 H108       23.7846  -32.1191  -36.7573 H         1 UNK         0.0828 
    109 H109       22.8917  -33.6184  -36.9376 H         1 UNK         0.0828 
    110 H110       20.3353  -31.4052  -39.8518 H         1 UNK         0.2931 
    111 H111       20.3377  -33.7020  -41.5888 H         1 UNK         0.0412 
    112 H112       18.8163  -33.4171  -38.4989 H         1 UNK         0.3472 
    113 H113       17.6193  -34.6600  -38.7674 H         1 UNK         0.3472 
    114 H114       18.3978  -31.3534  -41.4253 H         1 UNK         0.0970 
    115 H115       18.4005  -32.5324  -42.7040 H         1 UNK         0.0970 
    116 H116       19.8764  -32.7486  -44.5357 H         1 UNK         0.0612 
    117 H117       21.1673  -31.6761  -45.0031 H         1 UNK         0.0612 
@<TRIPOS>BOND
     1    1    2 1    
     2    1   62 1    
     3    1   63 1    
     4    1   64 1    
     5    2    3 2    
     6    2    4 am   BACKBONE|DICT|INTERRES
     7    4    5 1    
     8    4   65 1    
     9    5    6 1    
    10    5   25 1    
    11    5   66 1    
    12    6    7 1    
    13    6   67 1    
    14    6   68 1    
    15    7    8 1    
    16    8    9 1    
    17    8   69 1    
    18    8   70 1    
    19    9   10 ar   
    20    9   14 ar   
    21   10   11 ar   
    22   10   71 1    
    23   11   12 ar   
    24   11   61 1    
    25   12   13 ar   
    26   12   72 1    
    27   13   14 ar   
    28   13   15 1    
    29   14   73 1    
    30   15   16 1    
    31   15   74 1    
    32   15   75 1    
    33   16   17 1    
    34   17   18 1    
    35   17   76 1    
    36   17   77 1    
    37   18   19 1    
    38   18   27 1    
    39   18   78 1    
    40   19   20 am   BACKBONE|DICT|INTERRES
    41   19   79 1    
    42   20   21 2    
    43   20   22 1    
    44   22   23 1    
    45   22   24 1    
    46   22   80 1    
    47   23   81 1    
    48   23   82 1    
    49   23   83 1    
    50   24   25 am   BACKBONE|DICT|INTERRES
    51   24   84 1    
    52   25   26 2    
    53   27   28 2    
    54   27   29 am   BACKBONE|DICT|INTERRES
    55   29   30 1    
    56   29   85 1    
    57   30   31 1    
    58   30   32 1    
    59   30   86 1    
    60   31   87 1    
    61   31   88 1    
    62   31   89 1    
    63   32   33 2    
    64   32   34 am   BACKBONE|DICT|INTERRES
    65   34   35 1    
    66   34   90 1    
    67   35   36 1    
    68   35   37 1    
    69   35   91 1    
    70   36   92 1    
    71   36   93 1    
    72   36   94 1    
    73   37   38 2    
    74   37   39 am   BACKBONE|DICT|INTERRES
    75   39   40 1    
    76   39   95 1    
    77   40   41 1    
    78   40   42 1    
    79   40   96 1    
    80   41   97 1    
    81   41   98 1    
    82   41   99 1    
    83   42   43 2    
    84   42   44 am   BACKBONE|DICT|INTERRES
    85   44   45 1    
    86   44  100 1    
    87   45   46 1    
    88   45   47 1    
    89   45  101 1    
    90   46  102 1    
    91   46  103 1    
    92   46  104 1    
    93   47   48 2    
    94   47   49 am   BACKBONE|DICT|INTERRES
    95   49   50 1    
    96   49  105 1    
    97   50   51 1    
    98   50   52 1    
    99   50  106 1    
   100   51  107 1    
   101   51  108 1    
   102   51  109 1    
   103   52   53 2    
   104   52   54 am   BACKBONE|DICT|INTERRES
   105   54   55 1    
   106   54  110 1    
   107   55   56 1    
   108   55   59 1    
   109   55  111 1    
   110   56   57 am   BACKBONE|DICT|INTERRES
   111   56   58 2    
   112   57  112 1    
   113   57  113 1    
   114   59   60 1    
   115   59  114 1    
   116   59  115 1    
   117   60   61 1    
   118   61  116 1    
   119   61  117 1    
@<TRIPOS>SUBSTRUCTURE
     1 UNK         1 GROUP             0       ****    0 ROOT    
