@<TRIPOS>MOLECULE
3R8
117   119    1
SMALL
USER_CHARGES


@<TRIPOS>ATOM
      1 CA         12.7766  -24.0497  -45.3870 C.3       0 UNK        -0.2013 
      2 C          14.0740  -24.5588  -45.9970 C.2       0 UNK         0.4866 
      3 O          14.1401  -24.7722  -47.2081 O.2       0 UNK        -0.5176 
      4 N          15.1059  -24.7507  -45.1707 N.am      1 UNK        -0.4884 
      5 CA         16.4291  -25.2333  -45.5626 C.3       1 UNK         0.0853 
      6 C6         16.4792  -26.7746  -45.7653 C.3       10 UNK        -0.0849 
      7 S7         15.7678  -27.7808  -44.4066 S.3       10 UNK        -0.2776 
      8 C8         17.1882  -28.1010  -43.3099 C.3       10 UNK         0.0316 
      9 C9         18.0798  -29.2303  -43.8077 C.ar      10 UNK        -0.0863 
     10 C10        17.9247  -30.5271  -43.3107 C.ar      10 UNK        -0.1009 
     11 C11        18.7658  -31.5554  -43.7451 C.ar      10 UNK        -0.0712 
     12 C12        19.7510  -31.2831  -44.6993 C.ar      10 UNK        -0.0894 
     13 C13        19.9249  -29.9916  -45.2055 C.ar      10 UNK        -0.0745 
     14 C14        19.0893  -28.9702  -44.7364 C.ar      10 UNK        -0.0972 
     15 C15        21.0150  -29.7611  -46.2572 C.3       10 UNK         0.0209 
     16 S16        21.1036  -28.0711  -46.9523 S.3       10 UNK        -0.2568 
     17 C17        22.5611  -27.3715  -46.1011 C.3       10 UNK        -0.0983 
     18 CA         22.2881  -26.7325  -44.7116 C.3       3 UNK         0.0876 
     19 N          21.1317  -25.8233  -44.7337 N.am      3 UNK        -0.4424 
     20 C          20.9476  -24.7879  -43.9033 C.2       2 UNK         0.4918 
     21 O          21.6895  -24.5514  -42.9501 O.2       2 UNK        -0.4875 
     22 CA         19.7528  -23.8538  -44.1630 C.3       2 UNK         0.0481 
     23 CB         20.2387  -22.5699  -44.8563 C.3       2 UNK        -0.1831 
     24 N          18.6901  -24.4603  -44.9786 N.am      2 UNK        -0.4498 
     25 C          17.4514  -24.7185  -44.5326 C.2       1 UNK         0.5027 
     26 O          17.0932  -24.5534  -43.3626 O.2       1 UNK        -0.4969 
     27 C          22.2859  -27.7742  -43.5675 C.2       3 UNK         0.5005 
     28 O          23.1922  -28.6094  -43.5225 O.2       3 UNK        -0.5279 
     29 N          21.3129  -27.7080  -42.6448 N.am      4 UNK        -0.4463 
     30 CA         21.1506  -28.6292  -41.5126 C.3       4 UNK         0.0283 
     31 CB         19.9277  -28.2249  -40.6749 C.3       4 UNK        -0.1875 
     32 C          22.3833  -28.7295  -40.6021 C.2       4 UNK         0.4949 
     33 O          22.6759  -29.8164  -40.1095 O.2       4 UNK        -0.5039 
     34 N          23.0982  -27.6104  -40.4244 N.am      5 UNK        -0.4663 
     35 CA         24.3391  -27.5348  -39.6498 C.3       5 UNK         0.0242 
     36 CB         24.6873  -26.0588  -39.3998 C.3       5 UNK        -0.1982 
     37 C          25.5231  -28.2617  -40.3135 C.2       5 UNK         0.5017 
     38 O          26.4104  -28.7298  -39.6001 O.2       5 UNK        -0.5012 
     39 N          25.5189  -28.3460  -41.6515 N.am      6 UNK        -0.4439 
     40 CA         26.5269  -29.0588  -42.4379 C.3       6 UNK         0.0297 
     41 CB         26.6559  -28.4113  -43.8269 C.3       6 UNK        -0.2006 
     42 C          26.1808  -30.5496  -42.5605 C.2       6 UNK         0.4892 
     43 O          27.0730  -31.3901  -42.4439 O.2       6 UNK        -0.5089 
     44 N          24.8927  -30.8484  -42.7797 N.am      7 UNK        -0.4243 
     45 CA         24.3574  -32.2078  -42.8877 C.3       7 UNK         0.0196 
     46 CB         22.9843  -32.1381  -43.5710 C.3       7 UNK        -0.2007 
     47 C          24.2534  -32.9489  -41.5409 C.2       7 UNK         0.5020 
     48 O          24.1446  -34.1752  -41.5452 O.2       7 UNK        -0.5147 
     49 N          24.2752  -32.1998  -40.4285 N.am      8 UNK        -0.4734 
     50 CA         24.0626  -32.6361  -39.0418 C.3       8 UNK         0.0238 
     51 CB         25.1518  -33.6312  -38.5865 C.3       8 UNK        -0.1912 
     52 C          22.6264  -33.1437  -38.8019 C.2       8 UNK         0.5038 
     53 O          22.4267  -34.1147  -38.0689 O.2       8 UNK        -0.5046 
     54 N          21.6561  -32.4698  -39.4295 N.am      9 UNK        -0.4200 
     55 CA         20.2178  -32.7258  -39.2879 C.3       9 UNK         0.0839 
     56 C          19.6419  -31.9986  -38.0458 C.2       9 UNK         0.5513 
     57 N          18.6488  -32.5853  -37.3922 N.am      9 UNK        -0.7519 
     58 O          20.0546  -30.8957  -37.6932 O.2       9 UNK        -0.4960 
     59 C59        19.4412  -32.3324  -40.5705 C.3       10 UNK        -0.0876 
     60 S60        19.9138  -33.3711  -41.9928 S.3       10 UNK        -0.2414 
     61 C61        18.6086  -32.9648  -43.1945 C.3       10 UNK         0.0169 
     62 H62        11.9714  -24.7603  -45.5721 H         1 UNK         0.0903 
     63 H63        12.8612  -23.9070  -44.3098 H         1 UNK         0.0903 
     64 H64        12.4996  -23.0958  -45.8350 H         1 UNK         0.0903 
     65 H65        15.0299  -24.5403  -44.1826 H         1 UNK         0.3096 
     66 H66        16.6825  -24.7595  -46.5141 H         1 UNK         0.1121 
     67 H67        17.4878  -27.1022  -46.0042 H         1 UNK         0.0849 
     68 H68        15.9002  -27.0185  -46.6573 H         1 UNK         0.0849 
     69 H69        17.7758  -27.1942  -43.1720 H         1 UNK         0.0865 
     70 H70        16.7982  -28.3504  -42.3220 H         1 UNK         0.0865 
     71 H71        17.1553  -30.7345  -42.5797 H         1 UNK         0.1346 
     72 H72        20.3911  -32.0841  -45.0430 H         1 UNK         0.1412 
     73 H73        19.2219  -27.9598  -45.0825 H         1 UNK         0.1426 
     74 H74        21.9823  -30.0331  -45.8350 H         1 UNK         0.0716 
     75 H75        20.8405  -30.4485  -47.0860 H         1 UNK         0.0716 
     76 H76        23.3562  -28.1184  -46.0579 H         1 UNK         0.0695 
     77 H77        22.9515  -26.5954  -46.7611 H         1 UNK         0.0695 
     78 H78        23.1628  -26.1152  -44.4937 H         1 UNK         0.0983 
     79 H79        20.4876  -25.9679  -45.4956 H         1 UNK         0.3095 
     80 H80        19.3650  -23.5682  -43.1830 H         1 UNK         0.0454 
     81 H81        20.6562  -22.7732  -45.8431 H         1 UNK         0.0851 
     82 H82        19.4258  -21.8538  -44.9772 H         1 UNK         0.0851 
     83 H83        21.0154  -22.0769  -44.2695 H         1 UNK         0.0851 
     84 H84        18.8908  -24.5892  -45.9607 H         1 UNK         0.2976 
     85 H85        20.6298  -26.9716  -42.7352 H         1 UNK         0.3116 
     86 H86        20.9708  -29.6215  -41.9309 H         1 UNK         0.0646 
     87 H87        20.0072  -27.2008  -40.3083 H         1 UNK         0.0847 
     88 H88        19.0067  -28.3083  -41.2452 H         1 UNK         0.0847 
     89 H89        19.8186  -28.8731  -39.8037 H         1 UNK         0.0847 
     90 H90        22.7786  -26.7608  -40.8682 H         1 UNK         0.3040 
     91 H91        24.1643  -28.0150  -38.6841 H         1 UNK         0.1015 
     92 H92        24.8541  -25.5186  -40.3328 H         1 UNK         0.0786 
     93 H93        25.5964  -25.9678  -38.8033 H         1 UNK         0.0786 
     94 H94        23.8923  -25.5503  -38.8541 H         1 UNK         0.0786 
     95 H95        24.7100  -28.0036  -42.1556 H         1 UNK         0.3172 
     96 H96        27.4960  -28.9762  -41.9407 H         1 UNK         0.0595 
     97 H97        27.4272  -28.9091  -44.4162 H         1 UNK         0.0839 
     98 H98        26.9363  -27.3608  -43.7497 H         1 UNK         0.0839 
     99 H99        25.7269  -28.4693  -44.3950 H         1 UNK         0.0839 
    100 H100       24.2347  -30.0854  -42.9215 H         1 UNK         0.2998 
    101 H101       25.0260  -32.7898  -43.5256 H         1 UNK         0.0822 
    102 H102       22.5442  -33.1310  -43.6718 H         1 UNK         0.0787 
    103 H103       22.2834  -31.5243  -43.0035 H         1 UNK         0.0787 
    104 H104       23.0657  -31.7177  -44.5724 H         1 UNK         0.0787 
    105 H105       24.2849  -31.1949  -40.5567 H         1 UNK         0.3055 
    106 H106       24.1637  -31.7396  -38.4275 H         1 UNK         0.1106 
    107 H107       26.1511  -33.2375  -38.7717 H         1 UNK         0.0828 
    108 H108       25.0750  -33.8289  -37.5168 H         1 UNK         0.0828 
    109 H109       25.0678  -34.5903  -39.0980 H         1 UNK         0.0828 
    110 H110       21.9168  -31.6237  -39.9246 H         1 UNK         0.2931 
    111 H111       20.0777  -33.7983  -39.1354 H         1 UNK         0.0412 
    112 H112       18.2493  -32.1228  -36.5901 H         1 UNK         0.3472 
    113 H113       18.2970  -33.4867  -37.6767 H         1 UNK         0.3472 
    114 H114       18.3665  -32.4439  -40.4143 H         1 UNK         0.0970 
    115 H115       19.6081  -31.2844  -40.8217 H         1 UNK         0.0970 
    116 H116       18.6558  -33.6796  -44.0172 H         1 UNK         0.0612 
    117 H117       17.6299  -33.0975  -42.7309 H         1 UNK         0.0612 
@<TRIPOS>BOND
     1    1    2 1    
     2    1   62 1    
     3    1   63 1    
     4    1   64 1    
     5    2    3 2    
     6    2    4 am   BACKBONE|DICT|INTERRES
     7    4    5 1    
     8    4   65 1    
     9    5    6 1    
    10    5   25 1    
    11    5   66 1    
    12    6    7 1    
    13    6   67 1    
    14    6   68 1    
    15    7    8 1    
    16    8    9 1    
    17    8   69 1    
    18    8   70 1    
    19    9   10 ar   
    20    9   14 ar   
    21   10   11 ar   
    22   10   71 1    
    23   11   12 ar   
    24   11   61 1    
    25   12   13 ar   
    26   12   72 1    
    27   13   14 ar   
    28   13   15 1    
    29   14   73 1    
    30   15   16 1    
    31   15   74 1    
    32   15   75 1    
    33   16   17 1    
    34   17   18 1    
    35   17   76 1    
    36   17   77 1    
    37   18   19 1    
    38   18   27 1    
    39   18   78 1    
    40   19   20 am   BACKBONE|DICT|INTERRES
    41   19   79 1    
    42   20   21 2    
    43   20   22 1    
    44   22   23 1    
    45   22   24 1    
    46   22   80 1    
    47   23   81 1    
    48   23   82 1    
    49   23   83 1    
    50   24   25 am   BACKBONE|DICT|INTERRES
    51   24   84 1    
    52   25   26 2    
    53   27   28 2    
    54   27   29 am   BACKBONE|DICT|INTERRES
    55   29   30 1    
    56   29   85 1    
    57   30   31 1    
    58   30   32 1    
    59   30   86 1    
    60   31   87 1    
    61   31   88 1    
    62   31   89 1    
    63   32   33 2    
    64   32   34 am   BACKBONE|DICT|INTERRES
    65   34   35 1    
    66   34   90 1    
    67   35   36 1    
    68   35   37 1    
    69   35   91 1    
    70   36   92 1    
    71   36   93 1    
    72   36   94 1    
    73   37   38 2    
    74   37   39 am   BACKBONE|DICT|INTERRES
    75   39   40 1    
    76   39   95 1    
    77   40   41 1    
    78   40   42 1    
    79   40   96 1    
    80   41   97 1    
    81   41   98 1    
    82   41   99 1    
    83   42   43 2    
    84   42   44 am   BACKBONE|DICT|INTERRES
    85   44   45 1    
    86   44  100 1    
    87   45   46 1    
    88   45   47 1    
    89   45  101 1    
    90   46  102 1    
    91   46  103 1    
    92   46  104 1    
    93   47   48 2    
    94   47   49 am   BACKBONE|DICT|INTERRES
    95   49   50 1    
    96   49  105 1    
    97   50   51 1    
    98   50   52 1    
    99   50  106 1    
   100   51  107 1    
   101   51  108 1    
   102   51  109 1    
   103   52   53 2    
   104   52   54 am   BACKBONE|DICT|INTERRES
   105   54   55 1    
   106   54  110 1    
   107   55   56 1    
   108   55   59 1    
   109   55  111 1    
   110   56   57 am   BACKBONE|DICT|INTERRES
   111   56   58 2    
   112   57  112 1    
   113   57  113 1    
   114   59   60 1    
   115   59  114 1    
   116   59  115 1    
   117   60   61 1    
   118   61  116 1    
   119   61  117 1    
@<TRIPOS>SUBSTRUCTURE
     1 UNK         1 GROUP             0       ****    0 ROOT    
