@<TRIPOS>MOLECULE
3R8
117   119    1
SMALL
USER_CHARGES


@<TRIPOS>ATOM
      1 CA         16.1105  -24.2921  -45.5616 C.3       0 UNK        -0.2013 
      2 C          14.7554  -24.9914  -45.5955 C.2       0 UNK         0.4866 
      3 O          13.7497  -24.3425  -45.8782 O.2       0 UNK        -0.5176 
      4 N          14.6680  -26.3023  -45.3326 N.am      1 UNK        -0.4884 
      5 CA         15.7517  -27.2075  -44.9258 C.3       1 UNK         0.0853 
      6 C6         15.4529  -28.6667  -45.3713 C.3       10 UNK        -0.0849 
      7 S7         15.8047  -28.8880  -47.1448 S.3       10 UNK        -0.2776 
      8 C8         17.3107  -29.9282  -47.0954 C.3       10 UNK         0.0316 
      9 C9         18.5343  -29.2732  -46.4484 C.ar      10 UNK        -0.0863 
     10 C10        19.4386  -30.0658  -45.7297 C.ar      10 UNK        -0.1009 
     11 C11        20.6115  -29.5132  -45.2046 C.ar      10 UNK        -0.0712 
     12 C12        20.8600  -28.1491  -45.3676 C.ar      10 UNK        -0.0894 
     13 C13        19.9582  -27.3372  -46.0593 C.ar      10 UNK        -0.0745 
     14 C14        18.8125  -27.9108  -46.6184 C.ar      10 UNK        -0.0972 
     15 C15        20.2435  -25.8533  -46.2505 C.3       10 UNK         0.0209 
     16 S16        19.6011  -24.8421  -44.8759 S.3       10 UNK        -0.2568 
     17 C17        20.8904  -25.0643  -43.6015 C.3       10 UNK        -0.0983 
     18 CA         20.3478  -25.4752  -42.2060 C.3       3 UNK         0.0876 
     19 N          19.3549  -26.5542  -42.2807 N.am      3 UNK        -0.4424 
     20 C          18.4837  -26.8590  -41.3081 C.2       2 UNK         0.4918 
     21 O          18.4177  -26.2592  -40.2344 O.2       2 UNK        -0.4875 
     22 CA         17.5413  -28.0377  -41.6038 C.3       2 UNK         0.0481 
     23 CB         16.4551  -28.2511  -40.5274 C.3       2 UNK        -0.1831 
     24 N          16.9790  -27.9661  -42.9553 N.am      2 UNK        -0.4498 
     25 C          16.0653  -27.0993  -43.4176 C.2       1 UNK         0.5027 
     26 O          15.5093  -26.2451  -42.7234 O.2       1 UNK        -0.4969 
     27 C          21.5331  -25.8233  -41.2763 C.2       3 UNK         0.5005 
     28 O          22.2732  -24.9202  -40.8857 O.2       3 UNK        -0.5279 
     29 N          21.7202  -27.1238  -40.9913 N.am      4 UNK        -0.4463 
     30 CA         22.8362  -27.7454  -40.2628 C.3       4 UNK         0.0283 
     31 CB         22.9540  -27.2054  -38.8230 C.3       4 UNK        -0.1875 
     32 C          24.1766  -27.7042  -41.0236 C.2       4 UNK         0.4949 
     33 O          25.2176  -27.9886  -40.4321 O.2       4 UNK        -0.5039 
     34 N          24.1345  -27.4040  -42.3304 N.am      5 UNK        -0.4663 
     35 CA         25.2988  -27.2936  -43.2168 C.3       5 UNK         0.0242 
     36 CB         24.8497  -26.7192  -44.5703 C.3       5 UNK        -0.1982 
     37 C          26.0524  -28.6196  -43.4193 C.2       5 UNK         0.5017 
     38 O          27.2700  -28.6000  -43.5994 O.2       5 UNK        -0.5012 
     39 N          25.3186  -29.7388  -43.3624 N.am      6 UNK        -0.4439 
     40 CA         25.8545  -31.1015  -43.4271 C.3       6 UNK         0.0297 
     41 CB         24.9347  -31.9565  -44.3175 C.3       6 UNK        -0.2006 
     42 C          26.0020  -31.7373  -42.0317 C.2       6 UNK         0.4892 
     43 O          26.2670  -32.9377  -41.9539 O.2       6 UNK        -0.5089 
     44 N          25.7819  -30.9557  -40.9611 N.am      7 UNK        -0.4243 
     45 CA         25.7362  -31.3224  -39.5375 C.3       7 UNK         0.0196 
     46 CB         27.0761  -31.9077  -39.0507 C.3       7 UNK        -0.2007 
     47 C          24.5559  -32.2359  -39.1624 C.2       7 UNK         0.5020 
     48 O          23.8418  -31.9343  -38.2068 O.2       7 UNK        -0.5147 
     49 N          24.3466  -33.3138  -39.9285 N.am      8 UNK        -0.4734 
     50 CA         23.2857  -34.3105  -39.7457 C.3       8 UNK         0.0238 
     51 CB         23.4955  -35.4577  -40.7469 C.3       8 UNK        -0.1912 
     52 C          21.8613  -33.7416  -39.8706 C.2       8 UNK         0.5038 
     53 O          20.9517  -34.2553  -39.2182 O.2       8 UNK        -0.5046 
     54 N          21.7001  -32.6900  -40.6841 N.am      9 UNK        -0.4200 
     55 CA         20.4642  -31.9033  -40.8030 C.3       9 UNK         0.0839 
     56 C          20.2491  -30.8670  -39.6588 C.2       9 UNK         0.5513 
     57 N          21.1610  -30.7065  -38.7064 N.am      9 UNK        -0.7519 
     58 O          19.2191  -30.2026  -39.6238 O.2       9 UNK        -0.4960 
     59 C59        20.3036  -31.2889  -42.2210 C.3       10 UNK        -0.0876 
     60 S60        21.6723  -30.1871  -42.7200 S.3       10 UNK        -0.2414 
     61 C61        21.6564  -30.3896  -44.5286 C.3       10 UNK         0.0169 
     62 H62        16.7825  -24.7097  -46.3108 H         1 UNK         0.0903 
     63 H63        15.9985  -23.2294  -45.7751 H         1 UNK         0.0903 
     64 H64        16.5728  -24.3822  -44.5794 H         1 UNK         0.0903 
     65 H65        13.7506  -26.7239  -45.3497 H         1 UNK         0.3096 
     66 H66        16.6679  -26.8828  -45.4156 H         1 UNK         0.1121 
     67 H67        16.0321  -29.4121  -44.8254 H         1 UNK         0.0849 
     68 H68        14.4090  -28.9232  -45.1820 H         1 UNK         0.0849 
     69 H69        17.0672  -30.8628  -46.5874 H         1 UNK         0.0865 
     70 H70        17.5731  -30.1999  -48.1186 H         1 UNK         0.0865 
     71 H71        19.2534  -31.1255  -45.6170 H         1 UNK         0.1346 
     72 H72        21.7758  -27.7316  -44.9784 H         1 UNK         0.1412 
     73 H73        18.1421  -27.2927  -47.1995 H         1 UNK         0.1426 
     74 H74        19.7826  -25.5069  -47.1768 H         1 UNK         0.0716 
     75 H75        21.3146  -25.6817  -46.3691 H         1 UNK         0.0716 
     76 H76        21.6261  -25.7835  -43.9577 H         1 UNK         0.0695 
     77 H77        21.4310  -24.1192  -43.5204 H         1 UNK         0.0695 
     78 H78        19.8515  -24.6033  -41.7735 H         1 UNK         0.0983 
     79 H79        19.3161  -27.0610  -43.1529 H         1 UNK         0.3095 
     80 H80        18.1693  -28.9258  -41.6033 H         1 UNK         0.0454 
     81 H81        16.9111  -28.4676  -39.5605 H         1 UNK         0.0851 
     82 H82        15.8099  -29.0936  -40.7748 H         1 UNK         0.0851 
     83 H83        15.8267  -27.3704  -40.3949 H         1 UNK         0.0851 
     84 H84        17.3744  -28.6231  -43.6138 H         1 UNK         0.2976 
     85 H85        21.0447  -27.7748  -41.3675 H         1 UNK         0.3116 
     86 H86        22.5842  -28.8027  -40.1844 H         1 UNK         0.0646 
     87 H87        21.9965  -27.2487  -38.3041 H         1 UNK         0.0847 
     88 H88        23.6622  -27.7974  -38.2420 H         1 UNK         0.0847 
     89 H89        23.3034  -26.1730  -38.8015 H         1 UNK         0.0847 
     90 H90        23.2344  -27.1928  -42.7314 H         1 UNK         0.3040 
     91 H91        25.9973  -26.5897  -42.7584 H         1 UNK         0.1015 
     92 H92        25.7056  -26.5651  -45.2291 H         1 UNK         0.0786 
     93 H93        24.3586  -25.7530  -44.4513 H         1 UNK         0.0786 
     94 H94        24.1613  -27.3883  -45.0873 H         1 UNK         0.0786 
     95 H95        24.3256  -29.6469  -43.1997 H         1 UNK         0.3172 
     96 H96        26.8468  -31.0915  -43.8824 H         1 UNK         0.0595 
     97 H97        23.9537  -32.1030  -43.8650 H         1 UNK         0.0839 
     98 H98        25.3625  -32.9461  -44.4842 H         1 UNK         0.0839 
     99 H99        24.7928  -31.5017  -45.2978 H         1 UNK         0.0839 
    100 H100       25.5964  -29.9746  -41.1350 H         1 UNK         0.2998 
    101 H101       25.5815  -30.3838  -39.0023 H         1 UNK         0.0822 
    102 H102       27.0571  -32.0729  -37.9727 H         1 UNK         0.0787 
    103 H103       27.9029  -31.2289  -39.2597 H         1 UNK         0.0787 
    104 H104       27.3025  -32.8659  -39.5190 H         1 UNK         0.0787 
    105 H105       24.9970  -33.4597  -40.6982 H         1 UNK         0.3055 
    106 H106       23.3829  -34.7121  -38.7346 H         1 UNK         0.1106 
    107 H107       23.4439  -35.1075  -41.7787 H         1 UNK         0.0828 
    108 H108       24.4642  -35.9369  -40.6039 H         1 UNK         0.0828 
    109 H109       22.7333  -36.2286  -40.6246 H         1 UNK         0.0828 
    110 H110       22.5059  -32.3259  -41.1692 H         1 UNK         0.2931 
    111 H111       19.6324  -32.6018  -40.6923 H         1 UNK         0.0412 
    112 H112       20.9802  -30.0402  -37.9734 H         1 UNK         0.3472 
    113 H113       22.0111  -31.2575  -38.6806 H         1 UNK         0.3472 
    114 H114       20.2299  -32.1033  -42.9429 H         1 UNK         0.0970 
    115 H115       19.3620  -30.7472  -42.3086 H         1 UNK         0.0970 
    116 H116       22.6391  -30.1166  -44.9147 H         1 UNK         0.0612 
    117 H117       21.5161  -31.4397  -44.7888 H         1 UNK         0.0612 
@<TRIPOS>BOND
     1    1    2 1    
     2    1   62 1    
     3    1   63 1    
     4    1   64 1    
     5    2    3 2    
     6    2    4 am   BACKBONE|DICT|INTERRES
     7    4    5 1    
     8    4   65 1    
     9    5    6 1    
    10    5   25 1    
    11    5   66 1    
    12    6    7 1    
    13    6   67 1    
    14    6   68 1    
    15    7    8 1    
    16    8    9 1    
    17    8   69 1    
    18    8   70 1    
    19    9   10 ar   
    20    9   14 ar   
    21   10   11 ar   
    22   10   71 1    
    23   11   12 ar   
    24   11   61 1    
    25   12   13 ar   
    26   12   72 1    
    27   13   14 ar   
    28   13   15 1    
    29   14   73 1    
    30   15   16 1    
    31   15   74 1    
    32   15   75 1    
    33   16   17 1    
    34   17   18 1    
    35   17   76 1    
    36   17   77 1    
    37   18   19 1    
    38   18   27 1    
    39   18   78 1    
    40   19   20 am   BACKBONE|DICT|INTERRES
    41   19   79 1    
    42   20   21 2    
    43   20   22 1    
    44   22   23 1    
    45   22   24 1    
    46   22   80 1    
    47   23   81 1    
    48   23   82 1    
    49   23   83 1    
    50   24   25 am   BACKBONE|DICT|INTERRES
    51   24   84 1    
    52   25   26 2    
    53   27   28 2    
    54   27   29 am   BACKBONE|DICT|INTERRES
    55   29   30 1    
    56   29   85 1    
    57   30   31 1    
    58   30   32 1    
    59   30   86 1    
    60   31   87 1    
    61   31   88 1    
    62   31   89 1    
    63   32   33 2    
    64   32   34 am   BACKBONE|DICT|INTERRES
    65   34   35 1    
    66   34   90 1    
    67   35   36 1    
    68   35   37 1    
    69   35   91 1    
    70   36   92 1    
    71   36   93 1    
    72   36   94 1    
    73   37   38 2    
    74   37   39 am   BACKBONE|DICT|INTERRES
    75   39   40 1    
    76   39   95 1    
    77   40   41 1    
    78   40   42 1    
    79   40   96 1    
    80   41   97 1    
    81   41   98 1    
    82   41   99 1    
    83   42   43 2    
    84   42   44 am   BACKBONE|DICT|INTERRES
    85   44   45 1    
    86   44  100 1    
    87   45   46 1    
    88   45   47 1    
    89   45  101 1    
    90   46  102 1    
    91   46  103 1    
    92   46  104 1    
    93   47   48 2    
    94   47   49 am   BACKBONE|DICT|INTERRES
    95   49   50 1    
    96   49  105 1    
    97   50   51 1    
    98   50   52 1    
    99   50  106 1    
   100   51  107 1    
   101   51  108 1    
   102   51  109 1    
   103   52   53 2    
   104   52   54 am   BACKBONE|DICT|INTERRES
   105   54   55 1    
   106   54  110 1    
   107   55   56 1    
   108   55   59 1    
   109   55  111 1    
   110   56   57 am   BACKBONE|DICT|INTERRES
   111   56   58 2    
   112   57  112 1    
   113   57  113 1    
   114   59   60 1    
   115   59  114 1    
   116   59  115 1    
   117   60   61 1    
   118   61  116 1    
   119   61  117 1    
@<TRIPOS>SUBSTRUCTURE
     1 UNK         1 GROUP             0       ****    0 ROOT    
