@<TRIPOS>MOLECULE
3R8
117   119    1
SMALL
USER_CHARGES


@<TRIPOS>ATOM
      1 CA         14.0658  -24.8813  -45.0086 C.3       0 UNK        -0.2013 
      2 C          15.5277  -25.2992  -45.0015 C.2       0 UNK         0.4866 
      3 O          16.0958  -25.5161  -43.9318 O.2       0 UNK        -0.5176 
      4 N          16.1495  -25.3943  -46.1858 N.am      1 UNK        -0.4884 
      5 CA         17.5261  -25.8517  -46.4663 C.3       1 UNK         0.0853 
      6 C6         17.8274  -27.2866  -45.9492 C.3       10 UNK        -0.0849 
      7 S7         16.6409  -28.5655  -46.4884 S.3       10 UNK        -0.2776 
      8 C8         15.8113  -29.0210  -44.9222 C.3       10 UNK         0.0316 
      9 C9         16.7831  -29.4035  -43.8088 C.ar      10 UNK        -0.0863 
     10 C10        17.7111  -30.4313  -43.9994 C.ar      10 UNK        -0.1009 
     11 C11        18.6169  -30.7684  -42.9897 C.ar      10 UNK        -0.0712 
     12 C12        18.5772  -30.0824  -41.7720 C.ar      10 UNK        -0.0894 
     13 C13        17.6515  -29.0551  -41.5638 C.ar      10 UNK        -0.0745 
     14 C14        16.7570  -28.7217  -42.5867 C.ar      10 UNK        -0.0972 
     15 C15        17.6126  -28.3114  -40.2334 C.3       10 UNK         0.0209 
     16 S16        18.0899  -26.5578  -40.3939 S.3       10 UNK        -0.2568 
     17 C17        19.8753  -26.6663  -40.7600 C.3       10 UNK        -0.0983 
     18 CA         20.1566  -26.7380  -42.2812 C.3       3 UNK         0.0876 
     19 N          19.6060  -25.5971  -43.0233 N.am      3 UNK        -0.4424 
     20 C          20.1062  -24.3583  -43.1675 C.2       2 UNK         0.4918 
     21 O          21.1474  -23.9632  -42.6427 O.2       2 UNK        -0.4875 
     22 CA         19.2864  -23.3886  -44.0506 C.3       2 UNK         0.0481 
     23 CB         20.1716  -22.3854  -44.8198 C.3       2 UNK        -0.1831 
     24 N          18.3518  -24.0908  -44.9419 N.am      2 UNK        -0.4498 
     25 C          18.6455  -24.9093  -45.9637 C.2       1 UNK         0.5027 
     26 O          19.7674  -25.0047  -46.4619 O.2       1 UNK        -0.4969 
     27 C          21.6395  -26.9984  -42.6161 C.2       3 UNK         0.5005 
     28 O          22.5068  -26.8606  -41.7489 O.2       3 UNK        -0.5279 
     29 N          21.8816  -27.3386  -43.8916 N.am      4 UNK        -0.4463 
     30 CA         23.1842  -27.5135  -44.5413 C.3       4 UNK         0.0283 
     31 CB         22.9737  -28.1924  -45.9042 C.3       4 UNK        -0.1875 
     32 C          24.2218  -28.2948  -43.7161 C.2       4 UNK         0.4949 
     33 O          23.9198  -29.3821  -43.2152 O.2       4 UNK        -0.5039 
     34 N          25.4203  -27.7019  -43.6050 N.am      5 UNK        -0.4663 
     35 CA         26.5974  -28.1941  -42.8782 C.3       5 UNK         0.0242 
     36 CB         27.2512  -29.3597  -43.6494 C.3       5 UNK        -0.1982 
     37 C          26.3196  -28.4953  -41.3901 C.2       5 UNK         0.5017 
     38 O          26.8089  -29.4935  -40.8599 O.2       5 UNK        -0.5012 
     39 N          25.5362  -27.6078  -40.7559 N.am      6 UNK        -0.4439 
     40 CA         25.0619  -27.6622  -39.3679 C.3       6 UNK         0.0297 
     41 CB         26.2351  -27.5414  -38.3710 C.3       6 UNK        -0.2006 
     42 C          24.1673  -28.8897  -39.1136 C.2       6 UNK         0.4892 
     43 O          24.4126  -29.6510  -38.1758 O.2       6 UNK        -0.5089 
     44 N          23.1479  -29.0428  -39.9721 N.am      7 UNK        -0.4243 
     45 CA         22.1637  -30.1302  -40.0077 C.3       7 UNK         0.0196 
     46 CB         21.2410  -30.0772  -38.7696 C.3       7 UNK        -0.2007 
     47 C          22.8202  -31.5102  -40.1986 C.2       7 UNK         0.5020 
     48 O          22.5551  -32.4358  -39.4285 O.2       7 UNK        -0.5147 
     49 N          23.6682  -31.6307  -41.2305 N.am      8 UNK        -0.4734 
     50 CA         24.4738  -32.8288  -41.5112 C.3       8 UNK         0.0238 
     51 CB         25.4784  -32.5184  -42.6291 C.3       8 UNK        -0.1912 
     52 C          23.6757  -34.1058  -41.8359 C.2       8 UNK         0.5038 
     53 O          24.2432  -35.1968  -41.7615 O.2       8 UNK        -0.5046 
     54 N          22.3876  -33.9597  -42.1705 N.am      9 UNK        -0.4200 
     55 CA         21.4340  -35.0670  -42.3175 C.3       9 UNK         0.0839 
     56 C          21.0321  -35.7631  -40.9813 C.2       9 UNK         0.5513 
     57 N          21.3254  -35.1962  -39.8154 N.am      9 UNK        -0.7519 
     58 O          20.4541  -36.8467  -41.0076 O.2       9 UNK        -0.4960 
     59 C59        20.2043  -34.6511  -43.1662 C.3       10 UNK        -0.0876 
     60 S60        19.1240  -33.4030  -42.3795 S.3       10 UNK        -0.2414 
     61 C61        19.6347  -31.8743  -43.2185 C.3       10 UNK         0.0169 
     62 H62        13.6927  -24.7156  -46.0191 H         1 UNK         0.0903 
     63 H63        13.4549  -25.6548  -44.5441 H         1 UNK         0.0903 
     64 H64        13.9364  -23.9593  -44.4425 H         1 UNK         0.0903 
     65 H65        15.6191  -25.1659  -47.0159 H         1 UNK         0.3096 
     66 H66        17.6156  -25.8671  -47.5540 H         1 UNK         0.1121 
     67 H67        17.8930  -27.2851  -44.8618 H         1 UNK         0.0849 
     68 H68        18.8102  -27.6111  -46.2975 H         1 UNK         0.0849 
     69 H69        15.1725  -28.1949  -44.6090 H         1 UNK         0.0865 
     70 H70        15.1443  -29.8632  -45.1109 H         1 UNK         0.0865 
     71 H71        17.7334  -30.9611  -44.9421 H         1 UNK         0.1346 
     72 H72        19.2616  -30.3577  -40.9836 H         1 UNK         0.1412 
     73 H73        16.0476  -27.9194  -42.4307 H         1 UNK         0.1426 
     74 H74        18.2536  -28.7936  -39.4937 H         1 UNK         0.0716 
     75 H75        16.5987  -28.3605  -39.8340 H         1 UNK         0.0716 
     76 H76        20.2860  -27.5379  -40.2513 H         1 UNK         0.0695 
     77 H77        20.3684  -25.7960  -40.3232 H         1 UNK         0.0695 
     78 H78        19.6293  -27.6100  -42.6654 H         1 UNK         0.0983 
     79 H79        18.7025  -25.7649  -43.4420 H         1 UNK         0.3095 
     80 H80        18.6631  -22.8140  -43.3642 H         1 UNK         0.0454 
     81 H81        20.9103  -22.8872  -45.4451 H         1 UNK         0.0851 
     82 H82        20.7201  -21.7431  -44.1299 H         1 UNK         0.0851 
     83 H83        19.5740  -21.7359  -45.4590 H         1 UNK         0.0851 
     84 H84        17.4012  -24.1623  -44.5924 H         1 UNK         0.2976 
     85 H85        21.0858  -27.4138  -44.5071 H         1 UNK         0.3116 
     86 H86        23.5705  -26.5085  -44.7221 H         1 UNK         0.0646 
     87 H87        22.3249  -27.6007  -46.5506 H         1 UNK         0.0847 
     88 H88        23.9215  -28.3189  -46.4295 H         1 UNK         0.0847 
     89 H89        22.5291  -29.1826  -45.7944 H         1 UNK         0.0847 
     90 H90        25.5409  -26.8044  -44.0552 H         1 UNK         0.3040 
     91 H91        27.3199  -27.3761  -42.8681 H         1 UNK         0.1015 
     92 H92        26.5446  -30.1642  -43.8434 H         1 UNK         0.0786 
     93 H93        28.0973  -29.7808  -43.1050 H         1 UNK         0.0786 
     94 H94        27.6296  -29.0222  -44.6142 H         1 UNK         0.0786 
     95 H95        25.1447  -26.8600  -41.3136 H         1 UNK         0.3172 
     96 H96        24.4248  -26.7872  -39.2293 H         1 UNK         0.0595 
     97 H97        26.8998  -28.4046  -38.4160 H         1 UNK         0.0839 
     98 H98        25.8679  -27.4706  -37.3465 H         1 UNK         0.0839 
     99 H99        26.8302  -26.6490  -38.5638 H         1 UNK         0.0839 
    100 H100       23.0498  -28.3393  -40.7019 H         1 UNK         0.2998 
    101 H101       21.5539  -29.9529  -40.8937 H         1 UNK         0.0822 
    102 H102       20.4344  -30.8067  -38.8514 H         1 UNK         0.0787 
    103 H103       21.7851  -30.3032  -37.8518 H         1 UNK         0.0787 
    104 H104       20.7827  -29.0974  -38.6460 H         1 UNK         0.0787 
    105 H105       23.8226  -30.8256  -41.8338 H         1 UNK         0.3055 
    106 H106       25.0420  -33.0523  -40.6055 H         1 UNK         0.1106 
    107 H107       26.0418  -33.4067  -42.9184 H         1 UNK         0.0828 
    108 H108       24.9852  -32.1349  -43.5230 H         1 UNK         0.0828 
    109 H109       26.2046  -31.7803  -42.2921 H         1 UNK         0.0828 
    110 H110       22.0003  -33.0297  -42.1792 H         1 UNK         0.2931 
    111 H111       21.9488  -35.8381  -42.8943 H         1 UNK         0.0412 
    112 H112       21.0626  -35.6626  -38.9619 H         1 UNK         0.3472 
    113 H113       21.7847  -34.2926  -39.7739 H         1 UNK         0.3472 
    114 H114       20.5339  -34.2909  -44.1418 H         1 UNK         0.0970 
    115 H115       19.5926  -35.5292  -43.3814 H         1 UNK         0.0970 
    116 H116       20.6126  -31.5611  -42.8508 H         1 UNK         0.0612 
    117 H117       19.7494  -32.0621  -44.2872 H         1 UNK         0.0612 
@<TRIPOS>BOND
     1    1    2 1    
     2    1   62 1    
     3    1   63 1    
     4    1   64 1    
     5    2    3 2    
     6    2    4 am   BACKBONE|DICT|INTERRES
     7    4    5 1    
     8    4   65 1    
     9    5    6 1    
    10    5   25 1    
    11    5   66 1    
    12    6    7 1    
    13    6   67 1    
    14    6   68 1    
    15    7    8 1    
    16    8    9 1    
    17    8   69 1    
    18    8   70 1    
    19    9   10 ar   
    20    9   14 ar   
    21   10   11 ar   
    22   10   71 1    
    23   11   12 ar   
    24   11   61 1    
    25   12   13 ar   
    26   12   72 1    
    27   13   14 ar   
    28   13   15 1    
    29   14   73 1    
    30   15   16 1    
    31   15   74 1    
    32   15   75 1    
    33   16   17 1    
    34   17   18 1    
    35   17   76 1    
    36   17   77 1    
    37   18   19 1    
    38   18   27 1    
    39   18   78 1    
    40   19   20 am   BACKBONE|DICT|INTERRES
    41   19   79 1    
    42   20   21 2    
    43   20   22 1    
    44   22   23 1    
    45   22   24 1    
    46   22   80 1    
    47   23   81 1    
    48   23   82 1    
    49   23   83 1    
    50   24   25 am   BACKBONE|DICT|INTERRES
    51   24   84 1    
    52   25   26 2    
    53   27   28 2    
    54   27   29 am   BACKBONE|DICT|INTERRES
    55   29   30 1    
    56   29   85 1    
    57   30   31 1    
    58   30   32 1    
    59   30   86 1    
    60   31   87 1    
    61   31   88 1    
    62   31   89 1    
    63   32   33 2    
    64   32   34 am   BACKBONE|DICT|INTERRES
    65   34   35 1    
    66   34   90 1    
    67   35   36 1    
    68   35   37 1    
    69   35   91 1    
    70   36   92 1    
    71   36   93 1    
    72   36   94 1    
    73   37   38 2    
    74   37   39 am   BACKBONE|DICT|INTERRES
    75   39   40 1    
    76   39   95 1    
    77   40   41 1    
    78   40   42 1    
    79   40   96 1    
    80   41   97 1    
    81   41   98 1    
    82   41   99 1    
    83   42   43 2    
    84   42   44 am   BACKBONE|DICT|INTERRES
    85   44   45 1    
    86   44  100 1    
    87   45   46 1    
    88   45   47 1    
    89   45  101 1    
    90   46  102 1    
    91   46  103 1    
    92   46  104 1    
    93   47   48 2    
    94   47   49 am   BACKBONE|DICT|INTERRES
    95   49   50 1    
    96   49  105 1    
    97   50   51 1    
    98   50   52 1    
    99   50  106 1    
   100   51  107 1    
   101   51  108 1    
   102   51  109 1    
   103   52   53 2    
   104   52   54 am   BACKBONE|DICT|INTERRES
   105   54   55 1    
   106   54  110 1    
   107   55   56 1    
   108   55   59 1    
   109   55  111 1    
   110   56   57 am   BACKBONE|DICT|INTERRES
   111   56   58 2    
   112   57  112 1    
   113   57  113 1    
   114   59   60 1    
   115   59  114 1    
   116   59  115 1    
   117   60   61 1    
   118   61  116 1    
   119   61  117 1    
@<TRIPOS>SUBSTRUCTURE
     1 UNK         1 GROUP             0       ****    0 ROOT    
