@<TRIPOS>MOLECULE
3R8
117   119    1
SMALL
USER_CHARGES


@<TRIPOS>ATOM
      1 CA         15.8298  -23.2703  -41.5415 C.3       0 UNK        -0.2013 
      2 C          16.4973  -23.5386  -42.8822 C.2       0 UNK         0.4866 
      3 O          16.9244  -22.5982  -43.5533 O.2       0 UNK        -0.5176 
      4 N          16.5806  -24.8134  -43.2815 N.am      1 UNK        -0.4884 
      5 CA         17.2357  -25.2638  -44.5140 C.3       1 UNK         0.0853 
      6 C6         16.9129  -26.7432  -44.8243 C.3       10 UNK        -0.0849 
      7 S7         15.1352  -27.0855  -45.0690 S.3       10 UNK        -0.2776 
      8 C8         14.8809  -28.6020  -44.0673 C.3       10 UNK         0.0316 
      9 C9         15.9118  -29.7147  -44.2837 C.ar      10 UNK        -0.0863 
     10 C10        16.1901  -30.6026  -43.2396 C.ar      10 UNK        -0.1009 
     11 C11        17.1756  -31.5885  -43.3668 C.ar      10 UNK        -0.0712 
     12 C12        17.8978  -31.6719  -44.5669 C.ar      10 UNK        -0.0894 
     13 C13        17.6240  -30.8007  -45.6234 C.ar      10 UNK        -0.0745 
     14 C14        16.6053  -29.8566  -45.4894 C.ar      10 UNK        -0.0972 
     15 C15        18.4196  -30.8637  -46.9176 C.3       10 UNK         0.0209 
     16 S16        19.3224  -29.3081  -47.2236 S.3       10 UNK        -0.2568 
     17 C17        20.9595  -29.6081  -46.4633 C.3       10 UNK        -0.0983 
     18 CA         21.4225  -28.5604  -45.4073 C.3       3 UNK         0.0876 
     19 N          20.9666  -27.2001  -45.7109 N.am      3 UNK        -0.4424 
     20 C          21.6048  -26.0724  -45.3718 C.2       2 UNK         0.4918 
     21 O          22.7012  -26.0453  -44.8148 O.2       2 UNK        -0.4875 
     22 CA         20.8804  -24.7485  -45.6853 C.3       2 UNK         0.0481 
     23 CB         21.2539  -24.2528  -47.0911 C.3       2 UNK        -0.1831 
     24 N          19.4184  -24.8371  -45.5673 N.am      2 UNK        -0.4498 
     25 C          18.7669  -25.0998  -44.4246 C.2       1 UNK         0.5027 
     26 O          19.3376  -25.2971  -43.3498 O.2       1 UNK        -0.4969 
     27 C          21.1246  -28.9941  -43.9548 C.2       3 UNK         0.5005 
     28 O          21.6892  -29.9957  -43.5167 O.2       3 UNK        -0.5279 
     29 N          20.3116  -28.2322  -43.2066 N.am      4 UNK        -0.4463 
     30 CA         20.0468  -28.4433  -41.7801 C.3       4 UNK         0.0283 
     31 CB         18.5625  -28.1632  -41.4851 C.3       4 UNK        -0.1875 
     32 C          20.9957  -27.5794  -40.9310 C.2       4 UNK         0.4949 
     33 O          20.5473  -26.8250  -40.0660 O.2       4 UNK        -0.5039 
     34 N          22.2975  -27.6902  -41.2098 N.am      5 UNK        -0.4663 
     35 CA         23.3783  -26.9552  -40.5618 C.3       5 UNK         0.0242 
     36 CB         23.5641  -25.5945  -41.2584 C.3       5 UNK        -0.1982 
     37 C          24.6588  -27.7947  -40.6329 C.2       5 UNK         0.5017 
     38 O          24.7088  -28.7723  -41.3843 O.2       5 UNK        -0.5012 
     39 N          25.6674  -27.4062  -39.8376 N.am      6 UNK        -0.4439 
     40 CA         27.0140  -27.9996  -39.7597 C.3       6 UNK         0.0297 
     41 CB         27.8050  -27.6903  -41.0490 C.3       6 UNK        -0.2006 
     42 C          27.0297  -29.5058  -39.4147 C.2       6 UNK         0.4892 
     43 O          27.9668  -30.2096  -39.7942 O.2       6 UNK        -0.5089 
     44 N          25.9776  -29.9686  -38.7212 N.am      7 UNK        -0.4243 
     45 CA         25.6699  -31.3620  -38.3751 C.3       7 UNK         0.0196 
     46 CB         26.7266  -31.9382  -37.4079 C.3       7 UNK        -0.2007 
     47 C          25.4200  -32.2804  -39.5923 C.2       7 UNK         0.5020 
     48 O          25.4639  -33.5018  -39.4379 O.2       7 UNK        -0.5147 
     49 N          25.1380  -31.7054  -40.7728 N.am      8 UNK        -0.4734 
     50 CA         24.8234  -32.4556  -41.9947 C.3       8 UNK         0.0238 
     51 CB         25.0035  -31.5434  -43.2187 C.3       8 UNK        -0.1912 
     52 C          23.4087  -33.0600  -41.9738 C.2       8 UNK         0.5038 
     53 O          23.1863  -34.0969  -42.6002 O.2       8 UNK        -0.5046 
     54 N          22.4933  -32.4138  -41.2456 N.am      9 UNK        -0.4200 
     55 CA         21.1068  -32.8236  -41.0189 C.3       9 UNK         0.0839 
     56 C          20.5488  -32.0893  -39.7719 C.2       9 UNK         0.5513 
     57 N          19.5062  -32.6214  -39.1516 N.am      9 UNK        -0.7519 
     58 O          21.0473  -31.0406  -39.3652 O.2       9 UNK        -0.4960 
     59 C59        20.2264  -32.6217  -42.2829 C.3       10 UNK        -0.0876 
     60 S60        18.7766  -33.7260  -42.3382 S.3       10 UNK        -0.2414 
     61 C61        17.4127  -32.5205  -42.1733 C.3       10 UNK         0.0169 
     62 H62        16.5295  -22.7779  -40.8667 H         1 UNK         0.0903 
     63 H63        14.9678  -22.6172  -41.6753 H         1 UNK         0.0903 
     64 H64        15.4884  -24.1888  -41.0644 H         1 UNK         0.0903 
     65 H65        16.2132  -25.5451  -42.6913 H         1 UNK         0.3096 
     66 H66        16.8690  -24.6434  -45.3350 H         1 UNK         0.1121 
     67 H67        17.4254  -27.0588  -45.7353 H         1 UNK         0.0849 
     68 H68        17.2974  -27.3821  -44.0280 H         1 UNK         0.0849 
     69 H69        14.8750  -28.3096  -43.0160 H         1 UNK         0.0865 
     70 H70        13.8880  -28.9995  -44.2811 H         1 UNK         0.0865 
     71 H71        15.6457  -30.5158  -42.3087 H         1 UNK         0.1346 
     72 H72        18.6751  -32.4106  -44.6939 H         1 UNK         0.1412 
     73 H73        16.3919  -29.1998  -46.3208 H         1 UNK         0.1426 
     74 H74        17.7265  -31.0304  -47.7433 H         1 UNK         0.0716 
     75 H75        19.1090  -31.7091  -46.9251 H         1 UNK         0.0716 
     76 H76        21.6747  -29.6021  -47.2871 H         1 UNK         0.0695 
     77 H77        21.0060  -30.6233  -46.0642 H         1 UNK         0.0695 
     78 H78        22.5141  -28.5483  -45.4575 H         1 UNK         0.0983 
     79 H79        20.0868  -27.1394  -46.2026 H         1 UNK         0.3095 
     80 H80        21.2261  -24.0068  -44.9620 H         1 UNK         0.0454 
     81 H81        22.3356  -24.1559  -47.1953 H         1 UNK         0.0851 
     82 H82        20.8232  -23.2723  -47.2947 H         1 UNK         0.0851 
     83 H83        20.9129  -24.9385  -47.8678 H         1 UNK         0.0851 
     84 H84        18.8874  -24.6944  -46.4152 H         1 UNK         0.2976 
     85 H85        19.9774  -27.3557  -43.5867 H         1 UNK         0.3116 
     86 H86        20.2406  -29.4816  -41.5110 H         1 UNK         0.0646 
     87 H87        18.3006  -27.1209  -41.6677 H         1 UNK         0.0847 
     88 H88        17.9160  -28.7874  -42.0983 H         1 UNK         0.0847 
     89 H89        18.3263  -28.3808  -40.4429 H         1 UNK         0.0847 
     90 H90        22.6038  -28.3787  -41.8888 H         1 UNK         0.3040 
     91 H91        23.1293  -26.8011  -39.5094 H         1 UNK         0.1015 
     92 H92        24.3461  -25.0053  -40.7782 H         1 UNK         0.0786 
     93 H93        22.6489  -25.0029  -41.2258 H         1 UNK         0.0786 
     94 H94        23.8429  -25.7165  -42.3059 H         1 UNK         0.0786 
     95 H95        25.5171  -26.6027  -39.2418 H         1 UNK         0.3172 
     96 H96        27.5207  -27.4987  -38.9336 H         1 UNK         0.0595 
     97 H97        27.3889  -28.2121  -41.9117 H         1 UNK         0.0839 
     98 H98        28.8475  -27.9971  -40.9555 H         1 UNK         0.0839 
     99 H99        27.8036  -26.6230  -41.2701 H         1 UNK         0.0839 
    100 H100       25.2710  -29.2944  -38.4624 H         1 UNK         0.2998 
    101 H101       24.7213  -31.3300  -37.8370 H         1 UNK         0.0822 
    102 H102       26.4155  -32.9087  -37.0195 H         1 UNK         0.0787 
    103 H103       26.8793  -31.2832  -36.5502 H         1 UNK         0.0787 
    104 H104       27.6903  -32.0806  -37.8978 H         1 UNK         0.0787 
    105 H105       25.1168  -30.6921  -40.8435 H         1 UNK         0.3055 
    106 H106       25.5311  -33.2833  -42.0821 H         1 UNK         0.1106 
    107 H107       26.0122  -31.1327  -43.2644 H         1 UNK         0.0828 
    108 H108       24.8334  -32.0951  -44.1441 H         1 UNK         0.0828 
    109 H109       24.3023  -30.7085  -43.2067 H         1 UNK         0.0828 
    110 H110       22.7625  -31.5734  -40.7520 H         1 UNK         0.2931 
    111 H111       21.1403  -33.8872  -40.7740 H         1 UNK         0.0412 
    112 H112       19.1295  -32.1605  -38.3382 H         1 UNK         0.3472 
    113 H113       19.0852  -33.4735  -39.4888 H         1 UNK         0.3472 
    114 H114       19.9134  -31.5824  -42.3805 H         1 UNK         0.0970 
    115 H115       20.8030  -32.8295  -43.1850 H         1 UNK         0.0970 
    116 H116       16.4950  -33.0808  -41.9905 H         1 UNK         0.0612 
    117 H117       17.5881  -31.9182  -41.2807 H         1 UNK         0.0612 
@<TRIPOS>BOND
     1    1    2 1    
     2    1   62 1    
     3    1   63 1    
     4    1   64 1    
     5    2    3 2    
     6    2    4 am   BACKBONE|DICT|INTERRES
     7    4    5 1    
     8    4   65 1    
     9    5    6 1    
    10    5   25 1    
    11    5   66 1    
    12    6    7 1    
    13    6   67 1    
    14    6   68 1    
    15    7    8 1    
    16    8    9 1    
    17    8   69 1    
    18    8   70 1    
    19    9   10 ar   
    20    9   14 ar   
    21   10   11 ar   
    22   10   71 1    
    23   11   12 ar   
    24   11   61 1    
    25   12   13 ar   
    26   12   72 1    
    27   13   14 ar   
    28   13   15 1    
    29   14   73 1    
    30   15   16 1    
    31   15   74 1    
    32   15   75 1    
    33   16   17 1    
    34   17   18 1    
    35   17   76 1    
    36   17   77 1    
    37   18   19 1    
    38   18   27 1    
    39   18   78 1    
    40   19   20 am   BACKBONE|DICT|INTERRES
    41   19   79 1    
    42   20   21 2    
    43   20   22 1    
    44   22   23 1    
    45   22   24 1    
    46   22   80 1    
    47   23   81 1    
    48   23   82 1    
    49   23   83 1    
    50   24   25 am   BACKBONE|DICT|INTERRES
    51   24   84 1    
    52   25   26 2    
    53   27   28 2    
    54   27   29 am   BACKBONE|DICT|INTERRES
    55   29   30 1    
    56   29   85 1    
    57   30   31 1    
    58   30   32 1    
    59   30   86 1    
    60   31   87 1    
    61   31   88 1    
    62   31   89 1    
    63   32   33 2    
    64   32   34 am   BACKBONE|DICT|INTERRES
    65   34   35 1    
    66   34   90 1    
    67   35   36 1    
    68   35   37 1    
    69   35   91 1    
    70   36   92 1    
    71   36   93 1    
    72   36   94 1    
    73   37   38 2    
    74   37   39 am   BACKBONE|DICT|INTERRES
    75   39   40 1    
    76   39   95 1    
    77   40   41 1    
    78   40   42 1    
    79   40   96 1    
    80   41   97 1    
    81   41   98 1    
    82   41   99 1    
    83   42   43 2    
    84   42   44 am   BACKBONE|DICT|INTERRES
    85   44   45 1    
    86   44  100 1    
    87   45   46 1    
    88   45   47 1    
    89   45  101 1    
    90   46  102 1    
    91   46  103 1    
    92   46  104 1    
    93   47   48 2    
    94   47   49 am   BACKBONE|DICT|INTERRES
    95   49   50 1    
    96   49  105 1    
    97   50   51 1    
    98   50   52 1    
    99   50  106 1    
   100   51  107 1    
   101   51  108 1    
   102   51  109 1    
   103   52   53 2    
   104   52   54 am   BACKBONE|DICT|INTERRES
   105   54   55 1    
   106   54  110 1    
   107   55   56 1    
   108   55   59 1    
   109   55  111 1    
   110   56   57 am   BACKBONE|DICT|INTERRES
   111   56   58 2    
   112   57  112 1    
   113   57  113 1    
   114   59   60 1    
   115   59  114 1    
   116   59  115 1    
   117   60   61 1    
   118   61  116 1    
   119   61  117 1    
@<TRIPOS>SUBSTRUCTURE
     1 UNK         1 GROUP             0       ****    0 ROOT    
