@<TRIPOS>MOLECULE
3R8
117   119    1
SMALL
USER_CHARGES


@<TRIPOS>ATOM
      1 CA         13.1887  -24.4579  -43.6186 C.3       0 UNK        -0.2013 
      2 C          14.6282  -24.9307  -43.7536 C.2       0 UNK         0.4866 
      3 O          15.4423  -24.6615  -42.8692 O.2       0 UNK        -0.5176 
      4 N          14.9452  -25.6222  -44.8579 N.am      1 UNK        -0.4884 
      5 CA         16.2471  -26.2024  -45.2311 C.3       1 UNK         0.0853 
      6 C6         16.8015  -27.2340  -44.2126 C.3       10 UNK        -0.0849 
      7 S7         15.7507  -28.7220  -44.0836 S.3       10 UNK        -0.2776 
      8 C8         16.4980  -29.8336  -45.3227 C.3       10 UNK         0.0316 
      9 C9         17.8996  -30.2768  -44.9264 C.ar      10 UNK        -0.0863 
     10 C10        18.0802  -31.3261  -44.0227 C.ar      10 UNK        -0.1009 
     11 C11        19.3657  -31.7273  -43.6471 C.ar      10 UNK        -0.0712 
     12 C12        20.4770  -31.0560  -44.1716 C.ar      10 UNK        -0.0894 
     13 C13        20.3124  -30.0046  -45.0817 C.ar      10 UNK        -0.0745 
     14 C14        19.0181  -29.6421  -45.4718 C.ar      10 UNK        -0.0972 
     15 C15        21.5386  -29.3148  -45.6797 C.3       10 UNK         0.0209 
     16 S16        21.3097  -27.5315  -46.0179 S.3       10 UNK        -0.2568 
     17 C17        21.7625  -26.7900  -44.4192 C.3       10 UNK        -0.0983 
     18 CA         21.7232  -25.2426  -44.4808 C.3       3 UNK         0.0876 
     19 N          20.3506  -24.7313  -44.4992 N.am      3 UNK        -0.4424 
     20 C          20.0002  -23.5085  -44.9186 C.2       2 UNK         0.4918 
     21 O          20.7993  -22.7096  -45.4110 O.2       2 UNK        -0.4875 
     22 CA         18.5224  -23.0938  -44.7401 C.3       2 UNK         0.0481 
     23 CB         18.0638  -22.0747  -45.8046 C.3       2 UNK        -0.1831 
     24 N          17.5763  -24.2149  -44.6546 N.am      2 UNK        -0.4498 
     25 C          17.3096  -25.1412  -45.5863 C.2       1 UNK         0.5027 
     26 O          17.8578  -25.1861  -46.6879 O.2       1 UNK        -0.4969 
     27 C          22.4906  -24.6223  -43.2969 C.2       3 UNK         0.5005 
     28 O          21.9493  -24.5545  -42.1901 O.2       3 UNK        -0.5279 
     29 N          23.7388  -24.1974  -43.5450 N.am      4 UNK        -0.4463 
     30 CA         24.6355  -23.6144  -42.5382 C.3       4 UNK         0.0283 
     31 CB         25.8180  -22.9276  -43.2406 C.3       4 UNK        -0.1875 
     32 C          25.1436  -24.6454  -41.5145 C.2       4 UNK         0.4949 
     33 O          25.3788  -24.2901  -40.3595 O.2       4 UNK        -0.5039 
     34 N          25.2819  -25.9002  -41.9529 N.am      5 UNK        -0.4663 
     35 CA         25.5577  -27.0702  -41.1296 C.3       5 UNK         0.0242 
     36 CB         27.0650  -27.3758  -41.1315 C.3       5 UNK        -0.1982 
     37 C          24.7508  -28.2247  -41.7285 C.2       5 UNK         0.5017 
     38 O          24.6946  -28.3433  -42.9549 O.2       5 UNK        -0.5012 
     39 N          24.1372  -29.0398  -40.8671 N.am      6 UNK        -0.4439 
     40 CA         23.2324  -30.1224  -41.2488 C.3       6 UNK         0.0297 
     41 CB         21.7751  -29.6353  -41.1337 C.3       6 UNK        -0.2006 
     42 C          23.5234  -31.3608  -40.3941 C.2       6 UNK         0.4892 
     43 O          22.6169  -31.9109  -39.7696 O.2       6 UNK        -0.5089 
     44 N          24.7936  -31.7892  -40.3814 N.am      7 UNK        -0.4243 
     45 CA         25.3019  -32.9288  -39.6025 C.3       7 UNK         0.0196 
     46 CB         26.8217  -33.0367  -39.8079 C.3       7 UNK        -0.2007 
     47 C          24.6210  -34.2797  -39.9044 C.2       7 UNK         0.5020 
     48 O          24.6714  -35.1815  -39.0682 O.2       7 UNK        -0.5147 
     49 N          23.9833  -34.3907  -41.0769 N.am      8 UNK        -0.4734 
     50 CA         23.1781  -35.5384  -41.4945 C.3       8 UNK         0.0238 
     51 CB         22.9833  -35.4788  -43.0195 C.3       8 UNK        -0.1912 
     52 C          21.8179  -35.6558  -40.7762 C.2       8 UNK         0.5038 
     53 O          21.2021  -36.7183  -40.8775 O.2       8 UNK        -0.5046 
     54 N          21.3586  -34.6007  -40.0859 N.am      9 UNK        -0.4200 
     55 CA         20.0718  -34.5854  -39.3689 C.3       9 UNK         0.0839 
     56 C          20.0687  -33.8040  -38.0261 C.2       9 UNK         0.5513 
     57 N          21.0373  -32.9458  -37.7383 N.am      9 UNK        -0.7519 
     58 O          19.1764  -34.0083  -37.2065 O.2       9 UNK        -0.4960 
     59 C59        18.8819  -34.2062  -40.2908 C.3       10 UNK        -0.0876 
     60 S60        18.9923  -32.5307  -41.0160 S.3       10 UNK        -0.2414 
     61 C61        19.5402  -32.9132  -42.7084 C.3       10 UNK         0.0169 
     62 H62        13.1561  -23.3710  -43.5490 H         1 UNK         0.0903 
     63 H63        12.5764  -24.7624  -44.4672 H         1 UNK         0.0903 
     64 H64        12.7429  -24.8708  -42.7140 H         1 UNK         0.0903 
     65 H65        14.2170  -25.7774  -45.5420 H         1 UNK         0.3096 
     66 H66        16.0617  -26.7415  -46.1620 H         1 UNK         0.1121 
     67 H67        17.8172  -27.5279  -44.4713 H         1 UNK         0.0849 
     68 H68        16.8837  -26.7947  -43.2178 H         1 UNK         0.0849 
     69 H69        15.8594  -30.7106  -45.4389 H         1 UNK         0.0865 
     70 H70        16.5099  -29.3397  -46.2955 H         1 UNK         0.0865 
     71 H71        17.2187  -31.8333  -43.6094 H         1 UNK         0.1346 
     72 H72        21.4727  -31.3650  -43.8849 H         1 UNK         0.1412 
     73 H73        18.8759  -28.8503  -46.1942 H         1 UNK         0.1426 
     74 H74        22.4078  -29.4462  -45.0325 H         1 UNK         0.0716 
     75 H75        21.7786  -29.8119  -46.6202 H         1 UNK         0.0716 
     76 H76        22.7669  -27.1393  -44.1793 H         1 UNK         0.0695 
     77 H77        21.1041  -27.1743  -43.6381 H         1 UNK         0.0695 
     78 H78        22.2156  -24.9241  -45.4029 H         1 UNK         0.0983 
     79 H79        19.6481  -25.3138  -44.0714 H         1 UNK         0.3095 
     80 H80        18.4726  -22.5950  -43.7714 H         1 UNK         0.0454 
     81 H81        17.0269  -21.7774  -45.6491 H         1 UNK         0.0851 
     82 H82        18.1502  -22.4773  -46.8142 H         1 UNK         0.0851 
     83 H83        18.6669  -21.1668  -45.7655 H         1 UNK         0.0851 
     84 H84        17.0196  -24.2664  -43.8030 H         1 UNK         0.2976 
     85 H85        24.1062  -24.2792  -44.4829 H         1 UNK         0.3116 
     86 H86        24.0782  -22.8523  -41.9890 H         1 UNK         0.0646 
     87 H87        25.4784  -22.1400  -43.9135 H         1 UNK         0.0847 
     88 H88        26.4857  -22.4632  -42.5134 H         1 UNK         0.0847 
     89 H89        26.4120  -23.6347  -43.8210 H         1 UNK         0.0847 
     90 H90        25.0343  -26.1169  -42.9100 H         1 UNK         0.3040 
     91 H91        25.2217  -26.8901  -40.1056 H         1 UNK         0.1015 
     92 H92        27.4358  -27.5709  -42.1386 H         1 UNK         0.0786 
     93 H93        27.2863  -28.2544  -40.5241 H         1 UNK         0.0786 
     94 H94        27.6370  -26.5439  -40.7201 H         1 UNK         0.0786 
     95 H95        24.2670  -28.9012  -39.8734 H         1 UNK         0.3172 
     96 H96        23.4085  -30.4201  -42.2846 H         1 UNK         0.0595 
     97 H97        21.5344  -29.3176  -40.1187 H         1 UNK         0.0839 
     98 H98        21.0744  -30.4262  -41.3991 H         1 UNK         0.0839 
     99 H99        21.5825  -28.7978  -41.8036 H         1 UNK         0.0839 
    100 H100       25.4724  -31.2782  -40.9280 H         1 UNK         0.2998 
    101 H101       25.1137  -32.7099  -38.5492 H         1 UNK         0.0822 
    102 H102       27.3314  -32.1245  -39.4967 H         1 UNK         0.0787 
    103 H103       27.2393  -33.8545  -39.2185 H         1 UNK         0.0787 
    104 H104       27.0749  -33.2255  -40.8519 H         1 UNK         0.0787 
    105 H105       24.0066  -33.5989  -41.7024 H         1 UNK         0.3055 
    106 H106       23.7358  -36.4478  -41.2591 H         1 UNK         0.1106 
    107 H107       23.9395  -35.5112  -43.5421 H         1 UNK         0.0828 
    108 H108       22.3966  -36.3277  -43.3738 H         1 UNK         0.0828 
    109 H109       22.4630  -34.5723  -43.3287 H         1 UNK         0.0828 
    110 H110       21.9062  -33.7484  -40.0377 H         1 UNK         0.2931 
    111 H111       19.8844  -35.6110  -39.0441 H         1 UNK         0.0412 
    112 H112       21.0147  -32.4690  -36.8514 H         1 UNK         0.3472 
    113 H113       21.7108  -32.6561  -38.4435 H         1 UNK         0.3472 
    114 H114       18.7907  -34.9446  -41.0883 H         1 UNK         0.0970 
    115 H115       17.9431  -34.2721  -39.7377 H         1 UNK         0.0970 
    116 H116       20.5818  -33.2329  -42.6757 H         1 UNK         0.0612 
    117 H117       18.9670  -33.7545  -43.1003 H         1 UNK         0.0612 
@<TRIPOS>BOND
     1    1    2 1    
     2    1   62 1    
     3    1   63 1    
     4    1   64 1    
     5    2    3 2    
     6    2    4 am   BACKBONE|DICT|INTERRES
     7    4    5 1    
     8    4   65 1    
     9    5    6 1    
    10    5   25 1    
    11    5   66 1    
    12    6    7 1    
    13    6   67 1    
    14    6   68 1    
    15    7    8 1    
    16    8    9 1    
    17    8   69 1    
    18    8   70 1    
    19    9   10 ar   
    20    9   14 ar   
    21   10   11 ar   
    22   10   71 1    
    23   11   12 ar   
    24   11   61 1    
    25   12   13 ar   
    26   12   72 1    
    27   13   14 ar   
    28   13   15 1    
    29   14   73 1    
    30   15   16 1    
    31   15   74 1    
    32   15   75 1    
    33   16   17 1    
    34   17   18 1    
    35   17   76 1    
    36   17   77 1    
    37   18   19 1    
    38   18   27 1    
    39   18   78 1    
    40   19   20 am   BACKBONE|DICT|INTERRES
    41   19   79 1    
    42   20   21 2    
    43   20   22 1    
    44   22   23 1    
    45   22   24 1    
    46   22   80 1    
    47   23   81 1    
    48   23   82 1    
    49   23   83 1    
    50   24   25 am   BACKBONE|DICT|INTERRES
    51   24   84 1    
    52   25   26 2    
    53   27   28 2    
    54   27   29 am   BACKBONE|DICT|INTERRES
    55   29   30 1    
    56   29   85 1    
    57   30   31 1    
    58   30   32 1    
    59   30   86 1    
    60   31   87 1    
    61   31   88 1    
    62   31   89 1    
    63   32   33 2    
    64   32   34 am   BACKBONE|DICT|INTERRES
    65   34   35 1    
    66   34   90 1    
    67   35   36 1    
    68   35   37 1    
    69   35   91 1    
    70   36   92 1    
    71   36   93 1    
    72   36   94 1    
    73   37   38 2    
    74   37   39 am   BACKBONE|DICT|INTERRES
    75   39   40 1    
    76   39   95 1    
    77   40   41 1    
    78   40   42 1    
    79   40   96 1    
    80   41   97 1    
    81   41   98 1    
    82   41   99 1    
    83   42   43 2    
    84   42   44 am   BACKBONE|DICT|INTERRES
    85   44   45 1    
    86   44  100 1    
    87   45   46 1    
    88   45   47 1    
    89   45  101 1    
    90   46  102 1    
    91   46  103 1    
    92   46  104 1    
    93   47   48 2    
    94   47   49 am   BACKBONE|DICT|INTERRES
    95   49   50 1    
    96   49  105 1    
    97   50   51 1    
    98   50   52 1    
    99   50  106 1    
   100   51  107 1    
   101   51  108 1    
   102   51  109 1    
   103   52   53 2    
   104   52   54 am   BACKBONE|DICT|INTERRES
   105   54   55 1    
   106   54  110 1    
   107   55   56 1    
   108   55   59 1    
   109   55  111 1    
   110   56   57 am   BACKBONE|DICT|INTERRES
   111   56   58 2    
   112   57  112 1    
   113   57  113 1    
   114   59   60 1    
   115   59  114 1    
   116   59  115 1    
   117   60   61 1    
   118   61  116 1    
   119   61  117 1    
@<TRIPOS>SUBSTRUCTURE
     1 UNK         1 GROUP             0       ****    0 ROOT    
