@<TRIPOS>MOLECULE
3R8
117   119    1
SMALL
USER_CHARGES


@<TRIPOS>ATOM
      1 CA         16.2665  -23.9609  -38.9389 C.3       0 UNK        -0.2013 
      2 C          16.7619  -24.1216  -40.3686 C.2       0 UNK         0.4866 
      3 O          17.0925  -23.1276  -41.0166 O.2       0 UNK        -0.5176 
      4 N          16.8080  -25.3642  -40.8654 N.am      1 UNK        -0.4884 
      5 CA         17.3376  -25.7169  -42.1879 C.3       1 UNK         0.0853 
      6 C6         16.6922  -27.0268  -42.7189 C.3       10 UNK        -0.0849 
      7 S7         16.4528  -26.9806  -44.5268 S.3       10 UNK        -0.2776 
      8 C8         15.7265  -28.6208  -44.8379 C.3       10 UNK         0.0316 
      9 C9         16.7848  -29.7137  -44.8317 C.ar      10 UNK        -0.0863 
     10 C10        16.9452  -30.5435  -43.7179 C.ar      10 UNK        -0.1009 
     11 C11        17.9190  -31.5475  -43.7114 C.ar      10 UNK        -0.0712 
     12 C12        18.7469  -31.7033  -44.8305 C.ar      10 UNK        -0.0894 
     13 C13        18.5839  -30.8925  -45.9569 C.ar      10 UNK        -0.0745 
     14 C14        17.5992  -29.9010  -45.9518 C.ar      10 UNK        -0.0972 
     15 C15        19.4475  -31.1061  -47.1921 C.3       10 UNK         0.0209 
     16 S16        20.5640  -29.7056  -47.5096 S.3       10 UNK        -0.2568 
     17 C17        21.8419  -29.9521  -46.2351 C.3       10 UNK        -0.0983 
     18 CA         22.6509  -28.6499  -45.9700 C.3       3 UNK         0.0876 
     19 N          22.1673  -27.8854  -44.8235 N.am      3 UNK        -0.4424 
     20 C          21.1310  -27.0462  -44.8141 C.2       2 UNK         0.4918 
     21 O          20.3985  -26.8206  -45.7793 O.2       2 UNK        -0.4875 
     22 CA         20.9083  -26.2811  -43.5069 C.3       2 UNK         0.0481 
     23 CB         21.6785  -24.9472  -43.5164 C.3       2 UNK        -0.1831 
     24 N          19.4798  -26.0452  -43.3353 N.am      2 UNK        -0.4498 
     25 C          18.8815  -25.7947  -42.1677 C.2       1 UNK         0.5027 
     26 O          19.5032  -25.6503  -41.1105 O.2       1 UNK        -0.4969 
     27 C          24.1282  -28.9226  -45.6624 C.2       3 UNK         0.5005 
     28 O          24.4312  -29.8669  -44.9294 O.2       3 UNK        -0.5279 
     29 N          25.0096  -28.0359  -46.1511 N.am      4 UNK        -0.4463 
     30 CA         26.4534  -27.9297  -45.8815 C.3       4 UNK         0.0283 
     31 CB         27.2189  -29.2113  -46.2681 C.3       4 UNK        -0.1875 
     32 C          26.7635  -27.4930  -44.4380 C.2       4 UNK         0.4949 
     33 O          27.4553  -26.4935  -44.2427 O.2       4 UNK        -0.5039 
     34 N          26.2125  -28.2211  -43.4640 N.am      5 UNK        -0.4663 
     35 CA         26.1495  -27.8504  -42.0540 C.3       5 UNK         0.0242 
     36 CB         26.4019  -29.1084  -41.2066 C.3       5 UNK        -0.1982 
     37 C          24.7578  -27.2792  -41.7458 C.2       5 UNK         0.5017 
     38 O          23.7970  -27.5846  -42.4593 O.2       5 UNK        -0.5012 
     39 N          24.6661  -26.4923  -40.6664 N.am      6 UNK        -0.4439 
     40 CA         23.4010  -26.0261  -40.0936 C.3       6 UNK         0.0297 
     41 CB         23.6813  -24.9156  -39.0693 C.3       6 UNK        -0.2006 
     42 C          22.6441  -27.1915  -39.4368 C.2       6 UNK         0.4892 
     43 O          23.2811  -28.0844  -38.8706 O.2       6 UNK        -0.5089 
     44 N          21.3091  -27.1673  -39.5382 N.am      7 UNK        -0.4243 
     45 CA         20.3453  -28.2063  -39.1523 C.3       7 UNK         0.0196 
     46 CB         20.4247  -28.5622  -37.6540 C.3       7 UNK        -0.2007 
     47 C          20.4234  -29.4538  -40.0485 C.2       7 UNK         0.5020 
     48 O          19.4052  -29.8287  -40.6272 O.2       7 UNK        -0.5147 
     49 N          21.6259  -30.0369  -40.1641 N.am      8 UNK        -0.4734 
     50 CA         21.9980  -31.2186  -40.9526 C.3       8 UNK         0.0238 
     51 CB         21.8618  -30.9140  -42.4622 C.3       8 UNK        -0.1912 
     52 C          21.2629  -32.5038  -40.5102 C.2       8 UNK         0.5038 
     53 O          20.7150  -32.5506  -39.4058 O.2       8 UNK        -0.5046 
     54 N          21.2897  -33.5349  -41.3683 N.am      9 UNK        -0.4200 
     55 CA         20.6300  -34.8433  -41.1816 C.3       9 UNK         0.0839 
     56 C          21.1620  -35.6803  -39.9762 C.2       9 UNK         0.5513 
     57 N          22.3733  -35.4355  -39.4907 N.am      9 UNK        -0.7519 
     58 O          20.4884  -36.5871  -39.4930 O.2       9 UNK        -0.4960 
     59 C59        19.0747  -34.7459  -41.2211 C.3       10 UNK        -0.0876 
     60 S60        18.4561  -34.1653  -42.8380 S.3       10 UNK        -0.2414 
     61 C61        18.0922  -32.4174  -42.4698 C.3       10 UNK         0.0169 
     62 H62        15.3927  -23.3102  -38.9150 H         1 UNK         0.0903 
     63 H63        15.9902  -24.9159  -38.4923 H         1 UNK         0.0903 
     64 H64        17.0439  -23.5108  -38.3220 H         1 UNK         0.0903 
     65 H65        16.5588  -26.1422  -40.2714 H         1 UNK         0.3096 
     66 H66        17.0770  -24.9004  -42.8660 H         1 UNK         0.1121 
     67 H67        15.7037  -27.1686  -42.2784 H         1 UNK         0.0849 
     68 H68        17.2715  -27.9095  -42.4382 H         1 UNK         0.0849 
     69 H69        14.9463  -28.8270  -44.1034 H         1 UNK         0.0865 
     70 H70        15.2294  -28.6063  -45.8091 H         1 UNK         0.0865 
     71 H71        16.3162  -30.4013  -42.8496 H         1 UNK         0.1346 
     72 H72        19.5151  -32.4639  -44.8293 H         1 UNK         0.1412 
     73 H73        17.4759  -29.2657  -46.8186 H         1 UNK         0.1426 
     74 H74        18.7965  -31.2362  -48.0578 H         1 UNK         0.0716 
     75 H75        20.0329  -32.0234  -47.1107 H         1 UNK         0.0716 
     76 H76        22.4832  -30.7586  -46.5966 H         1 UNK         0.0695 
     77 H77        21.3857  -30.3204  -45.3154 H         1 UNK         0.0695 
     78 H78        22.6135  -28.0145  -46.8579 H         1 UNK         0.0983 
     79 H79        22.7471  -27.9471  -43.9866 H         1 UNK         0.3095 
     80 H80        21.2577  -26.9011  -42.6787 H         1 UNK         0.0454 
     81 H81        22.7512  -25.1185  -43.6148 H         1 UNK         0.0851 
     82 H82        21.5248  -24.3856  -42.5954 H         1 UNK         0.0851 
     83 H83        21.3701  -24.3126  -44.3480 H         1 UNK         0.0851 
     84 H84        18.9204  -26.1992  -44.1674 H         1 UNK         0.2976 
     85 H85        24.6370  -27.2755  -46.7042 H         1 UNK         0.3116 
     86 H86        26.8142  -27.1325  -46.5338 H         1 UNK         0.0646 
     87 H87        26.9479  -30.0615  -45.6418 H         1 UNK         0.0847 
     88 H88        27.0316  -29.4869  -47.3057 H         1 UNK         0.0847 
     89 H89        28.2944  -29.0651  -46.1608 H         1 UNK         0.0847 
     90 H90        25.5897  -28.9720  -43.7554 H         1 UNK         0.3040 
     91 H91        26.9069  -27.0984  -41.8213 H         1 UNK         0.1015 
     92 H92        26.3717  -28.8782  -40.1407 H         1 UNK         0.0786 
     93 H93        27.3813  -29.5379  -41.4180 H         1 UNK         0.0786 
     94 H94        25.6511  -29.8777  -41.3945 H         1 UNK         0.0786 
     95 H95        25.4947  -26.3312  -40.1123 H         1 UNK         0.3172 
     96 H96        22.7885  -25.6129  -40.8965 H         1 UNK         0.0595 
     97 H97        24.2890  -25.2758  -38.2379 H         1 UNK         0.0839 
     98 H98        22.7513  -24.5301  -38.6490 H         1 UNK         0.0839 
     99 H99        24.2013  -24.0739  -39.5272 H         1 UNK         0.0839 
    100 H100       20.8808  -26.4046  -40.0598 H         1 UNK         0.2998 
    101 H101       19.3626  -27.7630  -39.3222 H         1 UNK         0.0822 
    102 H102       19.6198  -29.2450  -37.3789 H         1 UNK         0.0787 
    103 H103       20.3251  -27.6739  -37.0304 H         1 UNK         0.0787 
    104 H104       21.3623  -29.0528  -37.3928 H         1 UNK         0.0787 
    105 H105       22.3775  -29.6077  -39.6301 H         1 UNK         0.3055 
    106 H106       23.0548  -31.3927  -40.7446 H         1 UNK         0.1106 
    107 H107       22.3832  -29.9925  -42.7206 H         1 UNK         0.0828 
    108 H108       22.2995  -31.6986  -43.0795 H         1 UNK         0.0828 
    109 H109       20.8207  -30.7966  -42.7634 H         1 UNK         0.0828 
    110 H110       21.7841  -33.4236  -42.2407 H         1 UNK         0.2931 
    111 H111       20.9273  -35.4318  -42.0505 H         1 UNK         0.0412 
    112 H112       22.9448  -34.7049  -39.8834 H         1 UNK         0.3472 
    113 H113       22.7165  -35.9863  -38.7192 H         1 UNK         0.3472 
    114 H114       18.6241  -35.7256  -41.0531 H         1 UNK         0.0970 
    115 H115       18.7017  -34.1067  -40.4192 H         1 UNK         0.0970 
    116 H116       18.9019  -31.9990  -41.8800 H         1 UNK         0.0612 
    117 H117       17.2000  -32.3768  -41.8433 H         1 UNK         0.0612 
@<TRIPOS>BOND
     1    1    2 1    
     2    1   62 1    
     3    1   63 1    
     4    1   64 1    
     5    2    3 2    
     6    2    4 am   BACKBONE|DICT|INTERRES
     7    4    5 1    
     8    4   65 1    
     9    5    6 1    
    10    5   25 1    
    11    5   66 1    
    12    6    7 1    
    13    6   67 1    
    14    6   68 1    
    15    7    8 1    
    16    8    9 1    
    17    8   69 1    
    18    8   70 1    
    19    9   10 ar   
    20    9   14 ar   
    21   10   11 ar   
    22   10   71 1    
    23   11   12 ar   
    24   11   61 1    
    25   12   13 ar   
    26   12   72 1    
    27   13   14 ar   
    28   13   15 1    
    29   14   73 1    
    30   15   16 1    
    31   15   74 1    
    32   15   75 1    
    33   16   17 1    
    34   17   18 1    
    35   17   76 1    
    36   17   77 1    
    37   18   19 1    
    38   18   27 1    
    39   18   78 1    
    40   19   20 am   BACKBONE|DICT|INTERRES
    41   19   79 1    
    42   20   21 2    
    43   20   22 1    
    44   22   23 1    
    45   22   24 1    
    46   22   80 1    
    47   23   81 1    
    48   23   82 1    
    49   23   83 1    
    50   24   25 am   BACKBONE|DICT|INTERRES
    51   24   84 1    
    52   25   26 2    
    53   27   28 2    
    54   27   29 am   BACKBONE|DICT|INTERRES
    55   29   30 1    
    56   29   85 1    
    57   30   31 1    
    58   30   32 1    
    59   30   86 1    
    60   31   87 1    
    61   31   88 1    
    62   31   89 1    
    63   32   33 2    
    64   32   34 am   BACKBONE|DICT|INTERRES
    65   34   35 1    
    66   34   90 1    
    67   35   36 1    
    68   35   37 1    
    69   35   91 1    
    70   36   92 1    
    71   36   93 1    
    72   36   94 1    
    73   37   38 2    
    74   37   39 am   BACKBONE|DICT|INTERRES
    75   39   40 1    
    76   39   95 1    
    77   40   41 1    
    78   40   42 1    
    79   40   96 1    
    80   41   97 1    
    81   41   98 1    
    82   41   99 1    
    83   42   43 2    
    84   42   44 am   BACKBONE|DICT|INTERRES
    85   44   45 1    
    86   44  100 1    
    87   45   46 1    
    88   45   47 1    
    89   45  101 1    
    90   46  102 1    
    91   46  103 1    
    92   46  104 1    
    93   47   48 2    
    94   47   49 am   BACKBONE|DICT|INTERRES
    95   49   50 1    
    96   49  105 1    
    97   50   51 1    
    98   50   52 1    
    99   50  106 1    
   100   51  107 1    
   101   51  108 1    
   102   51  109 1    
   103   52   53 2    
   104   52   54 am   BACKBONE|DICT|INTERRES
   105   54   55 1    
   106   54  110 1    
   107   55   56 1    
   108   55   59 1    
   109   55  111 1    
   110   56   57 am   BACKBONE|DICT|INTERRES
   111   56   58 2    
   112   57  112 1    
   113   57  113 1    
   114   59   60 1    
   115   59  114 1    
   116   59  115 1    
   117   60   61 1    
   118   61  116 1    
   119   61  117 1    
@<TRIPOS>SUBSTRUCTURE
     1 UNK         1 GROUP             0       ****    0 ROOT    
