@<TRIPOS>MOLECULE
3R8
117   119    1
SMALL
USER_CHARGES


@<TRIPOS>ATOM
      1 CA         20.9341  -22.5286  -42.1627 C.3       0 UNK        -0.2013 
      2 C          19.6908  -23.0682  -42.8540 C.2       0 UNK         0.4866 
      3 O          18.7700  -22.3032  -43.1397 O.2       0 UNK        -0.5176 
      4 N          19.6664  -24.3759  -43.1361 N.am      1 UNK        -0.4884 
      5 CA         18.5660  -25.0900  -43.7948 C.3       1 UNK         0.0853 
      6 C6         18.0655  -26.2630  -42.9059 C.3       10 UNK        -0.0849 
      7 S7         16.3606  -26.7929  -43.3154 S.3       10 UNK        -0.2776 
      8 C8         16.1936  -28.3898  -42.4300 C.3       10 UNK         0.0316 
      9 C9         17.2207  -29.4696  -42.7831 C.ar      10 UNK        -0.0863 
     10 C10        17.4382  -30.5149  -41.8788 C.ar      10 UNK        -0.1009 
     11 C11        18.4323  -31.4699  -42.1146 C.ar      10 UNK        -0.0712 
     12 C12        19.2170  -31.3753  -43.2671 C.ar      10 UNK        -0.0894 
     13 C13        19.0037  -30.3457  -44.1853 C.ar      10 UNK        -0.0745 
     14 C14        17.9779  -29.4279  -43.9597 C.ar      10 UNK        -0.0972 
     15 C15        19.9422  -30.1518  -45.3638 C.3       10 UNK         0.0209 
     16 S16        21.3341  -29.1151  -44.8277 S.3       10 UNK        -0.2568 
     17 C17        22.3052  -28.8860  -46.3607 C.3       10 UNK        -0.0983 
     18 CA         22.9557  -27.4763  -46.5043 C.3       3 UNK         0.0876 
     19 N          21.9905  -26.3747  -46.5048 N.am      3 UNK        -0.4424 
     20 C          21.1540  -26.0605  -47.4966 C.2       2 UNK         0.4918 
     21 O          21.0696  -26.6948  -48.5497 O.2       2 UNK        -0.4875 
     22 CA         20.2902  -24.8005  -47.2698 C.3       2 UNK         0.0481 
     23 CB         19.1321  -24.6776  -48.2833 C.3       2 UNK        -0.1831 
     24 N          19.7984  -24.6609  -45.8888 N.am      2 UNK        -0.4498 
     25 C          18.9768  -25.4988  -45.2326 C.2       1 UNK         0.5027 
     26 O          18.5506  -26.5394  -45.7305 O.2       1 UNK        -0.4969 
     27 C          24.0064  -27.1881  -45.4157 C.2       3 UNK         0.5005 
     28 O          25.2097  -27.2264  -45.6754 O.2       3 UNK        -0.5279 
     29 N          23.4956  -26.8584  -44.2265 N.am      4 UNK        -0.4463 
     30 CA         24.1483  -26.5192  -42.9714 C.3       4 UNK         0.0283 
     31 CB         24.9081  -27.7412  -42.4132 C.3       4 UNK        -0.1875 
     32 C          23.0135  -26.0764  -42.0322 C.2       4 UNK         0.4949 
     33 O          21.8518  -26.0237  -42.4564 O.2       4 UNK        -0.5039 
     34 N          23.3256  -25.8055  -40.7602 N.am      5 UNK        -0.4663 
     35 CA         22.3509  -25.4766  -39.7088 C.3       5 UNK         0.0242 
     36 CB         23.0816  -24.7452  -38.5672 C.3       5 UNK        -0.1982 
     37 C          21.5699  -26.7182  -39.2193 C.2       5 UNK         0.5017 
     38 O          21.5671  -27.0125  -38.0233 O.2       5 UNK        -0.5012 
     39 N          20.9602  -27.4438  -40.1701 N.am      6 UNK        -0.4439 
     40 CA         20.2341  -28.7137  -40.0248 C.3       6 UNK         0.0297 
     41 CB         18.9303  -28.5090  -39.2257 C.3       6 UNK        -0.2006 
     42 C          21.1009  -29.8662  -39.4699 C.2       6 UNK         0.4892 
     43 O          20.5731  -30.7890  -38.8483 O.2       6 UNK        -0.5089 
     44 N          22.4188  -29.7949  -39.7021 N.am      7 UNK        -0.4243 
     45 CA         23.4069  -30.7555  -39.2052 C.3       7 UNK         0.0196 
     46 CB         24.7386  -30.0203  -38.9811 C.3       7 UNK        -0.2007 
     47 C          23.6172  -31.9539  -40.1450 C.2       7 UNK         0.5020 
     48 O          24.1141  -32.9871  -39.6956 O.2       7 UNK        -0.5147 
     49 N          23.2549  -31.8085  -41.4288 N.am      8 UNK        -0.4734 
     50 CA         23.5332  -32.7843  -42.4925 C.3       8 UNK         0.0238 
     51 CB         23.2514  -32.1407  -43.8597 C.3       8 UNK        -0.1912 
     52 C          22.7996  -34.1329  -42.3532 C.2       8 UNK         0.5038 
     53 O          23.2034  -35.0988  -43.0022 O.2       8 UNK        -0.5046 
     54 N          21.7616  -34.1854  -41.5089 N.am      9 UNK        -0.4200 
     55 CA         21.0594  -35.4198  -41.1202 C.3       9 UNK         0.0839 
     56 C          21.8594  -36.3093  -40.1226 C.2       9 UNK         0.5513 
     57 N          22.9470  -35.8372  -39.5217 N.am      9 UNK        -0.7519 
     58 O          21.4854  -37.4566  -39.8934 O.2       9 UNK        -0.4960 
     59 C59        19.6296  -35.1403  -40.5816 C.3       10 UNK        -0.0876 
     60 S60        18.5883  -34.2261  -41.7697 S.3       10 UNK        -0.2414 
     61 C61        18.7270  -32.5474  -41.0836 C.3       10 UNK         0.0169 
     62 H62        21.7550  -23.2443  -42.1815 H         1 UNK         0.0903 
     63 H63        21.2739  -21.6183  -42.6561 H         1 UNK         0.0903 
     64 H64        20.7114  -22.2896  -41.1233 H         1 UNK         0.0903 
     65 H65        20.4700  -24.9547  -42.8929 H         1 UNK         0.3096 
     66 H66        17.7248  -24.4058  -43.9253 H         1 UNK         0.1121 
     67 H67        18.7643  -27.0988  -42.9491 H         1 UNK         0.0849 
     68 H68        18.0502  -25.9519  -41.8600 H         1 UNK         0.0849 
     69 H69        16.2397  -28.1841  -41.3594 H         1 UNK         0.0865 
     70 H70        15.1966  -28.7874  -42.6233 H         1 UNK         0.0865 
     71 H71        16.8560  -30.5638  -40.9686 H         1 UNK         0.1346 
     72 H72        20.0118  -32.0884  -43.4298 H         1 UNK         0.1412 
     73 H73        17.8232  -28.6382  -44.6781 H         1 UNK         0.1426 
     74 H74        19.4221  -29.6698  -46.1935 H         1 UNK         0.0716 
     75 H75        20.3107  -31.1119  -45.7279 H         1 UNK         0.0716 
     76 H76        21.6579  -29.0758  -47.2178 H         1 UNK         0.0695 
     77 H77        23.0736  -29.6603  -46.3956 H         1 UNK         0.0695 
     78 H78        23.4834  -27.4483  -47.4603 H         1 UNK         0.0983 
     79 H79        22.0239  -25.7634  -45.7025 H         1 UNK         0.3095 
     80 H80        20.9548  -23.9517  -47.4365 H         1 UNK         0.0454 
     81 H81        19.5099  -24.6373  -49.3057 H         1 UNK         0.0851 
     82 H82        18.5538  -23.7688  -48.1182 H         1 UNK         0.0851 
     83 H83        18.4494  -25.5257  -48.2247 H         1 UNK         0.0851 
     84 H84        20.0971  -23.8309  -45.3954 H         1 UNK         0.2976 
     85 H85        22.4871  -26.8969  -44.1173 H         1 UNK         0.3116 
     86 H86        24.8294  -25.6814  -43.1299 H         1 UNK         0.0646 
     87 H87        25.6865  -28.0736  -43.0999 H         1 UNK         0.0847 
     88 H88        24.2407  -28.5860  -42.2402 H         1 UNK         0.0847 
     89 H89        25.4031  -27.5100  -41.4698 H         1 UNK         0.0847 
     90 H90        24.2907  -25.8750  -40.4697 H         1 UNK         0.3040 
     91 H91        21.6110  -24.7856  -40.1185 H         1 UNK         0.1015 
     92 H92        22.3831  -24.4404  -37.7866 H         1 UNK         0.0786 
     93 H93        23.5745  -23.8417  -38.9265 H         1 UNK         0.0786 
     94 H94        23.8375  -25.3781  -38.1003 H         1 UNK         0.0786 
     95 H95        21.0567  -27.0964  -41.1213 H         1 UNK         0.3172 
     96 H96        19.9542  -29.0141  -41.0357 H         1 UNK         0.0595 
     97 H97        18.3323  -29.4206  -39.2091 H         1 UNK         0.0839 
     98 H98        18.3134  -27.7277  -39.6692 H         1 UNK         0.0839 
     99 H99        19.1297  -28.2347  -38.1896 H         1 UNK         0.0839 
    100 H100       22.7704  -28.9901  -40.1976 H         1 UNK         0.2998 
    101 H101       23.0720  -31.1489  -38.2426 H         1 UNK         0.0822 
    102 H102       24.6211  -29.1903  -38.2838 H         1 UNK         0.0787 
    103 H103       25.4879  -30.6919  -38.5591 H         1 UNK         0.0787 
    104 H104       25.1459  -29.6238  -39.9117 H         1 UNK         0.0787 
    105 H105       22.8303  -30.9377  -41.7111 H         1 UNK         0.3055 
    106 H106       24.6004  -33.0139  -42.4476 H         1 UNK         0.1106 
    107 H107       23.8419  -31.2358  -44.0053 H         1 UNK         0.0828 
    108 H108       23.5033  -32.8225  -44.6732 H         1 UNK         0.0828 
    109 H109       22.2020  -31.8768  -43.9734 H         1 UNK         0.0828 
    110 H110       21.5171  -33.3487  -41.0030 H         1 UNK         0.2931 
    111 H111       20.9439  -36.0212  -42.0242 H         1 UNK         0.0412 
    112 H112       23.2735  -34.8925  -39.6901 H         1 UNK         0.3472 
    113 H113       23.4507  -36.4318  -38.8827 H         1 UNK         0.3472 
    114 H114       19.1197  -36.0811  -40.3651 H         1 UNK         0.0970 
    115 H115       19.6716  -34.6015  -39.6330 H         1 UNK         0.0970 
    116 H116       19.7409  -32.3915  -40.7191 H         1 UNK         0.0612 
    117 H117       18.0684  -32.4595  -40.2182 H         1 UNK         0.0612 
@<TRIPOS>BOND
     1    1    2 1    
     2    1   62 1    
     3    1   63 1    
     4    1   64 1    
     5    2    3 2    
     6    2    4 am   BACKBONE|DICT|INTERRES
     7    4    5 1    
     8    4   65 1    
     9    5    6 1    
    10    5   25 1    
    11    5   66 1    
    12    6    7 1    
    13    6   67 1    
    14    6   68 1    
    15    7    8 1    
    16    8    9 1    
    17    8   69 1    
    18    8   70 1    
    19    9   10 ar   
    20    9   14 ar   
    21   10   11 ar   
    22   10   71 1    
    23   11   12 ar   
    24   11   61 1    
    25   12   13 ar   
    26   12   72 1    
    27   13   14 ar   
    28   13   15 1    
    29   14   73 1    
    30   15   16 1    
    31   15   74 1    
    32   15   75 1    
    33   16   17 1    
    34   17   18 1    
    35   17   76 1    
    36   17   77 1    
    37   18   19 1    
    38   18   27 1    
    39   18   78 1    
    40   19   20 am   BACKBONE|DICT|INTERRES
    41   19   79 1    
    42   20   21 2    
    43   20   22 1    
    44   22   23 1    
    45   22   24 1    
    46   22   80 1    
    47   23   81 1    
    48   23   82 1    
    49   23   83 1    
    50   24   25 am   BACKBONE|DICT|INTERRES
    51   24   84 1    
    52   25   26 2    
    53   27   28 2    
    54   27   29 am   BACKBONE|DICT|INTERRES
    55   29   30 1    
    56   29   85 1    
    57   30   31 1    
    58   30   32 1    
    59   30   86 1    
    60   31   87 1    
    61   31   88 1    
    62   31   89 1    
    63   32   33 2    
    64   32   34 am   BACKBONE|DICT|INTERRES
    65   34   35 1    
    66   34   90 1    
    67   35   36 1    
    68   35   37 1    
    69   35   91 1    
    70   36   92 1    
    71   36   93 1    
    72   36   94 1    
    73   37   38 2    
    74   37   39 am   BACKBONE|DICT|INTERRES
    75   39   40 1    
    76   39   95 1    
    77   40   41 1    
    78   40   42 1    
    79   40   96 1    
    80   41   97 1    
    81   41   98 1    
    82   41   99 1    
    83   42   43 2    
    84   42   44 am   BACKBONE|DICT|INTERRES
    85   44   45 1    
    86   44  100 1    
    87   45   46 1    
    88   45   47 1    
    89   45  101 1    
    90   46  102 1    
    91   46  103 1    
    92   46  104 1    
    93   47   48 2    
    94   47   49 am   BACKBONE|DICT|INTERRES
    95   49   50 1    
    96   49  105 1    
    97   50   51 1    
    98   50   52 1    
    99   50  106 1    
   100   51  107 1    
   101   51  108 1    
   102   51  109 1    
   103   52   53 2    
   104   52   54 am   BACKBONE|DICT|INTERRES
   105   54   55 1    
   106   54  110 1    
   107   55   56 1    
   108   55   59 1    
   109   55  111 1    
   110   56   57 am   BACKBONE|DICT|INTERRES
   111   56   58 2    
   112   57  112 1    
   113   57  113 1    
   114   59   60 1    
   115   59  114 1    
   116   59  115 1    
   117   60   61 1    
   118   61  116 1    
   119   61  117 1    
@<TRIPOS>SUBSTRUCTURE
     1 UNK         1 GROUP             0       ****    0 ROOT    
