@<TRIPOS>MOLECULE
3R8
117   119    1
SMALL
USER_CHARGES


@<TRIPOS>ATOM
      1 CA         14.6231  -22.9610  -42.8911 C.3       0 UNK        -0.2013 
      2 C          15.7148  -23.6275  -43.7148 C.2       0 UNK         0.4866 
      3 O          16.2228  -23.0251  -44.6613 O.2       0 UNK        -0.5176 
      4 N          16.0752  -24.8694  -43.3692 N.am      1 UNK        -0.4884 
      5 CA         17.1305  -25.6463  -44.0225 C.3       1 UNK         0.0853 
      6 C6         17.0370  -27.1547  -43.6824 C.3       10 UNK        -0.0849 
      7 S7         15.5104  -27.9552  -44.2751 S.3       10 UNK        -0.2776 
      8 C8         16.0749  -28.8136  -45.7873 C.3       10 UNK         0.0316 
      9 C9         17.2448  -29.7748  -45.5737 C.ar      10 UNK        -0.0863 
     10 C10        17.2633  -30.6771  -44.5039 C.ar      10 UNK        -0.1009 
     11 C11        18.3368  -31.5583  -44.3279 C.ar      10 UNK        -0.0712 
     12 C12        19.3954  -31.5392  -45.2438 C.ar      10 UNK        -0.0894 
     13 C13        19.3888  -30.6471  -46.3202 C.ar      10 UNK        -0.0745 
     14 C14        18.3089  -29.7735  -46.4803 C.ar      10 UNK        -0.0972 
     15 C15        20.5266  -30.6525  -47.3347 C.3       10 UNK         0.0209 
     16 S16        22.0264  -29.8084  -46.7325 S.3       10 UNK        -0.2568 
     17 C17        21.4732  -28.0680  -46.5944 C.3       10 UNK        -0.0983 
     18 CA         22.0149  -27.2540  -45.3844 C.3       3 UNK         0.0876 
     19 N          21.2534  -26.0117  -45.2264 N.am      3 UNK        -0.4424 
     20 C          21.5590  -24.9944  -44.4080 C.2       2 UNK         0.4918 
     21 O          22.5681  -24.9537  -43.7049 O.2       2 UNK        -0.4875 
     22 CA         20.5325  -23.8471  -44.3390 C.3       2 UNK         0.0481 
     23 CB         20.8458  -22.7779  -45.3970 C.3       2 UNK        -0.1831 
     24 N          19.1498  -24.3161  -44.5041 N.am      2 UNK        -0.4498 
     25 C          18.5165  -25.1022  -43.6216 C.2       1 UNK         0.5027 
     26 O          19.0023  -25.4317  -42.5380 O.2       1 UNK        -0.4969 
     27 C          22.0811  -28.0588  -44.0670 C.2       3 UNK         0.5005 
     28 O          23.1455  -28.5837  -43.7384 O.2       3 UNK        -0.5279 
     29 N          20.9726  -28.1072  -43.3115 N.am      4 UNK        -0.4463 
     30 CA         20.8414  -28.8907  -42.0778 C.3       4 UNK         0.0283 
     31 CB         19.3959  -28.8374  -41.5649 C.3       4 UNK        -0.1875 
     32 C          21.8211  -28.5004  -40.9612 C.2       4 UNK         0.4949 
     33 O          22.1795  -29.3596  -40.1566 O.2       4 UNK        -0.5039 
     34 N          22.2661  -27.2367  -40.9520 N.am      5 UNK        -0.4663 
     35 CA         23.2963  -26.7309  -40.0429 C.3       5 UNK         0.0242 
     36 CB         23.3007  -25.1948  -40.0925 C.3       5 UNK        -0.1982 
     37 C          24.7006  -27.2852  -40.3484 C.2       5 UNK         0.5017 
     38 O          25.5152  -27.3810  -39.4301 O.2       5 UNK        -0.5012 
     39 N          24.9587  -27.6379  -41.6156 N.am      6 UNK        -0.4439 
     40 CA         26.2098  -28.2431  -42.0739 C.3       6 UNK         0.0297 
     41 CB         26.5467  -27.7228  -43.4813 C.3       6 UNK        -0.2006 
     42 C          26.1176  -29.7761  -42.0701 C.2       6 UNK         0.4892 
     43 O          27.0686  -30.4363  -41.6506 O.2       6 UNK        -0.5089 
     44 N          24.9788  -30.3128  -42.5316 N.am      7 UNK        -0.4243 
     45 CA         24.6948  -31.7480  -42.6050 C.3       7 UNK         0.0196 
     46 CB         23.4801  -31.9737  -43.5200 C.3       7 UNK        -0.2007 
     47 C          24.4691  -32.4067  -41.2324 C.2       7 UNK         0.5020 
     48 O          24.6760  -33.6148  -41.1161 O.2       7 UNK        -0.5147 
     49 N          24.0567  -31.6126  -40.2315 N.am      8 UNK        -0.4734 
     50 CA         23.7437  -32.0019  -38.8508 C.3       8 UNK         0.0238 
     51 CB         25.0082  -32.4927  -38.1131 C.3       8 UNK        -0.1912 
     52 C          22.5710  -32.9978  -38.7855 C.2       8 UNK         0.5038 
     53 O          22.6943  -34.0629  -38.1763 O.2       8 UNK        -0.5046 
     54 N          21.4649  -32.6335  -39.4475 N.am      9 UNK        -0.4200 
     55 CA         20.2243  -33.4200  -39.5363 C.3       9 UNK         0.0839 
     56 C          19.5757  -33.6902  -38.1504 C.2       9 UNK         0.5513 
     57 N          19.0037  -34.8699  -37.9526 N.am      9 UNK        -0.7519 
     58 O          19.5444  -32.8251  -37.2773 O.2       9 UNK        -0.4960 
     59 C59        19.1917  -32.7579  -40.4846 C.3       10 UNK        -0.0876 
     60 S60        19.8440  -32.4713  -42.1635 S.3       10 UNK        -0.2414 
     61 C61        18.3250  -32.5487  -43.1677 C.3       10 UNK         0.0169 
     62 H62        14.2582  -23.6104  -42.0955 H         1 UNK         0.0903 
     63 H63        15.0026  -22.0467  -42.4356 H         1 UNK         0.0903 
     64 H64        13.7792  -22.6994  -43.5288 H         1 UNK         0.0903 
     65 H65        15.6284  -25.3182  -42.5821 H         1 UNK         0.3096 
     66 H66        17.0185  -25.5416  -45.1043 H         1 UNK         0.1121 
     67 H67        17.8990  -27.6883  -44.0837 H         1 UNK         0.0849 
     68 H68        17.0738  -27.3006  -42.6015 H         1 UNK         0.0849 
     69 H69        15.2370  -29.3752  -46.2022 H         1 UNK         0.0865 
     70 H70        16.3313  -28.0569  -46.5304 H         1 UNK         0.0865 
     71 H71        16.4362  -30.6926  -43.8074 H         1 UNK         0.1346 
     72 H72        20.2252  -32.2217  -45.1197 H         1 UNK         0.1412 
     73 H73        18.2952  -29.0936  -47.3214 H         1 UNK         0.1426 
     74 H74        20.2103  -30.1910  -48.2715 H         1 UNK         0.0716 
     75 H75        20.7831  -31.6843  -47.5792 H         1 UNK         0.0716 
     76 H76        21.7438  -27.5604  -47.5215 H         1 UNK         0.0695 
     77 H77        20.3851  -28.0575  -46.5689 H         1 UNK         0.0695 
     78 H78        23.0447  -26.9720  -45.6155 H         1 UNK         0.0983 
     79 H79        20.4142  -25.9307  -45.7800 H         1 UNK         0.3095 
     80 H80        20.6179  -23.3843  -43.3535 H         1 UNK         0.0454 
     81 H81        21.8617  -22.3983  -45.2777 H         1 UNK         0.0851 
     82 H82        20.7623  -23.1709  -46.4110 H         1 UNK         0.0851 
     83 H83        20.1721  -21.9252  -45.3106 H         1 UNK         0.0851 
     84 H84        18.6611  -24.0256  -45.3403 H         1 UNK         0.2976 
     85 H85        20.1558  -27.6034  -43.6193 H         1 UNK         0.3116 
     86 H86        21.0668  -29.9227  -42.3416 H         1 UNK         0.0646 
     87 H87        19.2846  -29.4288  -40.6555 H         1 UNK         0.0847 
     88 H88        18.7005  -29.2475  -42.2964 H         1 UNK         0.0847 
     89 H89        19.0893  -27.8194  -41.3252 H         1 UNK         0.0847 
     90 H90        21.9200  -26.5988  -41.6559 H         1 UNK         0.3040 
     91 H91        23.0365  -27.0417  -39.0283 H         1 UNK         0.1015 
     92 H92        22.3286  -24.7855  -39.8164 H         1 UNK         0.0786 
     93 H93        23.5512  -24.8236  -41.0871 H         1 UNK         0.0786 
     94 H94        24.0340  -24.7841  -39.3969 H         1 UNK         0.0786 
     95 H95        24.2084  -27.5848  -42.2961 H         1 UNK         0.3172 
     96 H96        27.0257  -27.9526  -41.4084 H         1 UNK         0.0595 
     97 H97        27.4865  -28.1467  -43.8378 H         1 UNK         0.0839 
     98 H98        26.6585  -26.6385  -43.4855 H         1 UNK         0.0839 
     99 H99        25.7764  -27.9819  -44.2087 H         1 UNK         0.0839 
    100 H100       24.2677  -29.6900  -42.9141 H         1 UNK         0.2998 
    101 H101       25.5582  -32.2373  -43.0608 H         1 UNK         0.0822 
    102 H102       22.5889  -31.4815  -43.1331 H         1 UNK         0.0787 
    103 H103       23.6615  -31.5886  -44.5237 H         1 UNK         0.0787 
    104 H104       23.2503  -33.0358  -43.6149 H         1 UNK         0.0787 
    105 H105       23.8450  -30.6469  -40.4559 H         1 UNK         0.3055 
    106 H106       23.4017  -31.0975  -38.3443 H         1 UNK         0.1106 
    107 H107       25.3905  -33.4237  -38.5324 H         1 UNK         0.0828 
    108 H108       25.8061  -31.7516  -38.1596 H         1 UNK         0.0828 
    109 H109       24.7967  -32.6758  -37.0589 H         1 UNK         0.0828 
    110 H110       21.4602  -31.7389  -39.9173 H         1 UNK         0.2931 
    111 H111       20.5032  -34.3835  -39.9681 H         1 UNK         0.0412 
    112 H112       18.5621  -35.0587  -37.0659 H         1 UNK         0.3472 
    113 H113       19.0163  -35.5821  -38.6666 H         1 UNK         0.3472 
    114 H114       18.8519  -31.8031  -40.0793 H         1 UNK         0.0970 
    115 H115       18.3047  -33.3901  -40.5603 H         1 UNK         0.0970 
    116 H116       18.2080  -33.5603  -43.5580 H         1 UNK         0.0612 
    117 H117       17.4609  -32.3605  -42.5289 H         1 UNK         0.0612 
@<TRIPOS>BOND
     1    1    2 1    
     2    1   62 1    
     3    1   63 1    
     4    1   64 1    
     5    2    3 2    
     6    2    4 am   BACKBONE|DICT|INTERRES
     7    4    5 1    
     8    4   65 1    
     9    5    6 1    
    10    5   25 1    
    11    5   66 1    
    12    6    7 1    
    13    6   67 1    
    14    6   68 1    
    15    7    8 1    
    16    8    9 1    
    17    8   69 1    
    18    8   70 1    
    19    9   10 ar   
    20    9   14 ar   
    21   10   11 ar   
    22   10   71 1    
    23   11   12 ar   
    24   11   61 1    
    25   12   13 ar   
    26   12   72 1    
    27   13   14 ar   
    28   13   15 1    
    29   14   73 1    
    30   15   16 1    
    31   15   74 1    
    32   15   75 1    
    33   16   17 1    
    34   17   18 1    
    35   17   76 1    
    36   17   77 1    
    37   18   19 1    
    38   18   27 1    
    39   18   78 1    
    40   19   20 am   BACKBONE|DICT|INTERRES
    41   19   79 1    
    42   20   21 2    
    43   20   22 1    
    44   22   23 1    
    45   22   24 1    
    46   22   80 1    
    47   23   81 1    
    48   23   82 1    
    49   23   83 1    
    50   24   25 am   BACKBONE|DICT|INTERRES
    51   24   84 1    
    52   25   26 2    
    53   27   28 2    
    54   27   29 am   BACKBONE|DICT|INTERRES
    55   29   30 1    
    56   29   85 1    
    57   30   31 1    
    58   30   32 1    
    59   30   86 1    
    60   31   87 1    
    61   31   88 1    
    62   31   89 1    
    63   32   33 2    
    64   32   34 am   BACKBONE|DICT|INTERRES
    65   34   35 1    
    66   34   90 1    
    67   35   36 1    
    68   35   37 1    
    69   35   91 1    
    70   36   92 1    
    71   36   93 1    
    72   36   94 1    
    73   37   38 2    
    74   37   39 am   BACKBONE|DICT|INTERRES
    75   39   40 1    
    76   39   95 1    
    77   40   41 1    
    78   40   42 1    
    79   40   96 1    
    80   41   97 1    
    81   41   98 1    
    82   41   99 1    
    83   42   43 2    
    84   42   44 am   BACKBONE|DICT|INTERRES
    85   44   45 1    
    86   44  100 1    
    87   45   46 1    
    88   45   47 1    
    89   45  101 1    
    90   46  102 1    
    91   46  103 1    
    92   46  104 1    
    93   47   48 2    
    94   47   49 am   BACKBONE|DICT|INTERRES
    95   49   50 1    
    96   49  105 1    
    97   50   51 1    
    98   50   52 1    
    99   50  106 1    
   100   51  107 1    
   101   51  108 1    
   102   51  109 1    
   103   52   53 2    
   104   52   54 am   BACKBONE|DICT|INTERRES
   105   54   55 1    
   106   54  110 1    
   107   55   56 1    
   108   55   59 1    
   109   55  111 1    
   110   56   57 am   BACKBONE|DICT|INTERRES
   111   56   58 2    
   112   57  112 1    
   113   57  113 1    
   114   59   60 1    
   115   59  114 1    
   116   59  115 1    
   117   60   61 1    
   118   61  116 1    
   119   61  117 1    
@<TRIPOS>SUBSTRUCTURE
     1 UNK         1 GROUP             0       ****    0 ROOT    
