@<TRIPOS>MOLECULE
3R8
117   119    1
SMALL
USER_CHARGES


@<TRIPOS>ATOM
      1 CA         17.2503  -27.9272  -40.0390 C.3       0 UNK        -0.2013 
      2 C          17.5308  -26.7085  -40.9049 C.2       0 UNK         0.4866 
      3 O          17.9513  -25.6741  -40.3877 O.2       0 UNK        -0.5176 
      4 N          17.2902  -26.8170  -42.2181 N.am      1 UNK        -0.4884 
      5 CA         17.3664  -25.7069  -43.1818 C.3       1 UNK         0.0853 
      6 C6         16.4768  -25.9388  -44.4349 C.3       10 UNK        -0.0849 
      7 S7         14.8134  -26.5920  -44.0317 S.3       10 UNK        -0.2776 
      8 C8         14.6899  -28.1111  -45.0420 C.3       10 UNK         0.0316 
      9 C9         15.9392  -28.9845  -44.9920 C.ar      10 UNK        -0.0863 
     10 C10        16.3551  -29.5755  -43.7945 C.ar      10 UNK        -0.1009 
     11 C11        17.5245  -30.3429  -43.7521 C.ar      10 UNK        -0.0712 
     12 C12        18.2540  -30.5519  -44.9261 C.ar      10 UNK        -0.0894 
     13 C13        17.8449  -29.9728  -46.1286 C.ar      10 UNK        -0.0745 
     14 C14        16.6883  -29.1898  -46.1551 C.ar      10 UNK        -0.0972 
     15 C15        18.6471  -30.1879  -47.4021 C.3       10 UNK         0.0209 
     16 S16        19.9063  -28.8933  -47.6191 S.3       10 UNK        -0.2568 
     17 C17        21.3648  -29.6546  -46.8346 C.3       10 UNK        -0.0983 
     18 CA         22.4117  -28.5981  -46.3777 C.3       3 UNK         0.0876 
     19 N          22.0513  -27.9426  -45.1192 N.am      3 UNK        -0.4424 
     20 C          21.4217  -26.7691  -45.0077 C.2       2 UNK         0.4918 
     21 O          21.0505  -26.0861  -45.9636 O.2       2 UNK        -0.4875 
     22 CA         21.1900  -26.2735  -43.5715 C.3       2 UNK         0.0481 
     23 CB         21.8983  -24.9297  -43.3001 C.3       2 UNK        -0.1831 
     24 N          19.7651  -26.2474  -43.2337 N.am      2 UNK        -0.4498 
     25 C          18.8145  -25.3752  -43.6058 C.2       1 UNK         0.5027 
     26 O          19.0206  -24.3475  -44.2526 O.2       1 UNK        -0.4969 
     27 C          23.8353  -29.1536  -46.1944 C.2       3 UNK         0.5005 
     28 O          24.7780  -28.3616  -46.1399 O.2       3 UNK        -0.5279 
     29 N          23.9813  -30.4850  -46.0877 N.am      4 UNK        -0.4463 
     30 CA         25.2601  -31.1834  -45.8868 C.3       4 UNK         0.0283 
     31 CB         25.0400  -32.6979  -46.0315 C.3       4 UNK        -0.1875 
     32 C          25.9320  -30.8662  -44.5374 C.2       4 UNK         0.4949 
     33 O          27.1575  -30.9257  -44.4370 O.2       4 UNK        -0.5039 
     34 N          25.1149  -30.5105  -43.5432 N.am      5 UNK        -0.4663 
     35 CA         25.5090  -29.9100  -42.2768 C.3       5 UNK         0.0242 
     36 CB         25.4107  -30.9608  -41.1586 C.3       5 UNK        -0.1982 
     37 C          24.5531  -28.7406  -42.0160 C.2       5 UNK         0.5017 
     38 O          23.4365  -28.7391  -42.5465 O.2       5 UNK        -0.5012 
     39 N          24.9959  -27.7807  -41.1976 N.am      6 UNK        -0.4439 
     40 CA         24.1744  -26.6725  -40.7171 C.3       6 UNK         0.0297 
     41 CB         25.0650  -25.4522  -40.4329 C.3       6 UNK        -0.2006 
     42 C          23.4320  -27.1206  -39.4540 C.2       6 UNK         0.4892 
     43 O          24.0875  -27.5316  -38.4943 O.2       6 UNK        -0.5089 
     44 N          22.0928  -27.0648  -39.4900 N.am      7 UNK        -0.4243 
     45 CA         21.1220  -27.4385  -38.4452 C.3       7 UNK         0.0196 
     46 CB         21.2936  -26.5669  -37.1863 C.3       7 UNK        -0.2007 
     47 C          21.0915  -28.9356  -38.0732 C.2       7 UNK         0.5020 
     48 O          20.0104  -29.4790  -37.8547 O.2       7 UNK        -0.5147 
     49 N          22.2602  -29.5829  -38.0256 N.am      8 UNK        -0.4734 
     50 CA         22.4662  -30.9986  -37.7046 C.3       8 UNK         0.0238 
     51 CB         23.8784  -31.1586  -37.1125 C.3       8 UNK        -0.1912 
     52 C          22.2502  -31.9485  -38.9013 C.2       8 UNK         0.5038 
     53 O          22.6234  -33.1194  -38.8105 O.2       8 UNK        -0.5046 
     54 N          21.6827  -31.4381  -40.0011 N.am      9 UNK        -0.4200 
     55 CA         21.3088  -32.1854  -41.2089 C.3       9 UNK         0.0839 
     56 C          20.2948  -33.3378  -40.9522 C.2       9 UNK         0.5513 
     57 N          20.3018  -34.3609  -41.7963 N.am      9 UNK        -0.7519 
     58 O          19.4828  -33.2991  -40.0300 O.2       9 UNK        -0.4960 
     59 C59        20.8249  -31.2296  -42.3338 C.3       10 UNK        -0.0876 
     60 S60        19.4904  -30.0868  -41.8211 S.3       10 UNK        -0.2414 
     61 C61        18.0044  -30.9427  -42.4400 C.3       10 UNK         0.0169 
     62 H62        18.1815  -28.3660  -39.6842 H         1 UNK         0.0903 
     63 H63        16.6577  -27.6421  -39.1703 H         1 UNK         0.0903 
     64 H64        16.6989  -28.6931  -40.5828 H         1 UNK         0.0903 
     65 H65        16.9518  -27.6889  -42.6011 H         1 UNK         0.3096 
     66 H66        16.9857  -24.8144  -42.6793 H         1 UNK         0.1121 
     67 H67        16.9782  -26.5966  -45.1450 H         1 UNK         0.0849 
     68 H68        16.3410  -24.9962  -44.9685 H         1 UNK         0.0849 
     69 H69        13.8336  -28.6937  -44.6996 H         1 UNK         0.0865 
     70 H70        14.4648  -27.8220  -46.0698 H         1 UNK         0.0865 
     71 H71        15.7718  -29.4251  -42.8962 H         1 UNK         0.1346 
     72 H72        19.1480  -31.1563  -44.9035 H         1 UNK         0.1412 
     73 H73        16.3773  -28.7333  -47.0852 H         1 UNK         0.1426 
     74 H74        17.9788  -30.1715  -48.2643 H         1 UNK         0.0716 
     75 H75        19.1146  -31.1738  -47.4028 H         1 UNK         0.0716 
     76 H76        21.0524  -30.2752  -45.9937 H         1 UNK         0.0695 
     77 H77        21.7844  -30.3271  -47.5852 H         1 UNK         0.0695 
     78 H78        22.5027  -27.8457  -47.1648 H         1 UNK         0.0983 
     79 H79        22.4069  -28.3773  -44.2730 H         1 UNK         0.3095 
     80 H80        21.6158  -27.0036  -42.8854 H         1 UNK         0.0454 
     81 H81        22.9765  -25.0301  -43.4288 H         1 UNK         0.0851 
     82 H82        21.7198  -24.5807  -42.2833 H         1 UNK         0.0851 
     83 H83        21.5733  -24.1471  -43.9858 H         1 UNK         0.0851 
     84 H84        19.4340  -27.0566  -42.7264 H         1 UNK         0.2976 
     85 H85        23.1583  -31.0666  -46.1520 H         1 UNK         0.3116 
     86 H86        25.9432  -30.8600  -46.6752 H         1 UNK         0.0646 
     87 H87        24.3487  -33.0809  -45.2796 H         1 UNK         0.0847 
     88 H88        24.6439  -32.9513  -47.0150 H         1 UNK         0.0847 
     89 H89        25.9793  -33.2405  -45.9146 H         1 UNK         0.0847 
     90 H90        24.1274  -30.4297  -43.7427 H         1 UNK         0.3040 
     91 H91        26.5292  -29.5240  -42.3395 H         1 UNK         0.1015 
     92 H92        25.6821  -30.5347  -40.1920 H         1 UNK         0.0786 
     93 H93        26.0836  -31.7980  -41.3446 H         1 UNK         0.0786 
     94 H94        24.4004  -31.3600  -41.0692 H         1 UNK         0.0786 
     95 H95        25.9030  -27.8840  -40.7649 H         1 UNK         0.3172 
     96 H96        23.4528  -26.3911  -41.4830 H         1 UNK         0.0595 
     97 H97        25.8140  -25.6632  -39.6683 H         1 UNK         0.0839 
     98 H98        24.4687  -24.6096  -40.0801 H         1 UNK         0.0839 
     99 H99        25.5869  -25.1249  -41.3322 H         1 UNK         0.0839 
    100 H100       21.6715  -26.7426  -40.3498 H         1 UNK         0.2998 
    101 H101       20.1425  -27.2058  -38.8652 H         1 UNK         0.0822 
    102 H102       20.5096  -26.7784  -36.4578 H         1 UNK         0.0787 
    103 H103       21.2326  -25.5057  -37.4279 H         1 UNK         0.0787 
    104 H104       22.2495  -26.7446  -36.6924 H         1 UNK         0.0787 
    105 H105       23.0946  -29.0238  -38.1947 H         1 UNK         0.3055 
    106 H106       21.7419  -31.2904  -36.9408 H         1 UNK         0.1106 
    107 H107       24.6504  -30.9086  -37.8411 H         1 UNK         0.0828 
    108 H108       24.0187  -30.5166  -36.2427 H         1 UNK         0.0828 
    109 H109       24.0573  -32.1836  -36.7849 H         1 UNK         0.0828 
    110 H110       21.3672  -30.4807  -39.9680 H         1 UNK         0.2931 
    111 H111       22.2287  -32.6562  -41.5615 H         1 UNK         0.0412 
    112 H112       19.6450  -35.1131  -41.6570 H         1 UNK         0.3472 
    113 H113       20.9605  -34.4088  -42.5579 H         1 UNK         0.3472 
    114 H114       21.6628  -30.6170  -42.6638 H         1 UNK         0.0970 
    115 H115       20.5246  -31.7942  -43.2166 H         1 UNK         0.0970 
    116 H116       17.2249  -30.8720  -41.6804 H         1 UNK         0.0612 
    117 H117       18.1977  -32.0077  -42.5712 H         1 UNK         0.0612 
@<TRIPOS>BOND
     1    1    2 1    
     2    1   62 1    
     3    1   63 1    
     4    1   64 1    
     5    2    3 2    
     6    2    4 am   BACKBONE|DICT|INTERRES
     7    4    5 1    
     8    4   65 1    
     9    5    6 1    
    10    5   25 1    
    11    5   66 1    
    12    6    7 1    
    13    6   67 1    
    14    6   68 1    
    15    7    8 1    
    16    8    9 1    
    17    8   69 1    
    18    8   70 1    
    19    9   10 ar   
    20    9   14 ar   
    21   10   11 ar   
    22   10   71 1    
    23   11   12 ar   
    24   11   61 1    
    25   12   13 ar   
    26   12   72 1    
    27   13   14 ar   
    28   13   15 1    
    29   14   73 1    
    30   15   16 1    
    31   15   74 1    
    32   15   75 1    
    33   16   17 1    
    34   17   18 1    
    35   17   76 1    
    36   17   77 1    
    37   18   19 1    
    38   18   27 1    
    39   18   78 1    
    40   19   20 am   BACKBONE|DICT|INTERRES
    41   19   79 1    
    42   20   21 2    
    43   20   22 1    
    44   22   23 1    
    45   22   24 1    
    46   22   80 1    
    47   23   81 1    
    48   23   82 1    
    49   23   83 1    
    50   24   25 am   BACKBONE|DICT|INTERRES
    51   24   84 1    
    52   25   26 2    
    53   27   28 2    
    54   27   29 am   BACKBONE|DICT|INTERRES
    55   29   30 1    
    56   29   85 1    
    57   30   31 1    
    58   30   32 1    
    59   30   86 1    
    60   31   87 1    
    61   31   88 1    
    62   31   89 1    
    63   32   33 2    
    64   32   34 am   BACKBONE|DICT|INTERRES
    65   34   35 1    
    66   34   90 1    
    67   35   36 1    
    68   35   37 1    
    69   35   91 1    
    70   36   92 1    
    71   36   93 1    
    72   36   94 1    
    73   37   38 2    
    74   37   39 am   BACKBONE|DICT|INTERRES
    75   39   40 1    
    76   39   95 1    
    77   40   41 1    
    78   40   42 1    
    79   40   96 1    
    80   41   97 1    
    81   41   98 1    
    82   41   99 1    
    83   42   43 2    
    84   42   44 am   BACKBONE|DICT|INTERRES
    85   44   45 1    
    86   44  100 1    
    87   45   46 1    
    88   45   47 1    
    89   45  101 1    
    90   46  102 1    
    91   46  103 1    
    92   46  104 1    
    93   47   48 2    
    94   47   49 am   BACKBONE|DICT|INTERRES
    95   49   50 1    
    96   49  105 1    
    97   50   51 1    
    98   50   52 1    
    99   50  106 1    
   100   51  107 1    
   101   51  108 1    
   102   51  109 1    
   103   52   53 2    
   104   52   54 am   BACKBONE|DICT|INTERRES
   105   54   55 1    
   106   54  110 1    
   107   55   56 1    
   108   55   59 1    
   109   55  111 1    
   110   56   57 am   BACKBONE|DICT|INTERRES
   111   56   58 2    
   112   57  112 1    
   113   57  113 1    
   114   59   60 1    
   115   59  114 1    
   116   59  115 1    
   117   60   61 1    
   118   61  116 1    
   119   61  117 1    
@<TRIPOS>SUBSTRUCTURE
     1 UNK         1 GROUP             0       ****    0 ROOT    
