@<TRIPOS>MOLECULE
3R8
117   119    1
SMALL
USER_CHARGES


@<TRIPOS>ATOM
      1 CA         15.9029  -25.1617  -42.6679 C.3       0 UNK        -0.2013 
      2 C          16.7999  -25.0188  -43.8872 C.2       0 UNK         0.4866 
      3 O          17.3751  -23.9505  -44.0953 O.2       0 UNK        -0.5176 
      4 N          16.8992  -26.0718  -44.7100 N.am      1 UNK        -0.4884 
      5 CA         17.6076  -26.0550  -45.9967 C.3       1 UNK         0.0853 
      6 C6         17.1795  -27.1987  -46.9560 C.3       10 UNK        -0.0849 
      7 S7         15.3703  -27.4714  -46.9698 S.3       10 UNK        -0.2776 
      8 C8         15.2069  -29.2422  -46.5535 C.3       10 UNK         0.0316 
      9 C9         16.0481  -29.6822  -45.3583 C.ar      10 UNK        -0.0863 
     10 C10        17.0889  -30.5976  -45.5480 C.ar      10 UNK        -0.1009 
     11 C11        17.8410  -31.0533  -44.4636 C.ar      10 UNK        -0.0712 
     12 C12        17.5549  -30.5808  -43.1828 C.ar      10 UNK        -0.0894 
     13 C13        16.5331  -29.6491  -42.9757 C.ar      10 UNK        -0.0745 
     14 C14        15.7743  -29.2106  -44.0686 C.ar      10 UNK        -0.0972 
     15 C15        16.2175  -29.1592  -41.5673 C.3       10 UNK         0.0209 
     16 S16        17.3501  -27.8428  -41.0082 S.3       10 UNK        -0.2568 
     17 C17        18.7973  -28.7867  -40.4122 C.3       10 UNK        -0.0983 
     18 CA         20.1656  -28.3496  -41.0047 C.3       3 UNK         0.0876 
     19 N          20.1059  -27.9427  -42.4129 N.am      3 UNK        -0.4424 
     20 C          21.1933  -27.7672  -43.1801 C.2       2 UNK         0.4918 
     21 O          22.3257  -28.0806  -42.8109 O.2       2 UNK        -0.4875 
     22 CA         21.0189  -27.0902  -44.5513 C.3       2 UNK         0.0481 
     23 CB         21.8575  -27.7587  -45.6585 C.3       2 UNK        -0.1831 
     24 N          19.6163  -26.9796  -44.9561 N.am      2 UNK        -0.4498 
     25 C          19.1322  -26.0483  -45.7895 C.2       1 UNK         0.5027 
     26 O          19.8229  -25.2021  -46.3597 O.2       1 UNK        -0.4969 
     27 C          20.8383  -27.2491  -40.1576 C.2       3 UNK         0.5005 
     28 O          20.6941  -26.0606  -40.4591 O.2       3 UNK        -0.5279 
     29 N          21.6118  -27.6761  -39.1515 N.am      4 UNK        -0.4463 
     30 CA         22.5304  -26.9049  -38.3039 C.3       4 UNK         0.0283 
     31 CB         21.8216  -25.7625  -37.5504 C.3       4 UNK        -0.1875 
     32 C          23.7725  -26.4034  -39.0619 C.2       4 UNK         0.4949 
     33 O          24.8856  -26.5988  -38.5750 O.2       4 UNK        -0.5039 
     34 N          23.5726  -25.8100  -40.2470 N.am      5 UNK        -0.4663 
     35 CA         24.6191  -25.3187  -41.1499 C.3       5 UNK         0.0242 
     36 CB         23.9675  -24.5992  -42.3420 C.3       5 UNK        -0.1982 
     37 C          25.5680  -26.4275  -41.6368 C.2       5 UNK         0.5017 
     38 O          26.7829  -26.2274  -41.6372 O.2       5 UNK        -0.5012 
     39 N          24.9952  -27.5797  -42.0030 N.am      6 UNK        -0.4439 
     40 CA         25.6978  -28.8091  -42.3622 C.3       6 UNK         0.0297 
     41 CB         25.5063  -29.0859  -43.8658 C.3       6 UNK        -0.2006 
     42 C          25.1900  -29.9613  -41.4803 C.2       6 UNK         0.4892 
     43 O          24.9523  -31.0581  -41.9871 O.2       6 UNK        -0.5089 
     44 N          25.0208  -29.6878  -40.1763 N.am      7 UNK        -0.4243 
     45 CA         24.5245  -30.5906  -39.1302 C.3       7 UNK         0.0196 
     46 CB         25.5279  -31.7339  -38.8586 C.3       7 UNK        -0.2007 
     47 C          23.0963  -31.0855  -39.4217 C.2       7 UNK         0.5020 
     48 O          22.1414  -30.3962  -39.0643 O.2       7 UNK        -0.5147 
     49 N          22.9732  -32.2484  -40.0690 N.am      8 UNK        -0.4734 
     50 CA         21.7096  -32.8529  -40.4986 C.3       8 UNK         0.0238 
     51 CB         21.3958  -34.0603  -39.5949 C.3       8 UNK        -0.1912 
     52 C          21.7517  -33.2281  -41.9921 C.2       8 UNK         0.5038 
     53 O          21.0503  -34.1547  -42.4015 O.2       8 UNK        -0.5046 
     54 N          22.5719  -32.5072  -42.7694 N.am      9 UNK        -0.4200 
     55 CA         22.8772  -32.7253  -44.1927 C.3       9 UNK         0.0839 
     56 C          23.8056  -33.9528  -44.4321 C.2       9 UNK         0.5513 
     57 N          24.2179  -34.1881  -45.6711 N.am      9 UNK        -0.7519 
     58 O          24.1794  -34.6858  -43.5180 O.2       9 UNK        -0.4960 
     59 C59        21.6280  -32.7325  -45.1249 C.3       10 UNK        -0.0876 
     60 S60        20.5522  -31.2723  -44.9191 S.3       10 UNK        -0.2414 
     61 C61        18.9446  -32.0778  -44.6657 C.3       10 UNK         0.0169 
     62 H62        15.4186  -26.1369  -42.6288 H         1 UNK         0.0903 
     63 H63        16.4848  -25.0299  -41.7562 H         1 UNK         0.0903 
     64 H64        15.1238  -24.4003  -42.6856 H         1 UNK         0.0903 
     65 H65        16.3920  -26.9215  -44.5081 H         1 UNK         0.3096 
     66 H66        17.3501  -25.1138  -46.4891 H         1 UNK         0.1121 
     67 H67        17.6925  -28.1296  -46.7148 H         1 UNK         0.0849 
     68 H68        17.4901  -26.9584  -47.9744 H         1 UNK         0.0849 
     69 H69        14.1576  -29.4584  -46.3477 H         1 UNK         0.0865 
     70 H70        15.4636  -29.8269  -47.4383 H         1 UNK         0.0865 
     71 H71        17.3073  -30.9707  -46.5395 H         1 UNK         0.1346 
     72 H72        18.1283  -30.9589  -42.3509 H         1 UNK         0.1412 
     73 H73        14.9583  -28.5168  -43.9165 H         1 UNK         0.1426 
     74 H74        16.2419  -29.9932  -40.8643 H         1 UNK         0.0716 
     75 H75        15.1987  -28.7705  -41.5309 H         1 UNK         0.0716 
     76 H76        18.6466  -29.8442  -40.6145 H         1 UNK         0.0695 
     77 H77        18.8062  -28.7302  -39.3216 H         1 UNK         0.0695 
     78 H78        20.8202  -29.2230  -40.9707 H         1 UNK         0.0983 
     79 H79        19.2132  -27.5837  -42.7123 H         1 UNK         0.3095 
     80 H80        21.4058  -26.0790  -44.4112 H         1 UNK         0.0454 
     81 H81        21.8433  -27.1718  -46.5765 H         1 UNK         0.0851 
     82 H82        21.4896  -28.7545  -45.8980 H         1 UNK         0.0851 
     83 H83        22.9023  -27.8557  -45.3627 H         1 UNK         0.0851 
     84 H84        18.9790  -27.6656  -44.5771 H         1 UNK         0.2976 
     85 H85        21.6949  -28.6878  -39.0337 H         1 UNK         0.3116 
     86 H86        22.8871  -27.6126  -37.5536 H         1 UNK         0.0646 
     87 H87        21.4763  -24.9755  -38.2212 H         1 UNK         0.0847 
     88 H88        22.4980  -25.2966  -36.8328 H         1 UNK         0.0847 
     89 H89        20.9603  -26.1298  -36.9927 H         1 UNK         0.0847 
     90 H90        22.6078  -25.7044  -40.5497 H         1 UNK         0.3040 
     91 H91        25.2190  -24.5936  -40.5955 H         1 UNK         0.1015 
     92 H92        23.3285  -25.2689  -42.9185 H         1 UNK         0.0786 
     93 H93        24.7246  -24.2051  -43.0215 H         1 UNK         0.0786 
     94 H94        23.3590  -23.7569  -42.0125 H         1 UNK         0.0786 
     95 H95        23.9788  -27.6422  -42.0274 H         1 UNK         0.3172 
     96 H96        26.7669  -28.7115  -42.1644 H         1 UNK         0.0595 
     97 H97        24.4608  -29.2804  -44.1075 H         1 UNK         0.0839 
     98 H98        26.0802  -29.9589  -44.1789 H         1 UNK         0.0839 
     99 H99        25.8405  -28.2434  -44.4711 H         1 UNK         0.0839 
    100 H100       25.2281  -28.7455  -39.8718 H         1 UNK         0.2998 
    101 H101       24.4592  -29.9945  -38.2182 H         1 UNK         0.0822 
    102 H102       26.4801  -31.3385  -38.5047 H         1 UNK         0.0787 
    103 H103       25.1540  -32.4069  -38.0856 H         1 UNK         0.0787 
    104 H104       25.7341  -32.3340  -39.7450 H         1 UNK         0.0787 
    105 H105       23.8185  -32.7161  -40.3702 H         1 UNK         0.3055 
    106 H106       20.8949  -32.1323  -40.3976 H         1 UNK         0.1106 
    107 H107       20.4290  -34.4994  -39.8444 H         1 UNK         0.0828 
    108 H108       22.1479  -34.8435  -39.6964 H         1 UNK         0.0828 
    109 H109       21.3540  -33.7686  -38.5454 H         1 UNK         0.0828 
    110 H110       23.1723  -31.8216  -42.3228 H         1 UNK         0.2931 
    111 H111       23.4793  -31.8580  -44.4672 H         1 UNK         0.0412 
    112 H112       24.8260  -34.9744  -45.8407 H         1 UNK         0.3472 
    113 H113       23.9524  -33.5891  -46.4370 H         1 UNK         0.3472 
    114 H114       21.0492  -33.6450  -44.9741 H         1 UNK         0.0970 
    115 H115       21.9343  -32.7514  -46.1715 H         1 UNK         0.0970 
    116 H116       19.0032  -32.7394  -43.8000 H         1 UNK         0.0612 
    117 H117       18.7177  -32.7104  -45.5253 H         1 UNK         0.0612 
@<TRIPOS>BOND
     1    1    2 1    
     2    1   62 1    
     3    1   63 1    
     4    1   64 1    
     5    2    3 2    
     6    2    4 am   BACKBONE|DICT|INTERRES
     7    4    5 1    
     8    4   65 1    
     9    5    6 1    
    10    5   25 1    
    11    5   66 1    
    12    6    7 1    
    13    6   67 1    
    14    6   68 1    
    15    7    8 1    
    16    8    9 1    
    17    8   69 1    
    18    8   70 1    
    19    9   10 ar   
    20    9   14 ar   
    21   10   11 ar   
    22   10   71 1    
    23   11   12 ar   
    24   11   61 1    
    25   12   13 ar   
    26   12   72 1    
    27   13   14 ar   
    28   13   15 1    
    29   14   73 1    
    30   15   16 1    
    31   15   74 1    
    32   15   75 1    
    33   16   17 1    
    34   17   18 1    
    35   17   76 1    
    36   17   77 1    
    37   18   19 1    
    38   18   27 1    
    39   18   78 1    
    40   19   20 am   BACKBONE|DICT|INTERRES
    41   19   79 1    
    42   20   21 2    
    43   20   22 1    
    44   22   23 1    
    45   22   24 1    
    46   22   80 1    
    47   23   81 1    
    48   23   82 1    
    49   23   83 1    
    50   24   25 am   BACKBONE|DICT|INTERRES
    51   24   84 1    
    52   25   26 2    
    53   27   28 2    
    54   27   29 am   BACKBONE|DICT|INTERRES
    55   29   30 1    
    56   29   85 1    
    57   30   31 1    
    58   30   32 1    
    59   30   86 1    
    60   31   87 1    
    61   31   88 1    
    62   31   89 1    
    63   32   33 2    
    64   32   34 am   BACKBONE|DICT|INTERRES
    65   34   35 1    
    66   34   90 1    
    67   35   36 1    
    68   35   37 1    
    69   35   91 1    
    70   36   92 1    
    71   36   93 1    
    72   36   94 1    
    73   37   38 2    
    74   37   39 am   BACKBONE|DICT|INTERRES
    75   39   40 1    
    76   39   95 1    
    77   40   41 1    
    78   40   42 1    
    79   40   96 1    
    80   41   97 1    
    81   41   98 1    
    82   41   99 1    
    83   42   43 2    
    84   42   44 am   BACKBONE|DICT|INTERRES
    85   44   45 1    
    86   44  100 1    
    87   45   46 1    
    88   45   47 1    
    89   45  101 1    
    90   46  102 1    
    91   46  103 1    
    92   46  104 1    
    93   47   48 2    
    94   47   49 am   BACKBONE|DICT|INTERRES
    95   49   50 1    
    96   49  105 1    
    97   50   51 1    
    98   50   52 1    
    99   50  106 1    
   100   51  107 1    
   101   51  108 1    
   102   51  109 1    
   103   52   53 2    
   104   52   54 am   BACKBONE|DICT|INTERRES
   105   54   55 1    
   106   54  110 1    
   107   55   56 1    
   108   55   59 1    
   109   55  111 1    
   110   56   57 am   BACKBONE|DICT|INTERRES
   111   56   58 2    
   112   57  112 1    
   113   57  113 1    
   114   59   60 1    
   115   59  114 1    
   116   59  115 1    
   117   60   61 1    
   118   61  116 1    
   119   61  117 1    
@<TRIPOS>SUBSTRUCTURE
     1 UNK         1 GROUP             0       ****    0 ROOT    
