@<TRIPOS>MOLECULE
3R8
117   119    1
SMALL
USER_CHARGES


@<TRIPOS>ATOM
      1 CA         17.6644  -27.7268  -41.5259 C.3       0 UNK        -0.2013 
      2 C          16.6739  -27.1066  -42.4973 C.2       0 UNK         0.4866 
      3 O          15.9519  -26.1786  -42.1317 O.2       0 UNK        -0.5176 
      4 N          16.6402  -27.6086  -43.7391 N.am      1 UNK        -0.4884 
      5 CA         15.8087  -27.0803  -44.8347 C.3       1 UNK         0.0853 
      6 C6         15.7254  -28.0592  -46.0330 C.3       10 UNK        -0.0849 
      7 S7         15.2505  -29.7494  -45.5337 S.3       10 UNK        -0.2776 
      8 C8         16.6731  -30.7276  -46.1213 C.3       10 UNK         0.0316 
      9 C9         17.9838  -30.3716  -45.4258 C.ar      10 UNK        -0.0863 
     10 C10        18.1632  -30.6544  -44.0679 C.ar      10 UNK        -0.1009 
     11 C11        19.3867  -30.4030  -43.4371 C.ar      10 UNK        -0.0712 
     12 C12        20.4396  -29.8638  -44.1890 C.ar      10 UNK        -0.0894 
     13 C13        20.2797  -29.5869  -45.5489 C.ar      10 UNK        -0.0745 
     14 C14        19.0451  -29.8295  -46.1583 C.ar      10 UNK        -0.0972 
     15 C15        21.4640  -29.1094  -46.3802 C.3       10 UNK         0.0209 
     16 S16        21.4260  -27.3200  -46.6963 S.3       10 UNK        -0.2568 
     17 C17        22.1513  -26.6552  -45.1580 C.3       10 UNK        -0.0983 
     18 CA         22.2125  -25.0997  -45.1631 C.3       3 UNK         0.0876 
     19 N          20.9004  -24.4830  -45.4355 N.am      3 UNK        -0.4424 
     20 C          19.7696  -24.6613  -44.7417 C.2       2 UNK         0.4918 
     21 O          19.7390  -25.1351  -43.6037 O.2       2 UNK        -0.4875 
     22 CA         18.4385  -24.3406  -45.4377 C.3       2 UNK         0.0481 
     23 CB         18.5510  -24.0359  -46.9477 C.3       2 UNK        -0.1831 
     24 N          17.6384  -25.5321  -45.2086 N.am      2 UNK        -0.4498 
     25 C          16.3200  -25.7056  -45.3167 C.2       1 UNK         0.5027 
     26 O          15.5353  -24.8608  -45.7496 O.2       1 UNK        -0.4969 
     27 C          22.9519  -24.5803  -43.9076 C.2       3 UNK         0.5005 
     28 O          24.1744  -24.7139  -43.8437 O.2       3 UNK        -0.5279 
     29 N          22.2222  -24.0187  -42.9346 N.am      4 UNK        -0.4463 
     30 CA         22.6313  -23.5596  -41.6006 C.3       4 UNK         0.0283 
     31 CB         23.7780  -22.5302  -41.6494 C.3       4 UNK        -0.1875 
     32 C          22.9422  -24.7187  -40.6386 C.2       4 UNK         0.4949 
     33 O          22.4073  -24.7342  -39.5298 O.2       4 UNK        -0.5039 
     34 N          23.7626  -25.6777  -41.0782 N.am      5 UNK        -0.4663 
     35 CA         24.0846  -26.9129  -40.3708 C.3       5 UNK         0.0242 
     36 CB         25.1112  -26.6393  -39.2546 C.3       5 UNK        -0.1982 
     37 C          24.6303  -27.9374  -41.3712 C.2       5 UNK         0.5017 
     38 O          25.2147  -27.5534  -42.3868 O.2       5 UNK        -0.5012 
     39 N          24.4638  -29.2193  -41.0414 N.am      6 UNK        -0.4439 
     40 CA         24.9862  -30.3793  -41.7542 C.3       6 UNK         0.0297 
     41 CB         24.1736  -30.6437  -43.0374 C.3       6 UNK        -0.2006 
     42 C          24.8885  -31.5736  -40.8005 C.2       6 UNK         0.4892 
     43 O          24.1058  -31.5255  -39.8470 O.2       6 UNK        -0.5089 
     44 N          25.6365  -32.6451  -41.0955 N.am      7 UNK        -0.4243 
     45 CA         25.6051  -33.9081  -40.3440 C.3       7 UNK         0.0196 
     46 CB         26.6928  -34.8511  -40.8828 C.3       7 UNK        -0.2007 
     47 C          24.2292  -34.6013  -40.3682 C.2       7 UNK         0.5020 
     48 O          23.8715  -35.2808  -39.4062 O.2       7 UNK        -0.5147 
     49 N          23.4686  -34.3819  -41.4496 N.am      8 UNK        -0.4734 
     50 CA         22.0896  -34.8432  -41.6208 C.3       8 UNK         0.0238 
     51 CB         21.6763  -34.6373  -43.0880 C.3       8 UNK        -0.1912 
     52 C          21.0788  -34.1514  -40.6872 C.2       8 UNK         0.5038 
     53 O          20.0012  -34.7070  -40.4702 O.2       8 UNK        -0.5046 
     54 N          21.4179  -32.9598  -40.1732 N.am      9 UNK        -0.4200 
     55 CA         20.5560  -32.1663  -39.2826 C.3       9 UNK         0.0839 
     56 C          20.5800  -32.6399  -37.7995 C.2       9 UNK         0.5513 
     57 N          21.4328  -33.5807  -37.4088 N.am      9 UNK        -0.7519 
     58 O          19.8000  -32.1486  -36.9878 O.2       9 UNK        -0.4960 
     59 C59        20.8486  -30.6424  -39.3859 C.3       10 UNK        -0.0876 
     60 S60        20.8593  -29.9061  -41.0638 S.3       10 UNK        -0.2414 
     61 C61        19.5544  -30.8100  -41.9725 C.3       10 UNK         0.0169 
     62 H62        18.5954  -27.9824  -42.0309 H         1 UNK         0.0903 
     63 H63        17.9056  -27.0275  -40.7257 H         1 UNK         0.0903 
     64 H64        17.2460  -28.6275  -41.0785 H         1 UNK         0.0903 
     65 H65        17.2174  -28.4055  -43.9761 H         1 UNK         0.3096 
     66 H66        14.7989  -26.9316  -44.4453 H         1 UNK         0.1121 
     67 H67        16.6748  -28.0935  -46.5709 H         1 UNK         0.0849 
     68 H68        14.9877  -27.7045  -46.7555 H         1 UNK         0.0849 
     69 H69        16.4623  -31.7847  -45.9525 H         1 UNK         0.0865 
     70 H70        16.7614  -30.6094  -47.2026 H         1 UNK         0.0865 
     71 H71        17.3514  -31.0994  -43.5077 H         1 UNK         0.1346 
     72 H72        21.4017  -29.6878  -43.7321 H         1 UNK         0.1412 
     73 H73        18.9270  -29.6307  -47.2150 H         1 UNK         0.1426 
     74 H74        21.4579  -29.6289  -47.3396 H         1 UNK         0.0716 
     75 H75        22.4077  -29.3774  -45.9022 H         1 UNK         0.0716 
     76 H76        23.1526  -27.0769  -45.0472 H         1 UNK         0.0695 
     77 H77        21.5708  -27.0202  -44.3087 H         1 UNK         0.0695 
     78 H78        22.8433  -24.8056  -46.0039 H         1 UNK         0.0983 
     79 H79        20.8225  -24.0509  -46.3447 H         1 UNK         0.3095 
     80 H80        17.9793  -23.4949  -44.9232 H         1 UNK         0.0454 
     81 H81        17.5694  -23.8637  -47.3890 H         1 UNK         0.0851 
     82 H82        19.0154  -24.8575  -47.4952 H         1 UNK         0.0851 
     83 H83        19.1367  -23.1340  -47.1284 H         1 UNK         0.0851 
     84 H84        18.1590  -26.2809  -44.7687 H         1 UNK         0.2976 
     85 H85        21.2167  -24.0851  -43.0687 H         1 UNK         0.3116 
     86 H86        21.7575  -23.0453  -41.1971 H         1 UNK         0.0646 
     87 H87        24.7162  -22.9715  -41.9860 H         1 UNK         0.0847 
     88 H88        23.5389  -21.7005  -42.3143 H         1 UNK         0.0847 
     89 H89        23.9602  -22.1107  -40.6593 H         1 UNK         0.0847 
     90 H90        24.1515  -25.6006  -42.0161 H         1 UNK         0.3040 
     91 H91        23.1664  -27.3138  -39.9343 H         1 UNK         0.1015 
     92 H92        25.3785  -27.5589  -38.7324 H         1 UNK         0.0786 
     93 H93        24.7175  -25.9498  -38.5077 H         1 UNK         0.0786 
     94 H94        26.0313  -26.2104  -39.6537 H         1 UNK         0.0786 
     95 H95        23.9938  -29.4690  -40.1783 H         1 UNK         0.3172 
     96 H96        26.0350  -30.2031  -42.0015 H         1 UNK         0.0595 
     97 H97        23.1463  -30.9271  -42.8083 H         1 UNK         0.0839 
     98 H98        24.6114  -31.4562  -43.6181 H         1 UNK         0.0839 
     99 H99        24.1438  -29.7682  -43.6860 H         1 UNK         0.0839 
    100 H100       26.2539  -32.6059  -41.8944 H         1 UNK         0.2998 
    101 H101       25.8344  -33.6792  -39.3009 H         1 UNK         0.0822 
    102 H102       26.7064  -35.7890  -40.3256 H         1 UNK         0.0787 
    103 H103       27.6845  -34.4079  -40.7904 H         1 UNK         0.0787 
    104 H104       26.5304  -35.0984  -41.9328 H         1 UNK         0.0787 
    105 H105       23.8546  -33.8182  -42.1926 H         1 UNK         0.3055 
    106 H106       22.0587  -35.9120  -41.3967 H         1 UNK         0.1106 
    107 H107       21.6936  -33.5832  -43.3694 H         1 UNK         0.0828 
    108 H108       22.3343  -35.1792  -43.7674 H         1 UNK         0.0828 
    109 H109       20.6631  -35.0024  -43.2632 H         1 UNK         0.0828 
    110 H110       22.3404  -32.5800  -40.3466 H         1 UNK         0.2931 
    111 H111       19.5238  -32.3116  -39.6058 H         1 UNK         0.0412 
    112 H112       22.0781  -33.9935  -38.0660 H         1 UNK         0.3472 
    113 H113       21.4326  -33.8792  -36.4461 H         1 UNK         0.3472 
    114 H114       20.1137  -30.0866  -38.8005 H         1 UNK         0.0970 
    115 H115       21.8141  -30.4197  -38.9287 H         1 UNK         0.0970 
    116 H116       18.6122  -30.6810  -41.4385 H         1 UNK         0.0612 
    117 H117       19.7730  -31.8757  -41.9692 H         1 UNK         0.0612 
@<TRIPOS>BOND
     1    1    2 1    
     2    1   62 1    
     3    1   63 1    
     4    1   64 1    
     5    2    3 2    
     6    2    4 am   BACKBONE|DICT|INTERRES
     7    4    5 1    
     8    4   65 1    
     9    5    6 1    
    10    5   25 1    
    11    5   66 1    
    12    6    7 1    
    13    6   67 1    
    14    6   68 1    
    15    7    8 1    
    16    8    9 1    
    17    8   69 1    
    18    8   70 1    
    19    9   10 ar   
    20    9   14 ar   
    21   10   11 ar   
    22   10   71 1    
    23   11   12 ar   
    24   11   61 1    
    25   12   13 ar   
    26   12   72 1    
    27   13   14 ar   
    28   13   15 1    
    29   14   73 1    
    30   15   16 1    
    31   15   74 1    
    32   15   75 1    
    33   16   17 1    
    34   17   18 1    
    35   17   76 1    
    36   17   77 1    
    37   18   19 1    
    38   18   27 1    
    39   18   78 1    
    40   19   20 am   BACKBONE|DICT|INTERRES
    41   19   79 1    
    42   20   21 2    
    43   20   22 1    
    44   22   23 1    
    45   22   24 1    
    46   22   80 1    
    47   23   81 1    
    48   23   82 1    
    49   23   83 1    
    50   24   25 am   BACKBONE|DICT|INTERRES
    51   24   84 1    
    52   25   26 2    
    53   27   28 2    
    54   27   29 am   BACKBONE|DICT|INTERRES
    55   29   30 1    
    56   29   85 1    
    57   30   31 1    
    58   30   32 1    
    59   30   86 1    
    60   31   87 1    
    61   31   88 1    
    62   31   89 1    
    63   32   33 2    
    64   32   34 am   BACKBONE|DICT|INTERRES
    65   34   35 1    
    66   34   90 1    
    67   35   36 1    
    68   35   37 1    
    69   35   91 1    
    70   36   92 1    
    71   36   93 1    
    72   36   94 1    
    73   37   38 2    
    74   37   39 am   BACKBONE|DICT|INTERRES
    75   39   40 1    
    76   39   95 1    
    77   40   41 1    
    78   40   42 1    
    79   40   96 1    
    80   41   97 1    
    81   41   98 1    
    82   41   99 1    
    83   42   43 2    
    84   42   44 am   BACKBONE|DICT|INTERRES
    85   44   45 1    
    86   44  100 1    
    87   45   46 1    
    88   45   47 1    
    89   45  101 1    
    90   46  102 1    
    91   46  103 1    
    92   46  104 1    
    93   47   48 2    
    94   47   49 am   BACKBONE|DICT|INTERRES
    95   49   50 1    
    96   49  105 1    
    97   50   51 1    
    98   50   52 1    
    99   50  106 1    
   100   51  107 1    
   101   51  108 1    
   102   51  109 1    
   103   52   53 2    
   104   52   54 am   BACKBONE|DICT|INTERRES
   105   54   55 1    
   106   54  110 1    
   107   55   56 1    
   108   55   59 1    
   109   55  111 1    
   110   56   57 am   BACKBONE|DICT|INTERRES
   111   56   58 2    
   112   57  112 1    
   113   57  113 1    
   114   59   60 1    
   115   59  114 1    
   116   59  115 1    
   117   60   61 1    
   118   61  116 1    
   119   61  117 1    
@<TRIPOS>SUBSTRUCTURE
     1 UNK         1 GROUP             0       ****    0 ROOT    
