@<TRIPOS>MOLECULE
3R8
117   119    1
SMALL
USER_CHARGES


@<TRIPOS>ATOM
      1 CA         17.0485  -22.0394  -48.4795 C.3       0 UNK        -0.2013 
      2 C          18.2083  -22.7648  -47.8134 C.2       0 UNK         0.4866 
      3 O          19.2404  -22.1498  -47.5421 O.2       0 UNK        -0.5176 
      4 N          18.0514  -24.0692  -47.5547 N.am      1 UNK        -0.4884 
      5 CA         19.0335  -24.9029  -46.8543 C.3       1 UNK         0.0853 
      6 C6         18.7543  -26.4093  -47.0926 C.3       10 UNK        -0.0849 
      7 S7         20.2543  -27.4298  -46.9135 S.3       10 UNK        -0.2776 
      8 C8         19.5595  -29.1058  -47.0725 C.3       10 UNK         0.0316 
      9 C9         19.0886  -29.6526  -45.7325 C.ar      10 UNK        -0.0863 
     10 C10        20.0122  -30.2285  -44.8575 C.ar      10 UNK        -0.1009 
     11 C11        19.6099  -30.7481  -43.6241 C.ar      10 UNK        -0.0712 
     12 C12        18.2514  -30.7199  -43.2866 C.ar      10 UNK        -0.0894 
     13 C13        17.3225  -30.1007  -44.1309 C.ar      10 UNK        -0.0745 
     14 C14        17.7436  -29.5820  -45.3598 C.ar      10 UNK        -0.0972 
     15 C15        15.8740  -29.9420  -43.6879 C.3       10 UNK         0.0209 
     16 S16        15.7321  -29.0577  -42.0953 S.3       10 UNK        -0.2568 
     17 C17        16.5222  -27.4468  -42.4517 C.3       10 UNK        -0.0983 
     18 CA         18.0278  -27.3889  -42.0810 C.3       3 UNK         0.0876 
     19 N          18.6603  -26.1819  -42.6052 N.am      3 UNK        -0.4424 
     20 C          19.9763  -25.9372  -42.6109 C.2       2 UNK         0.4918 
     21 O          20.8277  -26.7234  -42.1860 O.2       2 UNK        -0.4875 
     22 CA         20.3942  -24.6062  -43.2610 C.3       2 UNK         0.0481 
     23 CB         21.8427  -24.2045  -42.9309 C.3       2 UNK        -0.1831 
     24 N          20.2226  -24.6880  -44.7132 N.am      2 UNK        -0.4498 
     25 C          19.0471  -24.5756  -45.3471 C.2       1 UNK         0.5027 
     26 O          17.9908  -24.2861  -44.7755 O.2       1 UNK        -0.4969 
     27 C          18.2911  -27.5359  -40.5687 C.2       3 UNK         0.5005 
     28 O          18.2119  -26.5469  -39.8352 O.2       3 UNK        -0.5279 
     29 N          18.6238  -28.7669  -40.1539 N.am      4 UNK        -0.4463 
     30 CA         19.0421  -29.1677  -38.8061 C.3       4 UNK         0.0283 
     31 CB         17.9379  -28.8911  -37.7627 C.3       4 UNK        -0.1875 
     32 C          20.4166  -28.5996  -38.3904 C.2       4 UNK         0.4949 
     33 O          20.6970  -28.5282  -37.1931 O.2       4 UNK        -0.5039 
     34 N          21.2596  -28.2310  -39.3672 N.am      5 UNK        -0.4663 
     35 CA         22.6071  -27.7043  -39.1364 C.3       5 UNK         0.0242 
     36 CB         22.5637  -26.1688  -39.0440 C.3       5 UNK        -0.1982 
     37 C          23.6124  -28.1681  -40.1998 C.2       5 UNK         0.5017 
     38 O          24.7160  -28.5730  -39.8339 O.2       5 UNK        -0.5012 
     39 N          23.2387  -28.0825  -41.4850 N.am      6 UNK        -0.4439 
     40 CA         24.1044  -28.4001  -42.6261 C.3       6 UNK         0.0297 
     41 CB         23.3744  -28.0314  -43.9289 C.3       6 UNK        -0.2006 
     42 C          24.5400  -29.8742  -42.6899 C.2       6 UNK         0.4892 
     43 O          23.7000  -30.7568  -42.5224 O.2       6 UNK        -0.5089 
     44 N          25.8218  -30.0964  -43.0179 N.am      7 UNK        -0.4243 
     45 CA         26.4482  -31.3628  -43.4255 C.3       7 UNK         0.0196 
     46 CB         26.2678  -31.5414  -44.9500 C.3       7 UNK        -0.2007 
     47 C          26.0012  -32.5954  -42.6108 C.2       7 UNK         0.5020 
     48 O          26.4404  -32.7633  -41.4726 O.2       7 UNK        -0.5147 
     49 N          25.1303  -33.4234  -43.2057 N.am      8 UNK        -0.4734 
     50 CA         24.5850  -34.6619  -42.6430 C.3       8 UNK         0.0238 
     51 CB         23.7485  -35.3725  -43.7199 C.3       8 UNK        -0.1912 
     52 C          23.7579  -34.4839  -41.3569 C.2       8 UNK         0.5038 
     53 O          23.6422  -35.4465  -40.5964 O.2       8 UNK        -0.5046 
     54 N          23.2132  -33.2822  -41.1226 N.am      9 UNK        -0.4200 
     55 CA         22.5504  -32.9213  -39.8605 C.3       9 UNK         0.0839 
     56 C          23.5424  -32.6325  -38.6934 C.2       9 UNK         0.5513 
     57 N          24.8485  -32.5400  -38.9191 N.am      9 UNK        -0.7519 
     58 O          23.1140  -32.4997  -37.5502 O.2       9 UNK        -0.4960 
     59 C59        21.5542  -31.7478  -40.0338 C.3       10 UNK        -0.0876 
     60 S60        20.1594  -32.1005  -41.1637 S.3       10 UNK        -0.2414 
     61 C61        20.7009  -31.2250  -42.6697 C.3       10 UNK         0.0169 
     62 H62        16.6973  -21.2290  -47.8412 H         1 UNK         0.0903 
     63 H63        17.3690  -21.6113  -49.4289 H         1 UNK         0.0903 
     64 H64        16.2082  -22.7055  -48.6747 H         1 UNK         0.0903 
     65 H65        17.1681  -24.5122  -47.7649 H         1 UNK         0.3096 
     66 H66        20.0145  -24.6572  -47.2687 H         1 UNK         0.1121 
     67 H67        18.3910  -26.5651  -48.1100 H         1 UNK         0.0849 
     68 H68        17.9677  -26.7819  -46.4330 H         1 UNK         0.0849 
     69 H69        18.7467  -29.1089  -47.8005 H         1 UNK         0.0865 
     70 H70        20.3280  -29.7642  -47.4803 H         1 UNK         0.0865 
     71 H71        21.0591  -30.2486  -45.1294 H         1 UNK         0.1346 
     72 H72        17.9111  -31.1105  -42.3386 H         1 UNK         0.1412 
     73 H73        17.0284  -29.1113  -46.0205 H         1 UNK         0.1426 
     74 H74        15.4233  -30.9300  -43.5862 H         1 UNK         0.0716 
     75 H75        15.2891  -29.4105  -44.4402 H         1 UNK         0.0716 
     76 H76        15.9710  -26.6697  -41.9191 H         1 UNK         0.0695 
     77 H77        16.3914  -27.2306  -43.5135 H         1 UNK         0.0695 
     78 H78        18.5387  -28.2049  -42.5879 H         1 UNK         0.0983 
     79 H79        18.0498  -25.4875  -43.0184 H         1 UNK         0.3095 
     80 H80        19.7431  -23.8238  -42.8649 H         1 UNK         0.0454 
     81 H81        22.5679  -24.9172  -43.3187 H         1 UNK         0.0851 
     82 H82        21.9924  -24.1421  -41.8527 H         1 UNK         0.0851 
     83 H83        22.0842  -23.2260  -43.3458 H         1 UNK         0.0851 
     84 H84        21.0298  -24.9856  -45.2430 H         1 UNK         0.2976 
     85 H85        18.6374  -29.5083  -40.8405 H         1 UNK         0.3116 
     86 H86        19.1646  -30.2495  -38.8488 H         1 UNK         0.0646 
     87 H87        17.8162  -27.8250  -37.5703 H         1 UNK         0.0847 
     88 H88        18.1756  -29.3638  -36.8090 H         1 UNK         0.0847 
     89 H89        16.9755  -29.2868  -38.0870 H         1 UNK         0.0847 
     90 H90        20.9530  -28.2966  -40.3278 H         1 UNK         0.3040 
     91 H91        22.9815  -28.0873  -38.1838 H         1 UNK         0.1015 
     92 H92        22.1488  -25.7223  -39.9477 H         1 UNK         0.0786 
     93 H93        23.5629  -25.7552  -38.9011 H         1 UNK         0.0786 
     94 H94        21.9539  -25.8417  -38.2017 H         1 UNK         0.0786 
     95 H95        22.3346  -27.6741  -41.7118 H         1 UNK         0.3172 
     96 H96        24.9964  -27.7757  -42.5449 H         1 UNK         0.0595 
     97 H97        23.9619  -28.3090  -44.8053 H         1 UNK         0.0839 
     98 H98        23.1910  -26.9616  -43.9958 H         1 UNK         0.0839 
     99 H99        22.4123  -28.5385  -44.0078 H         1 UNK         0.0839 
    100 H100       26.4266  -29.2892  -43.0778 H         1 UNK         0.2998 
    101 H101       27.5170  -31.2537  -43.2340 H         1 UNK         0.0822 
    102 H102       26.7181  -32.4723  -45.2984 H         1 UNK         0.0787 
    103 H103       25.2170  -31.5449  -45.2426 H         1 UNK         0.0787 
    104 H104       26.7536  -30.7327  -45.4962 H         1 UNK         0.0787 
    105 H105       24.8057  -33.1702  -44.1276 H         1 UNK         0.3055 
    106 H106       25.4317  -35.3026  -42.3867 H         1 UNK         0.1106 
    107 H107       23.3524  -36.3181  -43.3467 H         1 UNK         0.0828 
    108 H108       22.8984  -34.7657  -44.0348 H         1 UNK         0.0828 
    109 H109       24.3459  -35.6013  -44.6026 H         1 UNK         0.0828 
    110 H110       23.3849  -32.5191  -41.7720 H         1 UNK         0.2931 
    111 H111       21.9634  -33.7841  -39.5394 H         1 UNK         0.0412 
    112 H112       25.2317  -32.6427  -39.8526 H         1 UNK         0.3472 
    113 H113       25.4667  -32.3551  -38.1456 H         1 UNK         0.3472 
    114 H114       22.0843  -30.8495  -40.3508 H         1 UNK         0.0970 
    115 H115       21.1139  -31.5029  -39.0666 H         1 UNK         0.0970 
    116 H116       21.2393  -30.3266  -42.3702 H         1 UNK         0.0612 
    117 H117       21.4040  -31.8641  -43.2055 H         1 UNK         0.0612 
@<TRIPOS>BOND
     1    1    2 1    
     2    1   62 1    
     3    1   63 1    
     4    1   64 1    
     5    2    3 2    
     6    2    4 am   BACKBONE|DICT|INTERRES
     7    4    5 1    
     8    4   65 1    
     9    5    6 1    
    10    5   25 1    
    11    5   66 1    
    12    6    7 1    
    13    6   67 1    
    14    6   68 1    
    15    7    8 1    
    16    8    9 1    
    17    8   69 1    
    18    8   70 1    
    19    9   10 ar   
    20    9   14 ar   
    21   10   11 ar   
    22   10   71 1    
    23   11   12 ar   
    24   11   61 1    
    25   12   13 ar   
    26   12   72 1    
    27   13   14 ar   
    28   13   15 1    
    29   14   73 1    
    30   15   16 1    
    31   15   74 1    
    32   15   75 1    
    33   16   17 1    
    34   17   18 1    
    35   17   76 1    
    36   17   77 1    
    37   18   19 1    
    38   18   27 1    
    39   18   78 1    
    40   19   20 am   BACKBONE|DICT|INTERRES
    41   19   79 1    
    42   20   21 2    
    43   20   22 1    
    44   22   23 1    
    45   22   24 1    
    46   22   80 1    
    47   23   81 1    
    48   23   82 1    
    49   23   83 1    
    50   24   25 am   BACKBONE|DICT|INTERRES
    51   24   84 1    
    52   25   26 2    
    53   27   28 2    
    54   27   29 am   BACKBONE|DICT|INTERRES
    55   29   30 1    
    56   29   85 1    
    57   30   31 1    
    58   30   32 1    
    59   30   86 1    
    60   31   87 1    
    61   31   88 1    
    62   31   89 1    
    63   32   33 2    
    64   32   34 am   BACKBONE|DICT|INTERRES
    65   34   35 1    
    66   34   90 1    
    67   35   36 1    
    68   35   37 1    
    69   35   91 1    
    70   36   92 1    
    71   36   93 1    
    72   36   94 1    
    73   37   38 2    
    74   37   39 am   BACKBONE|DICT|INTERRES
    75   39   40 1    
    76   39   95 1    
    77   40   41 1    
    78   40   42 1    
    79   40   96 1    
    80   41   97 1    
    81   41   98 1    
    82   41   99 1    
    83   42   43 2    
    84   42   44 am   BACKBONE|DICT|INTERRES
    85   44   45 1    
    86   44  100 1    
    87   45   46 1    
    88   45   47 1    
    89   45  101 1    
    90   46  102 1    
    91   46  103 1    
    92   46  104 1    
    93   47   48 2    
    94   47   49 am   BACKBONE|DICT|INTERRES
    95   49   50 1    
    96   49  105 1    
    97   50   51 1    
    98   50   52 1    
    99   50  106 1    
   100   51  107 1    
   101   51  108 1    
   102   51  109 1    
   103   52   53 2    
   104   52   54 am   BACKBONE|DICT|INTERRES
   105   54   55 1    
   106   54  110 1    
   107   55   56 1    
   108   55   59 1    
   109   55  111 1    
   110   56   57 am   BACKBONE|DICT|INTERRES
   111   56   58 2    
   112   57  112 1    
   113   57  113 1    
   114   59   60 1    
   115   59  114 1    
   116   59  115 1    
   117   60   61 1    
   118   61  116 1    
   119   61  117 1    
@<TRIPOS>SUBSTRUCTURE
     1 UNK         1 GROUP             0       ****    0 ROOT    
