@<TRIPOS>MOLECULE
3R8
117   119    1
SMALL
USER_CHARGES


@<TRIPOS>ATOM
      1 CA         17.0451  -24.1639  -39.1414 C.3       0 UNK        -0.2013 
      2 C          17.2644  -24.2443  -40.6448 C.2       0 UNK         0.4866 
      3 O          17.0844  -23.2467  -41.3439 O.2       0 UNK        -0.5176 
      4 N          17.6350  -25.4286  -41.1479 N.am      1 UNK        -0.4884 
      5 CA         17.9017  -25.6985  -42.5637 C.3       1 UNK         0.0853 
      6 C6         18.1077  -27.2085  -42.8342 C.3       10 UNK        -0.0849 
      7 S7         16.6420  -28.2144  -42.4217 S.3       10 UNK        -0.2776 
      8 C8         16.2919  -29.0425  -44.0093 C.3       10 UNK         0.0316 
      9 C9         17.4096  -29.9981  -44.4071 C.ar      10 UNK        -0.0863 
     10 C10        17.5463  -31.2272  -43.7566 C.ar      10 UNK        -0.1009 
     11 C11        18.5914  -32.0963  -44.0866 C.ar      10 UNK        -0.0712 
     12 C12        19.5000  -31.7290  -45.0856 C.ar      10 UNK        -0.0894 
     13 C13        19.3622  -30.5106  -45.7587 C.ar      10 UNK        -0.0745 
     14 C14        18.3092  -29.6548  -45.4208 C.ar      10 UNK        -0.0972 
     15 C15        20.3416  -30.1247  -46.8604 C.3       10 UNK         0.0209 
     16 S16        21.9265  -29.5229  -46.1934 S.3       10 UNK        -0.2568 
     17 C17        21.4272  -27.9798  -45.3569 C.3       10 UNK        -0.0983 
     18 CA         22.2672  -26.7417  -45.7651 C.3       3 UNK         0.0876 
     19 N          21.6662  -25.5250  -45.2336 N.am      3 UNK        -0.4424 
     20 C          20.7175  -24.8060  -45.8353 C.2       2 UNK         0.4918 
     21 O          20.2800  -25.0476  -46.9615 O.2       2 UNK        -0.4875 
     22 CA         20.0914  -23.6835  -44.9932 C.3       2 UNK         0.0481 
     23 CB         19.5574  -22.5303  -45.8615 C.3       2 UNK        -0.1831 
     24 N          18.9908  -24.2561  -44.2193 N.am      2 UNK        -0.4498 
     25 C          19.1351  -24.9222  -43.0659 C.2       1 UNK         0.5027 
     26 O          20.1965  -24.9960  -42.4407 O.2       1 UNK        -0.4969 
     27 C          23.6982  -26.8214  -45.2169 C.2       3 UNK         0.5005 
     28 O          23.9311  -26.4086  -44.0779 O.2       3 UNK        -0.5279 
     29 N          24.6165  -27.4098  -45.9959 N.am      4 UNK        -0.4463 
     30 CA         25.9894  -27.7153  -45.5732 C.3       4 UNK         0.0283 
     31 CB         26.8090  -28.1745  -46.7896 C.3       4 UNK        -0.1875 
     32 C          26.0534  -28.7698  -44.4513 C.2       4 UNK         0.4949 
     33 O          26.9897  -28.7506  -43.6531 O.2       4 UNK        -0.5039 
     34 N          25.0425  -29.6482  -44.3961 N.am      5 UNK        -0.4663 
     35 CA         24.8391  -30.6332  -43.3315 C.3       5 UNK         0.0242 
     36 CB         24.0014  -31.7902  -43.9012 C.3       5 UNK        -0.1982 
     37 C          24.1592  -30.0368  -42.0816 C.2       5 UNK         0.5017 
     38 O          24.1026  -30.7182  -41.0557 O.2       5 UNK        -0.5012 
     39 N          23.6524  -28.7968  -42.1917 N.am      6 UNK        -0.4439 
     40 CA         22.8725  -28.0417  -41.2044 C.3       6 UNK         0.0297 
     41 CB         23.7271  -27.7585  -39.9483 C.3       6 UNK        -0.2006 
     42 C          21.5233  -28.7049  -40.8606 C.2       6 UNK         0.4892 
     43 O          21.1477  -29.7173  -41.4540 O.2       6 UNK        -0.5089 
     44 N          20.8161  -28.1256  -39.8802 N.am      7 UNK        -0.4243 
     45 CA         19.5671  -28.6573  -39.3187 C.3       7 UNK         0.0196 
     46 CB         18.9742  -27.6156  -38.3561 C.3       7 UNK        -0.2007 
     47 C          19.7422  -30.0090  -38.5979 C.2       7 UNK         0.5020 
     48 O          18.7637  -30.7341  -38.4218 O.2       7 UNK        -0.5147 
     49 N          20.9815  -30.3204  -38.1940 N.am      8 UNK        -0.4734 
     50 CA         21.3816  -31.5969  -37.6030 C.3       8 UNK         0.0238 
     51 CB         22.7416  -31.4149  -36.9084 C.3       8 UNK        -0.1912 
     52 C          21.4542  -32.7511  -38.6202 C.2       8 UNK         0.5038 
     53 O          21.4350  -33.9065  -38.1928 O.2       8 UNK        -0.5046 
     54 N          21.5471  -32.4341  -39.9215 N.am      9 UNK        -0.4200 
     55 CA         21.6893  -33.3909  -41.0326 C.3       9 UNK         0.0839 
     56 C          23.0037  -34.2243  -40.9507 C.2       9 UNK         0.5513 
     57 N          24.1237  -33.6058  -40.5979 N.am      9 UNK        -0.7519 
     58 O          23.0206  -35.4248  -41.2126 O.2       9 UNK        -0.4960 
     59 C59        20.4193  -34.2630  -41.2508 C.3       10 UNK        -0.0876 
     60 S60        18.9342  -33.2535  -41.5810 S.3       10 UNK        -0.2414 
     61 C61        18.7207  -33.4406  -43.3827 C.3       10 UNK         0.0169 
     62 H62        17.8959  -23.6796  -38.6630 H         1 UNK         0.0903 
     63 H63        16.1523  -23.5788  -38.9217 H         1 UNK         0.0903 
     64 H64        16.9140  -25.1498  -38.6964 H         1 UNK         0.0903 
     65 H65        17.7541  -26.2184  -40.5316 H         1 UNK         0.3096 
     66 H66        17.0277  -25.3649  -43.1278 H         1 UNK         0.1121 
     67 H67        18.3623  -27.3625  -43.8830 H         1 UNK         0.0849 
     68 H68        18.9568  -27.5939  -42.2670 H         1 UNK         0.0849 
     69 H69        16.1256  -28.2912  -44.7830 H         1 UNK         0.0865 
     70 H70        15.3570  -29.5977  -43.9199 H         1 UNK         0.0865 
     71 H71        16.8478  -31.5013  -42.9777 H         1 UNK         0.1346 
     72 H72        20.3135  -32.3918  -45.3472 H         1 UNK         0.1412 
     73 H73        18.1973  -28.7133  -45.9408 H         1 UNK         0.1426 
     74 H74        19.9118  -29.3631  -47.5132 H         1 UNK         0.0716 
     75 H75        20.5341  -30.9924  -47.4930 H         1 UNK         0.0716 
     76 H76        21.4567  -28.1421  -44.2772 H         1 UNK         0.0695 
     77 H77        20.3819  -27.7843  -45.5931 H         1 UNK         0.0695 
     78 H78        22.3149  -26.6704  -46.8544 H         1 UNK         0.0983 
     79 H79        21.9907  -25.2652  -44.3094 H         1 UNK         0.3095 
     80 H80        20.8500  -23.2770  -44.3206 H         1 UNK         0.0454 
     81 H81        19.1497  -21.7286  -45.2457 H         1 UNK         0.0851 
     82 H82        18.7723  -22.8591  -46.5437 H         1 UNK         0.0851 
     83 H83        20.3552  -22.0991  -46.4673 H         1 UNK         0.0851 
     84 H84        18.0894  -24.2623  -44.6754 H         1 UNK         0.2976 
     85 H85        24.3416  -27.7362  -46.9124 H         1 UNK         0.3116 
     86 H86        26.4353  -26.7962  -45.1866 H         1 UNK         0.0646 
     87 H87        27.8417  -28.3836  -46.5065 H         1 UNK         0.0847 
     88 H88        26.8374  -27.4070  -47.5633 H         1 UNK         0.0847 
     89 H89        26.4029  -29.0850  -47.2321 H         1 UNK         0.0847 
     90 H90        24.3211  -29.5960  -45.1029 H         1 UNK         0.3040 
     91 H91        25.8098  -31.0278  -43.0229 H         1 UNK         0.1015 
     92 H92        24.4186  -32.1657  -44.8357 H         1 UNK         0.0786 
     93 H93        22.9692  -31.4901  -44.0884 H         1 UNK         0.0786 
     94 H94        23.9763  -32.6282  -43.2072 H         1 UNK         0.0786 
     95 H95        23.7906  -28.3152  -43.0708 H         1 UNK         0.3172 
     96 H96        22.6361  -27.0867  -41.6762 H         1 UNK         0.0595 
     97 H97        23.8992  -28.6603  -39.3596 H         1 UNK         0.0839 
     98 H98        23.2537  -27.0258  -39.2946 H         1 UNK         0.0839 
     99 H99        24.7011  -27.3517  -40.2208 H         1 UNK         0.0839 
    100 H100       21.1786  -27.2842  -39.4551 H         1 UNK         0.2998 
    101 H101       18.8671  -28.8152  -40.1418 H         1 UNK         0.0822 
    102 H102       18.8749  -26.6412  -38.8313 H         1 UNK         0.0787 
    103 H103       17.9825  -27.9188  -38.0174 H         1 UNK         0.0787 
    104 H104       19.5961  -27.4883  -37.4688 H         1 UNK         0.0787 
    105 H105       21.7174  -29.6534  -38.3721 H         1 UNK         0.3055 
    106 H106       20.6414  -31.8750  -36.8492 H         1 UNK         0.1106 
    107 H107       23.0594  -32.3397  -36.4246 H         1 UNK         0.0828 
    108 H108       23.5223  -31.1346  -37.6171 H         1 UNK         0.0828 
    109 H109       22.6950  -30.6475  -36.1356 H         1 UNK         0.0828 
    110 H110       21.5493  -31.4582  -40.1933 H         1 UNK         0.2931 
    111 H111       21.8043  -32.7779  -41.9273 H         1 UNK         0.0412 
    112 H112       24.1266  -32.5977  -40.4761 H         1 UNK         0.3472 
    113 H113       24.9830  -34.1276  -40.5350 H         1 UNK         0.3472 
    114 H114       20.5693  -34.9674  -42.0700 H         1 UNK         0.0970 
    115 H115       20.2253  -34.8796  -40.3721 H         1 UNK         0.0970 
    116 H116       19.5482  -34.0081  -43.8095 H         1 UNK         0.0612 
    117 H117       17.8208  -34.0280  -43.5692 H         1 UNK         0.0612 
@<TRIPOS>BOND
     1    1    2 1    
     2    1   62 1    
     3    1   63 1    
     4    1   64 1    
     5    2    3 2    
     6    2    4 am   BACKBONE|DICT|INTERRES
     7    4    5 1    
     8    4   65 1    
     9    5    6 1    
    10    5   25 1    
    11    5   66 1    
    12    6    7 1    
    13    6   67 1    
    14    6   68 1    
    15    7    8 1    
    16    8    9 1    
    17    8   69 1    
    18    8   70 1    
    19    9   10 ar   
    20    9   14 ar   
    21   10   11 ar   
    22   10   71 1    
    23   11   12 ar   
    24   11   61 1    
    25   12   13 ar   
    26   12   72 1    
    27   13   14 ar   
    28   13   15 1    
    29   14   73 1    
    30   15   16 1    
    31   15   74 1    
    32   15   75 1    
    33   16   17 1    
    34   17   18 1    
    35   17   76 1    
    36   17   77 1    
    37   18   19 1    
    38   18   27 1    
    39   18   78 1    
    40   19   20 am   BACKBONE|DICT|INTERRES
    41   19   79 1    
    42   20   21 2    
    43   20   22 1    
    44   22   23 1    
    45   22   24 1    
    46   22   80 1    
    47   23   81 1    
    48   23   82 1    
    49   23   83 1    
    50   24   25 am   BACKBONE|DICT|INTERRES
    51   24   84 1    
    52   25   26 2    
    53   27   28 2    
    54   27   29 am   BACKBONE|DICT|INTERRES
    55   29   30 1    
    56   29   85 1    
    57   30   31 1    
    58   30   32 1    
    59   30   86 1    
    60   31   87 1    
    61   31   88 1    
    62   31   89 1    
    63   32   33 2    
    64   32   34 am   BACKBONE|DICT|INTERRES
    65   34   35 1    
    66   34   90 1    
    67   35   36 1    
    68   35   37 1    
    69   35   91 1    
    70   36   92 1    
    71   36   93 1    
    72   36   94 1    
    73   37   38 2    
    74   37   39 am   BACKBONE|DICT|INTERRES
    75   39   40 1    
    76   39   95 1    
    77   40   41 1    
    78   40   42 1    
    79   40   96 1    
    80   41   97 1    
    81   41   98 1    
    82   41   99 1    
    83   42   43 2    
    84   42   44 am   BACKBONE|DICT|INTERRES
    85   44   45 1    
    86   44  100 1    
    87   45   46 1    
    88   45   47 1    
    89   45  101 1    
    90   46  102 1    
    91   46  103 1    
    92   46  104 1    
    93   47   48 2    
    94   47   49 am   BACKBONE|DICT|INTERRES
    95   49   50 1    
    96   49  105 1    
    97   50   51 1    
    98   50   52 1    
    99   50  106 1    
   100   51  107 1    
   101   51  108 1    
   102   51  109 1    
   103   52   53 2    
   104   52   54 am   BACKBONE|DICT|INTERRES
   105   54   55 1    
   106   54  110 1    
   107   55   56 1    
   108   55   59 1    
   109   55  111 1    
   110   56   57 am   BACKBONE|DICT|INTERRES
   111   56   58 2    
   112   57  112 1    
   113   57  113 1    
   114   59   60 1    
   115   59  114 1    
   116   59  115 1    
   117   60   61 1    
   118   61  116 1    
   119   61  117 1    
@<TRIPOS>SUBSTRUCTURE
     1 UNK         1 GROUP             0       ****    0 ROOT    
