@<TRIPOS>MOLECULE
3R8
117   119    1
SMALL
USER_CHARGES


@<TRIPOS>ATOM
      1 CA         15.7445  -26.4603  -40.0034 C.3       0 UNK        -0.2013 
      2 C          16.3134  -26.8285  -41.3657 C.2       0 UNK         0.4866 
      3 O          16.9142  -27.8927  -41.5009 O.2       0 UNK        -0.5176 
      4 N          16.1104  -25.9595  -42.3664 N.am      1 UNK        -0.4884 
      5 CA         16.6369  -26.0348  -43.7379 C.3       1 UNK         0.0853 
      6 C6         16.4080  -27.4109  -44.4202 C.3       10 UNK        -0.0849 
      7 S7         16.2007  -27.2885  -46.2295 S.3       10 UNK        -0.2776 
      8 C8         15.9384  -29.0377  -46.6681 C.3       10 UNK         0.0316 
      9 C9         17.1656  -29.8794  -46.3532 C.ar      10 UNK        -0.0863 
     10 C10        17.2089  -30.6579  -45.1923 C.ar      10 UNK        -0.1009 
     11 C11        18.3566  -31.3873  -44.8694 C.ar      10 UNK        -0.0712 
     12 C12        19.4541  -31.3596  -45.7332 C.ar      10 UNK        -0.0894 
     13 C13        19.4289  -30.5678  -46.8865 C.ar      10 UNK        -0.0745 
     14 C14        18.2760  -29.8435  -47.2006 C.ar      10 UNK        -0.0972 
     15 C15        20.6668  -30.4465  -47.7632 C.3       10 UNK         0.0209 
     16 S16        21.5199  -28.8529  -47.5088 S.3       10 UNK        -0.2568 
     17 C17        22.0207  -28.9833  -45.7583 C.3       10 UNK        -0.0983 
     18 CA         22.1858  -27.6223  -45.0413 C.3       3 UNK         0.0876 
     19 N          21.0325  -26.7307  -45.2201 N.am      3 UNK        -0.4424 
     20 C          21.0767  -25.4102  -44.9986 C.2       2 UNK         0.4918 
     21 O          22.0618  -24.8267  -44.5448 O.2       2 UNK        -0.4875 
     22 CA         19.8227  -24.5949  -45.3528 C.3       2 UNK         0.0481 
     23 CB         19.8482  -24.2014  -46.8384 C.3       2 UNK        -0.1831 
     24 N          18.5523  -25.2601  -45.0504 N.am      2 UNK        -0.4498 
     25 C          18.1060  -25.5564  -43.8221 C.2       1 UNK         0.5027 
     26 O          18.7876  -25.4206  -42.8030 O.2       1 UNK        -0.4969 
     27 C          22.5214  -27.8775  -43.5593 C.2       3 UNK         0.5005 
     28 O          23.6595  -28.2459  -43.2645 O.2       3 UNK        -0.5279 
     29 N          21.5417  -27.7061  -42.6567 N.am      4 UNK        -0.4463 
     30 CA         21.6007  -28.0774  -41.2364 C.3       4 UNK         0.0283 
     31 CB         20.2475  -27.7858  -40.5743 C.3       4 UNK        -0.1875 
     32 C          22.7429  -27.4383  -40.4274 C.2       4 UNK         0.4949 
     33 O          23.1153  -27.9849  -39.3909 O.2       4 UNK        -0.5039 
     34 N          23.3164  -26.3358  -40.9276 N.am      5 UNK        -0.4663 
     35 CA         24.5349  -25.7158  -40.4002 C.3       5 UNK         0.0242 
     36 CB         24.7758  -24.3869  -41.1341 C.3       5 UNK        -0.1982 
     37 C          25.7839  -26.6174  -40.4946 C.2       5 UNK         0.5017 
     38 O          26.7098  -26.4284  -39.7047 O.2       5 UNK        -0.5012 
     39 N          25.7894  -27.5681  -41.4407 N.am      6 UNK        -0.4439 
     40 CA         26.8583  -28.5481  -41.6449 C.3       6 UNK         0.0297 
     41 CB         27.5173  -28.3020  -43.0123 C.3       6 UNK        -0.2006 
     42 C          26.3389  -29.9917  -41.5533 C.2       6 UNK         0.4892 
     43 O          27.0234  -30.8388  -40.9790 O.2       6 UNK        -0.5089 
     44 N          25.1553  -30.2576  -42.1235 N.am      7 UNK        -0.4243 
     45 CA         24.5544  -31.5910  -42.2184 C.3       7 UNK         0.0196 
     46 CB         23.5569  -31.6057  -43.3901 C.3       7 UNK        -0.2007 
     47 C          23.8515  -32.0544  -40.9328 C.2       7 UNK         0.5020 
     48 O          23.5505  -33.2433  -40.8228 O.2       7 UNK        -0.5147 
     49 N          23.5533  -31.1237  -40.0136 N.am      8 UNK        -0.4734 
     50 CA         22.8005  -31.2753  -38.7562 C.3       8 UNK         0.0238 
     51 CB         23.4817  -32.2744  -37.8002 C.3       8 UNK        -0.1912 
     52 C          21.3053  -31.6074  -38.9338 C.2       8 UNK         0.5038 
     53 O          20.4815  -31.0251  -38.2272 O.2       8 UNK        -0.5046 
     54 N          20.9869  -32.5161  -39.8642 N.am      9 UNK        -0.4200 
     55 CA         19.6495  -33.0477  -40.1733 C.3       9 UNK         0.0839 
     56 C          19.0300  -33.8701  -39.0000 C.2       9 UNK         0.5513 
     57 N          17.7635  -34.2552  -39.0920 N.am      9 UNK        -0.7519 
     58 O          19.6941  -34.2162  -38.0244 O.2       9 UNK        -0.4960 
     59 C59        18.6893  -31.9674  -40.7555 C.3       10 UNK        -0.0876 
     60 S60        19.3147  -31.2061  -42.2934 S.3       10 UNK        -0.2414 
     61 C61        18.4258  -32.1635  -43.5641 C.3       10 UNK         0.0169 
     62 H62        15.2246  -25.5026  -40.0211 H         1 UNK         0.0903 
     63 H63        15.0398  -27.2229  -39.6730 H         1 UNK         0.0903 
     64 H64        16.5471  -26.3970  -39.2690 H         1 UNK         0.0903 
     65 H65        15.6182  -25.1014  -42.1582 H         1 UNK         0.3096 
     66 H66        16.0505  -25.2916  -44.2814 H         1 UNK         0.1121 
     67 H67        15.5019  -27.8769  -44.0295 H         1 UNK         0.0849 
     68 H68        17.2237  -28.0956  -44.1819 H         1 UNK         0.0849 
     69 H69        15.0612  -29.4183  -46.1424 H         1 UNK         0.0865 
     70 H70        15.7098  -29.1081  -47.7326 H         1 UNK         0.0865 
     71 H71        16.3622  -30.6664  -44.5193 H         1 UNK         0.1346 
     72 H72        20.3486  -31.9103  -45.4752 H         1 UNK         0.1412 
     73 H73        18.2582  -29.2194  -48.0840 H         1 UNK         0.1426 
     74 H74        21.3635  -31.2631  -47.5669 H         1 UNK         0.0716 
     75 H75        20.3798  -30.5328  -48.8122 H         1 UNK         0.0716 
     76 H76        22.9578  -29.5423  -45.7278 H         1 UNK         0.0695 
     77 H77        21.2954  -29.5859  -45.2149 H         1 UNK         0.0695 
     78 H78        23.0555  -27.1258  -45.4782 H         1 UNK         0.0983 
     79 H79        20.1985  -27.1401  -45.6158 H         1 UNK         0.3095 
     80 H80        19.8566  -23.6762  -44.7633 H         1 UNK         0.0454 
     81 H81        19.0264  -23.5297  -47.0866 H         1 UNK         0.0851 
     82 H82        19.7786  -25.0735  -47.4900 H         1 UNK         0.0851 
     83 H83        20.7741  -23.6815  -47.0891 H         1 UNK         0.0851 
     84 H84        17.9381  -25.4410  -45.8337 H         1 UNK         0.2976 
     85 H85        20.6515  -27.3602  -42.9884 H         1 UNK         0.3116 
     86 H86        21.7583  -29.1571  -41.2035 H         1 UNK         0.0646 
     87 H87        19.9901  -26.7272  -40.6235 H         1 UNK         0.0847 
     88 H88        19.4487  -28.3497  -41.0544 H         1 UNK         0.0847 
     89 H89        20.2529  -28.0761  -39.5225 H         1 UNK         0.0847 
     90 H90        22.9445  -25.9563  -41.7872 H         1 UNK         0.3040 
     91 H91        24.3699  -25.5023  -39.3417 H         1 UNK         0.1015 
     92 H92        24.9222  -24.5380  -42.2046 H         1 UNK         0.0786 
     93 H93        25.6650  -23.8841  -40.7507 H         1 UNK         0.0786 
     94 H94        23.9372  -23.7028  -41.0029 H         1 UNK         0.0786 
     95 H95        24.9762  -27.6496  -42.0463 H         1 UNK         0.3172 
     96 H96        27.6267  -28.4376  -40.8768 H         1 UNK         0.0595 
     97 H97        26.7992  -28.3871  -43.8291 H         1 UNK         0.0839 
     98 H98        28.3134  -29.0242  -43.1990 H         1 UNK         0.0839 
     99 H99        27.9634  -27.3086  -43.0619 H         1 UNK         0.0839 
    100 H100       24.6486  -29.5065  -42.5910 H         1 UNK         0.2998 
    101 H101       25.3447  -32.3129  -42.4357 H         1 UNK         0.0822 
    102 H102       23.1466  -32.6050  -43.5422 H         1 UNK         0.0787 
    103 H103       22.7147  -30.9356  -43.2125 H         1 UNK         0.0787 
    104 H104       24.0356  -31.3085  -44.3230 H         1 UNK         0.0787 
    105 H105       23.8380  -30.1746  -40.2160 H         1 UNK         0.3055 
    106 H106       22.8371  -30.2992  -38.2708 H         1 UNK         0.1106 
    107 H107       24.5225  -32.0051  -37.6209 H         1 UNK         0.0828 
    108 H108       22.9784  -32.2871  -36.8325 H         1 UNK         0.0828 
    109 H109       23.4594  -33.2939  -38.1856 H         1 UNK         0.0828 
    110 H110       21.7625  -32.9553  -40.3516 H         1 UNK         0.2931 
    111 H111       19.8226  -33.7845  -40.9585 H         1 UNK         0.0412 
    112 H112       17.1987  -34.0261  -39.8942 H         1 UNK         0.3472 
    113 H113       17.3675  -34.8040  -38.3443 H         1 UNK         0.3472 
    114 H114       18.5252  -31.1721  -40.0269 H         1 UNK         0.0970 
    115 H115       17.7011  -32.3804  -40.9561 H         1 UNK         0.0970 
    116 H116       18.9309  -33.1183  -43.7169 H         1 UNK         0.0612 
    117 H117       17.4163  -32.3962  -43.2228 H         1 UNK         0.0612 
@<TRIPOS>BOND
     1    1    2 1    
     2    1   62 1    
     3    1   63 1    
     4    1   64 1    
     5    2    3 2    
     6    2    4 am   BACKBONE|DICT|INTERRES
     7    4    5 1    
     8    4   65 1    
     9    5    6 1    
    10    5   25 1    
    11    5   66 1    
    12    6    7 1    
    13    6   67 1    
    14    6   68 1    
    15    7    8 1    
    16    8    9 1    
    17    8   69 1    
    18    8   70 1    
    19    9   10 ar   
    20    9   14 ar   
    21   10   11 ar   
    22   10   71 1    
    23   11   12 ar   
    24   11   61 1    
    25   12   13 ar   
    26   12   72 1    
    27   13   14 ar   
    28   13   15 1    
    29   14   73 1    
    30   15   16 1    
    31   15   74 1    
    32   15   75 1    
    33   16   17 1    
    34   17   18 1    
    35   17   76 1    
    36   17   77 1    
    37   18   19 1    
    38   18   27 1    
    39   18   78 1    
    40   19   20 am   BACKBONE|DICT|INTERRES
    41   19   79 1    
    42   20   21 2    
    43   20   22 1    
    44   22   23 1    
    45   22   24 1    
    46   22   80 1    
    47   23   81 1    
    48   23   82 1    
    49   23   83 1    
    50   24   25 am   BACKBONE|DICT|INTERRES
    51   24   84 1    
    52   25   26 2    
    53   27   28 2    
    54   27   29 am   BACKBONE|DICT|INTERRES
    55   29   30 1    
    56   29   85 1    
    57   30   31 1    
    58   30   32 1    
    59   30   86 1    
    60   31   87 1    
    61   31   88 1    
    62   31   89 1    
    63   32   33 2    
    64   32   34 am   BACKBONE|DICT|INTERRES
    65   34   35 1    
    66   34   90 1    
    67   35   36 1    
    68   35   37 1    
    69   35   91 1    
    70   36   92 1    
    71   36   93 1    
    72   36   94 1    
    73   37   38 2    
    74   37   39 am   BACKBONE|DICT|INTERRES
    75   39   40 1    
    76   39   95 1    
    77   40   41 1    
    78   40   42 1    
    79   40   96 1    
    80   41   97 1    
    81   41   98 1    
    82   41   99 1    
    83   42   43 2    
    84   42   44 am   BACKBONE|DICT|INTERRES
    85   44   45 1    
    86   44  100 1    
    87   45   46 1    
    88   45   47 1    
    89   45  101 1    
    90   46  102 1    
    91   46  103 1    
    92   46  104 1    
    93   47   48 2    
    94   47   49 am   BACKBONE|DICT|INTERRES
    95   49   50 1    
    96   49  105 1    
    97   50   51 1    
    98   50   52 1    
    99   50  106 1    
   100   51  107 1    
   101   51  108 1    
   102   51  109 1    
   103   52   53 2    
   104   52   54 am   BACKBONE|DICT|INTERRES
   105   54   55 1    
   106   54  110 1    
   107   55   56 1    
   108   55   59 1    
   109   55  111 1    
   110   56   57 am   BACKBONE|DICT|INTERRES
   111   56   58 2    
   112   57  112 1    
   113   57  113 1    
   114   59   60 1    
   115   59  114 1    
   116   59  115 1    
   117   60   61 1    
   118   61  116 1    
   119   61  117 1    
@<TRIPOS>SUBSTRUCTURE
     1 UNK         1 GROUP             0       ****    0 ROOT    
