@<TRIPOS>MOLECULE
3R8
117   119    1
SMALL
USER_CHARGES


@<TRIPOS>ATOM
      1 CA         18.8359  -26.5687  -38.6573 C.3       0 UNK        -0.2013 
      2 C          18.0404  -26.4845  -39.9511 C.2       0 UNK         0.4866 
      3 O          17.0848  -25.7118  -40.0346 O.2       0 UNK        -0.5176 
      4 N          18.4222  -27.2809  -40.9545 N.am      1 UNK        -0.4884 
      5 CA         17.8350  -27.2886  -42.2954 C.3       1 UNK         0.0853 
      6 C6         17.9450  -28.6979  -42.9279 C.3       10 UNK        -0.0849 
      7 S7         16.6099  -29.0573  -44.1326 S.3       10 UNK        -0.2776 
      8 C8         17.4879  -29.2730  -45.7236 C.3       10 UNK         0.0316 
      9 C9         18.7207  -30.1532  -45.5884 C.ar      10 UNK        -0.0863 
     10 C10        18.6006  -31.4759  -45.1552 C.ar      10 UNK        -0.1009 
     11 C11        19.7400  -32.2418  -44.8969 C.ar      10 UNK        -0.0712 
     12 C12        21.0052  -31.6891  -45.1182 C.ar      10 UNK        -0.0894 
     13 C13        21.1392  -30.3716  -45.5701 C.ar      10 UNK        -0.0745 
     14 C14        19.9896  -29.6154  -45.8182 C.ar      10 UNK        -0.0972 
     15 C15        22.5264  -29.7689  -45.7629 C.3       10 UNK         0.0209 
     16 S16        22.7306  -28.1797  -44.8889 S.3       10 UNK        -0.2568 
     17 C17        22.5651  -26.9956  -46.2731 C.3       10 UNK        -0.0983 
     18 CA         22.1257  -25.5579  -45.8807 C.3       3 UNK         0.0876 
     19 N          20.7621  -25.4719  -45.3651 N.am      3 UNK        -0.4424 
     20 C          19.6536  -25.4466  -46.1078 C.2       2 UNK         0.4918 
     21 O          19.6407  -25.6969  -47.3142 O.2       2 UNK        -0.4875 
     22 CA         18.3480  -25.0445  -45.3888 C.3       2 UNK         0.0481 
     23 CB         17.1829  -24.8205  -46.3709 C.3       2 UNK        -0.1831 
     24 N          17.9243  -26.0135  -44.3782 N.am      2 UNK        -0.4498 
     25 C          18.4876  -26.2041  -43.1797 C.2       1 UNK         0.5027 
     26 O          19.4685  -25.5685  -42.7821 O.2       1 UNK        -0.4969 
     27 C          23.0650  -24.8923  -44.8619 C.2       3 UNK         0.5005 
     28 O          22.7103  -24.7779  -43.6851 O.2       3 UNK        -0.5279 
     29 N          24.2609  -24.4912  -45.3160 N.am      4 UNK        -0.4463 
     30 CA         25.2943  -23.8513  -44.4903 C.3       4 UNK         0.0283 
     31 CB         26.4388  -23.3650  -45.3942 C.3       4 UNK        -0.1875 
     32 C          25.8441  -24.7503  -43.3664 C.2       4 UNK         0.4949 
     33 O          26.3158  -24.2320  -42.3545 O.2       4 UNK        -0.5039 
     34 N          25.7629  -26.0739  -43.5567 N.am      5 UNK        -0.4663 
     35 CA         26.1464  -27.0826  -42.5686 C.3       5 UNK         0.0242 
     36 CB         26.4582  -28.3984  -43.3018 C.3       5 UNK        -0.1982 
     37 C          25.0766  -27.3179  -41.4863 C.2       5 UNK         0.5017 
     38 O          25.3901  -27.9629  -40.4850 O.2       5 UNK        -0.5012 
     39 N          23.8379  -26.8479  -41.7106 N.am      6 UNK        -0.4439 
     40 CA         22.6174  -27.0178  -40.9032 C.3       6 UNK         0.0297 
     41 CB         22.7777  -26.3999  -39.5010 C.3       6 UNK        -0.2006 
     42 C          22.0866  -28.4646  -40.8179 C.2       6 UNK         0.4892 
     43 O          20.8728  -28.6541  -40.9015 O.2       6 UNK        -0.5089 
     44 N          22.9965  -29.4384  -40.6758 N.am      7 UNK        -0.4243 
     45 CA         22.8026  -30.8909  -40.6119 C.3       7 UNK         0.0196 
     46 CB         22.1073  -31.4021  -41.8908 C.3       7 UNK        -0.2007 
     47 C          22.0929  -31.3793  -39.3342 C.2       7 UNK         0.5020 
     48 O          21.5901  -30.5854  -38.5366 O.2       7 UNK        -0.5147 
     49 N          22.0923  -32.7057  -39.1580 N.am      8 UNK        -0.4734 
     50 CA         21.4640  -33.4189  -38.0397 C.3       8 UNK         0.0238 
     51 CB         22.5585  -33.9115  -37.0736 C.3       8 UNK        -0.1912 
     52 C          20.5689  -34.5669  -38.5441 C.2       8 UNK         0.5038 
     53 O          20.3290  -35.5257  -37.8087 O.2       8 UNK        -0.5046 
     54 N          20.1027  -34.4565  -39.7943 N.am      9 UNK        -0.4200 
     55 CA         19.2240  -35.4166  -40.4806 C.3       9 UNK         0.0839 
     56 C          17.7450  -35.4319  -39.9915 C.2       9 UNK         0.5513 
     57 N          17.3039  -34.4919  -39.1638 N.am      9 UNK        -0.7519 
     58 O          16.9875  -36.3254  -40.3616 O.2       9 UNK        -0.4960 
     59 C59        19.3281  -35.2643  -42.0232 C.3       10 UNK        -0.0876 
     60 S60        19.0393  -33.5532  -42.5906 S.3       10 UNK        -0.2414 
     61 C61        19.5994  -33.6411  -44.3189 C.3       10 UNK         0.0169 
     62 H62        19.3944  -25.6465  -38.4999 H         1 UNK         0.0903 
     63 H63        18.1645  -26.7106  -37.8108 H         1 UNK         0.0903 
     64 H64        19.5410  -27.4001  -38.6697 H         1 UNK         0.0903 
     65 H65        19.2703  -27.8406  -40.8558 H         1 UNK         0.3096 
     66 H66        16.7768  -27.0345  -42.1981 H         1 UNK         0.1121 
     67 H67        18.9392  -28.8554  -43.3476 H         1 UNK         0.0849 
     68 H68        17.8501  -29.4590  -42.1513 H         1 UNK         0.0849 
     69 H69        16.8057  -29.7205  -46.4477 H         1 UNK         0.0865 
     70 H70        17.7544  -28.2937  -46.1235 H         1 UNK         0.0865 
     71 H71        17.6210  -31.8885  -44.9551 H         1 UNK         0.1346 
     72 H72        21.8879  -32.2775  -44.9086 H         1 UNK         0.1412 
     73 H73        20.0842  -28.5890  -46.1430 H         1 UNK         0.1426 
     74 H74        22.7249  -29.6481  -46.8285 H         1 UNK         0.0716 
     75 H75        23.2905  -30.4518  -45.3887 H         1 UNK         0.0716 
     76 H76        21.8644  -27.3962  -47.0061 H         1 UNK         0.0695 
     77 H77        23.5258  -26.9597  -46.7892 H         1 UNK         0.0695 
     78 H78        22.1658  -24.9397  -46.7808 H         1 UNK         0.0983 
     79 H79        20.6975  -25.2913  -44.3651 H         1 UNK         0.3095 
     80 H80        18.5398  -24.0932  -44.8882 H         1 UNK         0.0454 
     81 H81        17.4440  -24.0754  -47.1238 H         1 UNK         0.0851 
     82 H82        16.2932  -24.4570  -45.8565 H         1 UNK         0.0851 
     83 H83        16.9152  -25.7366  -46.8989 H         1 UNK         0.0851 
     84 H84        17.1443  -26.6061  -44.6273 H         1 UNK         0.2976 
     85 H85        24.4833  -24.6237  -46.2929 H         1 UNK         0.3116 
     86 H86        24.8426  -22.9786  -44.0136 H         1 UNK         0.0646 
     87 H87        26.9196  -24.1915  -45.9188 H         1 UNK         0.0847 
     88 H88        26.0835  -22.6530  -46.1393 H         1 UNK         0.0847 
     89 H89        27.2091  -22.8596  -44.8098 H         1 UNK         0.0847 
     90 H90        25.3629  -26.4108  -44.4207 H         1 UNK         0.3040 
     91 H91        27.0544  -26.7510  -42.0594 H         1 UNK         0.1015 
     92 H92        26.7929  -29.1661  -42.6026 H         1 UNK         0.0786 
     93 H93        27.2523  -28.2653  -44.0368 H         1 UNK         0.0786 
     94 H94        25.5823  -28.7912  -43.8198 H         1 UNK         0.0786 
     95 H95        23.6900  -26.3245  -42.5670 H         1 UNK         0.3172 
     96 H96        21.8512  -26.4417  -41.4251 H         1 UNK         0.0595 
     97 H97        23.5220  -26.9262  -38.9032 H         1 UNK         0.0839 
     98 H98        21.8384  -26.4395  -38.9497 H         1 UNK         0.0839 
     99 H99        23.0737  -25.3527  -39.5618 H         1 UNK         0.0839 
    100 H100       23.9561  -29.1229  -40.5573 H         1 UNK         0.2998 
    101 H101       23.8089  -31.3121  -40.5881 H         1 UNK         0.0822 
    102 H102       22.1227  -32.4904  -41.9523 H         1 UNK         0.0787 
    103 H103       22.6084  -31.0240  -42.7816 H         1 UNK         0.0787 
    104 H104       21.0634  -31.0898  -41.9420 H         1 UNK         0.0787 
    105 H105       22.5472  -33.2873  -39.8494 H         1 UNK         0.3055 
    106 H106       20.8027  -32.7456  -37.4896 H         1 UNK         0.1106 
    107 H107       23.1680  -33.0834  -36.7117 H         1 UNK         0.0828 
    108 H108       22.1238  -34.3954  -36.1979 H         1 UNK         0.0828 
    109 H109       23.2222  -34.6331  -37.5511 H         1 UNK         0.0828 
    110 H110       20.3092  -33.6159  -40.3136 H         1 UNK         0.2931 
    111 H111       19.6072  -36.4108  -40.2427 H         1 UNK         0.0412 
    112 H112       16.3458  -34.5184  -38.8514 H         1 UNK         0.3472 
    113 H113       17.9145  -33.7517  -38.8589 H         1 UNK         0.3472 
    114 H114       20.3262  -35.5671  -42.3434 H         1 UNK         0.0970 
    115 H115       18.6375  -35.9363  -42.5365 H         1 UNK         0.0970 
    116 H116       20.5508  -34.1729  -44.3690 H         1 UNK         0.0612 
    117 H117       18.8832  -34.2174  -44.9062 H         1 UNK         0.0612 
@<TRIPOS>BOND
     1    1    2 1    
     2    1   62 1    
     3    1   63 1    
     4    1   64 1    
     5    2    3 2    
     6    2    4 am   BACKBONE|DICT|INTERRES
     7    4    5 1    
     8    4   65 1    
     9    5    6 1    
    10    5   25 1    
    11    5   66 1    
    12    6    7 1    
    13    6   67 1    
    14    6   68 1    
    15    7    8 1    
    16    8    9 1    
    17    8   69 1    
    18    8   70 1    
    19    9   10 ar   
    20    9   14 ar   
    21   10   11 ar   
    22   10   71 1    
    23   11   12 ar   
    24   11   61 1    
    25   12   13 ar   
    26   12   72 1    
    27   13   14 ar   
    28   13   15 1    
    29   14   73 1    
    30   15   16 1    
    31   15   74 1    
    32   15   75 1    
    33   16   17 1    
    34   17   18 1    
    35   17   76 1    
    36   17   77 1    
    37   18   19 1    
    38   18   27 1    
    39   18   78 1    
    40   19   20 am   BACKBONE|DICT|INTERRES
    41   19   79 1    
    42   20   21 2    
    43   20   22 1    
    44   22   23 1    
    45   22   24 1    
    46   22   80 1    
    47   23   81 1    
    48   23   82 1    
    49   23   83 1    
    50   24   25 am   BACKBONE|DICT|INTERRES
    51   24   84 1    
    52   25   26 2    
    53   27   28 2    
    54   27   29 am   BACKBONE|DICT|INTERRES
    55   29   30 1    
    56   29   85 1    
    57   30   31 1    
    58   30   32 1    
    59   30   86 1    
    60   31   87 1    
    61   31   88 1    
    62   31   89 1    
    63   32   33 2    
    64   32   34 am   BACKBONE|DICT|INTERRES
    65   34   35 1    
    66   34   90 1    
    67   35   36 1    
    68   35   37 1    
    69   35   91 1    
    70   36   92 1    
    71   36   93 1    
    72   36   94 1    
    73   37   38 2    
    74   37   39 am   BACKBONE|DICT|INTERRES
    75   39   40 1    
    76   39   95 1    
    77   40   41 1    
    78   40   42 1    
    79   40   96 1    
    80   41   97 1    
    81   41   98 1    
    82   41   99 1    
    83   42   43 2    
    84   42   44 am   BACKBONE|DICT|INTERRES
    85   44   45 1    
    86   44  100 1    
    87   45   46 1    
    88   45   47 1    
    89   45  101 1    
    90   46  102 1    
    91   46  103 1    
    92   46  104 1    
    93   47   48 2    
    94   47   49 am   BACKBONE|DICT|INTERRES
    95   49   50 1    
    96   49  105 1    
    97   50   51 1    
    98   50   52 1    
    99   50  106 1    
   100   51  107 1    
   101   51  108 1    
   102   51  109 1    
   103   52   53 2    
   104   52   54 am   BACKBONE|DICT|INTERRES
   105   54   55 1    
   106   54  110 1    
   107   55   56 1    
   108   55   59 1    
   109   55  111 1    
   110   56   57 am   BACKBONE|DICT|INTERRES
   111   56   58 2    
   112   57  112 1    
   113   57  113 1    
   114   59   60 1    
   115   59  114 1    
   116   59  115 1    
   117   60   61 1    
   118   61  116 1    
   119   61  117 1    
@<TRIPOS>SUBSTRUCTURE
     1 UNK         1 GROUP             0       ****    0 ROOT    
