@<TRIPOS>MOLECULE
3R8
117   119    1
SMALL
USER_CHARGES


@<TRIPOS>ATOM
      1 CA         19.9949  -25.9266  -48.7709 C.3       0 UNK        -0.2013 
      2 C          19.7111  -26.4658  -47.3775 C.2       0 UNK         0.4866 
      3 O          20.6396  -26.8556  -46.6691 O.2       0 UNK        -0.5176 
      4 N          18.4368  -26.4760  -46.9659 N.am      1 UNK        -0.4884 
      5 CA         17.9508  -26.9945  -45.6779 C.3       1 UNK         0.0853 
      6 C6         16.4716  -27.4532  -45.7714 C.3       10 UNK        -0.0849 
      7 S7         16.2904  -28.8698  -46.9100 S.3       10 UNK        -0.2776 
      8 C8         16.1049  -30.2716  -45.7556 C.3       10 UNK         0.0316 
      9 C9         17.2171  -30.3301  -44.7151 C.ar      10 UNK        -0.0863 
     10 C10        18.5318  -30.6127  -45.0962 C.ar      10 UNK        -0.1009 
     11 C11        19.5555  -30.6628  -44.1424 C.ar      10 UNK        -0.0712 
     12 C12        19.2561  -30.3988  -42.8015 C.ar      10 UNK        -0.0894 
     13 C13        17.9435  -30.1267  -42.4062 C.ar      10 UNK        -0.0745 
     14 C14        16.9290  -30.0993  -43.3670 C.ar      10 UNK        -0.0972 
     15 C15        17.6052  -29.8808  -40.9431 C.3       10 UNK         0.0209 
     16 S16        17.2208  -28.1274  -40.6397 S.3       10 UNK        -0.2568 
     17 C17        18.6029  -27.6064  -39.5697 C.3       10 UNK        -0.0983 
     18 CA         19.8738  -27.2034  -40.3551 C.3       3 UNK         0.0876 
     19 N          19.5924  -26.2047  -41.3928 N.am      3 UNK        -0.4424 
     20 C          20.4964  -25.6876  -42.2323 C.2       2 UNK         0.4918 
     21 O          21.6899  -25.9895  -42.2245 O.2       2 UNK        -0.4875 
     22 CA         19.9610  -24.7283  -43.3027 C.3       2 UNK         0.0481 
     23 CB         21.0502  -23.7810  -43.8372 C.3       2 UNK        -0.1831 
     24 N          19.4490  -25.5302  -44.4071 N.am      2 UNK        -0.4498 
     25 C          18.2049  -26.0093  -44.5144 C.2       1 UNK         0.5027 
     26 O          17.2952  -25.7038  -43.7410 O.2       1 UNK        -0.4969 
     27 C          20.9722  -26.7286  -39.3803 C.2       3 UNK         0.5005 
     28 O          21.0087  -25.5461  -39.0296 O.2       3 UNK        -0.5279 
     29 N          21.8588  -27.6523  -38.9881 N.am      4 UNK        -0.4463 
     30 CA         23.0622  -27.4741  -38.1641 C.3       4 UNK         0.0283 
     31 CB         22.7697  -26.7949  -36.8117 C.3       4 UNK        -0.1875 
     32 C          24.2163  -26.7843  -38.9118 C.2       4 UNK         0.4949 
     33 O          25.3510  -27.2452  -38.7958 O.2       4 UNK        -0.5039 
     34 N          23.9229  -25.7455  -39.7065 N.am      5 UNK        -0.4663 
     35 CA         24.8838  -25.0789  -40.5940 C.3       5 UNK         0.0242 
     36 CB         24.2785  -23.7732  -41.1333 C.3       5 UNK        -0.1982 
     37 C          25.3409  -25.9980  -41.7407 C.2       5 UNK         0.5017 
     38 O          26.5412  -26.1160  -41.9862 O.2       5 UNK        -0.5012 
     39 N          24.3754  -26.6803  -42.3692 N.am      6 UNK        -0.4439 
     40 CA         24.5719  -27.7582  -43.3418 C.3       6 UNK         0.0297 
     41 CB         23.5250  -27.6115  -44.4629 C.3       6 UNK        -0.2006 
     42 C          24.4909  -29.1469  -42.6731 C.2       6 UNK         0.4892 
     43 O          24.2261  -30.1321  -43.3632 O.2       6 UNK        -0.5089 
     44 N          24.7082  -29.2015  -41.3488 N.am      7 UNK        -0.4243 
     45 CA         24.5760  -30.3646  -40.4659 C.3       7 UNK         0.0196 
     46 CB         25.6445  -31.4325  -40.7977 C.3       7 UNK        -0.2007 
     47 C          23.1270  -30.8926  -40.4419 C.2       7 UNK         0.5020 
     48 O          22.1913  -30.0891  -40.3935 O.2       7 UNK        -0.5147 
     49 N          22.9631  -32.2178  -40.4546 N.am      8 UNK        -0.4734 
     50 CA         21.6856  -32.9087  -40.5824 C.3       8 UNK         0.0238 
     51 CB         21.3987  -33.7058  -39.2991 C.3       8 UNK        -0.1912 
     52 C          21.7941  -33.8349  -41.7969 C.2       8 UNK         0.5038 
     53 O          22.7535  -34.6059  -41.8818 O.2       8 UNK        -0.5046 
     54 N          20.8230  -33.7344  -42.7084 N.am      9 UNK        -0.4200 
     55 CA         20.7536  -34.5215  -43.9485 C.3       9 UNK         0.0839 
     56 C          20.0634  -35.9067  -43.7734 C.2       9 UNK         0.5513 
     57 N          19.5146  -36.2419  -42.6114 N.am      9 UNK        -0.7519 
     58 O          20.0365  -36.7008  -44.7101 O.2       9 UNK        -0.4960 
     59 C59        20.0963  -33.6968  -45.0858 C.3       10 UNK        -0.0876 
     60 S60        21.1676  -32.3613  -45.7346 S.3       10 UNK        -0.2414 
     61 C61        20.9923  -30.9847  -44.5417 C.3       10 UNK         0.0169 
     62 H62        20.6613  -25.0666  -48.7115 H         1 UNK         0.0903 
     63 H63        20.4794  -26.6921  -49.3763 H         1 UNK         0.0903 
     64 H64        19.0838  -25.6162  -49.2821 H         1 UNK         0.0903 
     65 H65        17.7189  -26.1268  -47.5851 H         1 UNK         0.3096 
     66 H66        18.5473  -27.8739  -45.4283 H         1 UNK         0.1121 
     67 H67        15.8378  -26.6362  -46.1202 H         1 UNK         0.0849 
     68 H68        16.0800  -27.7364  -44.7927 H         1 UNK         0.0849 
     69 H69        15.1278  -30.2044  -45.2745 H         1 UNK         0.0865 
     70 H70        16.0984  -31.2016  -46.3258 H         1 UNK         0.0865 
     71 H71        18.7567  -30.7922  -46.1387 H         1 UNK         0.1346 
     72 H72        20.0460  -30.4079  -42.0634 H         1 UNK         0.1412 
     73 H73        15.9142  -29.8839  -43.0604 H         1 UNK         0.1426 
     74 H74        18.4187  -30.2152  -40.2976 H         1 UNK         0.0716 
     75 H75        16.7368  -30.4819  -40.6695 H         1 UNK         0.0716 
     76 H76        18.2479  -26.7642  -38.9721 H         1 UNK         0.0695 
     77 H77        18.8228  -28.4049  -38.8584 H         1 UNK         0.0695 
     78 H78        20.2472  -28.0875  -40.8766 H         1 UNK         0.0983 
     79 H79        18.6230  -25.9401  -41.4986 H         1 UNK         0.3095 
     80 H80        19.1634  -24.1215  -42.8691 H         1 UNK         0.0454 
     81 H81        21.8832  -24.3253  -44.2846 H         1 UNK         0.0851 
     82 H82        21.4548  -23.1636  -43.0347 H         1 UNK         0.0851 
     83 H83        20.6497  -23.1059  -44.5933 H         1 UNK         0.0851 
     84 H84        20.1310  -25.8724  -45.0792 H         1 UNK         0.2976 
     85 H85        21.7866  -28.5779  -39.4114 H         1 UNK         0.3116 
     86 H86        23.4001  -28.4873  -37.9415 H         1 UNK         0.0646 
     87 H87        22.4988  -25.7452  -36.9257 H         1 UNK         0.0847 
     88 H88        23.6489  -26.8280  -36.1672 H         1 UNK         0.0847 
     89 H89        21.9602  -27.2963  -36.2816 H         1 UNK         0.0847 
     90 H90        22.9574  -25.4338  -39.7385 H         1 UNK         0.3040 
     91 H91        25.7672  -24.8246  -40.0038 H         1 UNK         0.1015 
     92 H92        23.3743  -23.9541  -41.7137 H         1 UNK         0.0786 
     93 H93        24.9850  -23.2556  -41.7836 H         1 UNK         0.0786 
     94 H94        24.0242  -23.0904  -40.3225 H         1 UNK         0.0786 
     95 H95        23.4040  -26.4724  -42.1347 H         1 UNK         0.3172 
     96 H96        25.5628  -27.6727  -43.7916 H         1 UNK         0.0595 
     97 H97        23.7037  -28.3282  -45.2653 H         1 UNK         0.0839 
     98 H98        23.5521  -26.6168  -44.9079 H         1 UNK         0.0839 
     99 H99        22.5126  -27.7841  -44.0955 H         1 UNK         0.0839 
    100 H100       24.9223  -28.3310  -40.8820 H         1 UNK         0.2998 
    101 H101       24.7796  -30.0032  -39.4573 H         1 UNK         0.0822 
    102 H102       25.6736  -32.2157  -40.0392 H         1 UNK         0.0787 
    103 H103       25.4651  -31.9086  -41.7627 H         1 UNK         0.0787 
    104 H104       26.6405  -30.9905  -40.8303 H         1 UNK         0.0787 
    105 H105       23.7799  -32.8066  -40.5522 H         1 UNK         0.3055 
    106 H106       20.8726  -32.1972  -40.7384 H         1 UNK         0.1106 
    107 H107       20.4482  -34.2357  -39.3722 H         1 UNK         0.0828 
    108 H108       22.1728  -34.4482  -39.1000 H         1 UNK         0.0828 
    109 H109       21.3369  -33.0478  -38.4322 H         1 UNK         0.0828 
    110 H110       20.0610  -33.0905  -42.5582 H         1 UNK         0.2931 
    111 H111       21.7730  -34.7510  -44.2656 H         1 UNK         0.0412 
    112 H112       19.5351  -35.6064  -41.8307 H         1 UNK         0.3472 
    113 H113       19.0775  -37.1454  -42.5152 H         1 UNK         0.3472 
    114 H114       19.1300  -33.3017  -44.7717 H         1 UNK         0.0970 
    115 H115       19.8779  -34.3383  -45.9418 H         1 UNK         0.0970 
    116 H116       21.5933  -31.2161  -43.6612 H         1 UNK         0.0612 
    117 H117       21.4370  -30.0906  -44.9804 H         1 UNK         0.0612 
@<TRIPOS>BOND
     1    1    2 1    
     2    1   62 1    
     3    1   63 1    
     4    1   64 1    
     5    2    3 2    
     6    2    4 am   BACKBONE|DICT|INTERRES
     7    4    5 1    
     8    4   65 1    
     9    5    6 1    
    10    5   25 1    
    11    5   66 1    
    12    6    7 1    
    13    6   67 1    
    14    6   68 1    
    15    7    8 1    
    16    8    9 1    
    17    8   69 1    
    18    8   70 1    
    19    9   10 ar   
    20    9   14 ar   
    21   10   11 ar   
    22   10   71 1    
    23   11   12 ar   
    24   11   61 1    
    25   12   13 ar   
    26   12   72 1    
    27   13   14 ar   
    28   13   15 1    
    29   14   73 1    
    30   15   16 1    
    31   15   74 1    
    32   15   75 1    
    33   16   17 1    
    34   17   18 1    
    35   17   76 1    
    36   17   77 1    
    37   18   19 1    
    38   18   27 1    
    39   18   78 1    
    40   19   20 am   BACKBONE|DICT|INTERRES
    41   19   79 1    
    42   20   21 2    
    43   20   22 1    
    44   22   23 1    
    45   22   24 1    
    46   22   80 1    
    47   23   81 1    
    48   23   82 1    
    49   23   83 1    
    50   24   25 am   BACKBONE|DICT|INTERRES
    51   24   84 1    
    52   25   26 2    
    53   27   28 2    
    54   27   29 am   BACKBONE|DICT|INTERRES
    55   29   30 1    
    56   29   85 1    
    57   30   31 1    
    58   30   32 1    
    59   30   86 1    
    60   31   87 1    
    61   31   88 1    
    62   31   89 1    
    63   32   33 2    
    64   32   34 am   BACKBONE|DICT|INTERRES
    65   34   35 1    
    66   34   90 1    
    67   35   36 1    
    68   35   37 1    
    69   35   91 1    
    70   36   92 1    
    71   36   93 1    
    72   36   94 1    
    73   37   38 2    
    74   37   39 am   BACKBONE|DICT|INTERRES
    75   39   40 1    
    76   39   95 1    
    77   40   41 1    
    78   40   42 1    
    79   40   96 1    
    80   41   97 1    
    81   41   98 1    
    82   41   99 1    
    83   42   43 2    
    84   42   44 am   BACKBONE|DICT|INTERRES
    85   44   45 1    
    86   44  100 1    
    87   45   46 1    
    88   45   47 1    
    89   45  101 1    
    90   46  102 1    
    91   46  103 1    
    92   46  104 1    
    93   47   48 2    
    94   47   49 am   BACKBONE|DICT|INTERRES
    95   49   50 1    
    96   49  105 1    
    97   50   51 1    
    98   50   52 1    
    99   50  106 1    
   100   51  107 1    
   101   51  108 1    
   102   51  109 1    
   103   52   53 2    
   104   52   54 am   BACKBONE|DICT|INTERRES
   105   54   55 1    
   106   54  110 1    
   107   55   56 1    
   108   55   59 1    
   109   55  111 1    
   110   56   57 am   BACKBONE|DICT|INTERRES
   111   56   58 2    
   112   57  112 1    
   113   57  113 1    
   114   59   60 1    
   115   59  114 1    
   116   59  115 1    
   117   60   61 1    
   118   61  116 1    
   119   61  117 1    
@<TRIPOS>SUBSTRUCTURE
     1 UNK         1 GROUP             0       ****    0 ROOT    
