@<TRIPOS>MOLECULE
3R8
117   119    1
SMALL
USER_CHARGES


@<TRIPOS>ATOM
      1 CA         17.2887  -24.4920  -48.8986 C.3       0 UNK        -0.2013 
      2 C          18.5477  -24.7249  -48.0767 C.2       0 UNK         0.4866 
      3 O          19.2413  -23.7670  -47.7328 O.2       0 UNK        -0.5176 
      4 N          18.8537  -25.9905  -47.7676 N.am      1 UNK        -0.4884 
      5 CA         19.9760  -26.3990  -46.9173 C.3       1 UNK         0.0853 
      6 C6         20.3588  -27.8835  -47.1647 C.3       10 UNK        -0.0849 
      7 S7         18.9965  -29.0747  -46.8878 S.3       10 UNK        -0.2776 
      8 C8         19.5224  -29.8194  -45.3129 C.3       10 UNK         0.0316 
      9 C9         18.3465  -30.3092  -44.4816 C.ar      10 UNK        -0.0863 
     10 C10        18.2301  -31.6609  -44.1479 C.ar      10 UNK        -0.1009 
     11 C11        17.2066  -32.0975  -43.3015 C.ar      10 UNK        -0.0712 
     12 C12        16.2925  -31.1696  -42.7924 C.ar      10 UNK        -0.0894 
     13 C13        16.3897  -29.8149  -43.1256 C.ar      10 UNK        -0.0745 
     14 C14        17.4094  -29.3970  -43.9880 C.ar      10 UNK        -0.0972 
     15 C15        15.3876  -28.8173  -42.5504 C.3       10 UNK         0.0209 
     16 S16        16.1545  -27.2900  -41.9057 S.3       10 UNK        -0.2568 
     17 C17        17.2115  -27.9137  -40.5517 C.3       10 UNK        -0.0983 
     18 CA         18.6855  -28.1348  -40.9823 C.3       3 UNK         0.0876 
     19 N          19.2530  -26.9575  -41.6558 N.am      3 UNK        -0.4424 
     20 C          20.3206  -26.9871  -42.4597 C.2       2 UNK         0.4918 
     21 O          21.0269  -27.9813  -42.6233 O.2       2 UNK        -0.4875 
     22 CA         20.6814  -25.6870  -43.1914 C.3       2 UNK         0.0481 
     23 CB         22.0321  -25.1564  -42.6924 C.3       2 UNK        -0.1831 
     24 N          20.7546  -25.9077  -44.6374 N.am      2 UNK        -0.4498 
     25 C          19.6888  -26.0982  -45.4275 C.2       1 UNK         0.5027 
     26 O          18.5249  -26.0526  -45.0193 O.2       1 UNK        -0.4969 
     27 C          19.5378  -28.6608  -39.8070 C.2       3 UNK         0.5005 
     28 O          19.2622  -29.7554  -39.3134 O.2       3 UNK        -0.5279 
     29 N          20.5608  -27.9072  -39.3881 N.am      4 UNK        -0.4463 
     30 CA         21.5282  -28.2883  -38.3672 C.3       4 UNK         0.0283 
     31 CB         20.9957  -27.9028  -36.9755 C.3       4 UNK        -0.1875 
     32 C          22.8599  -27.5887  -38.6568 C.2       4 UNK         0.4949 
     33 O          22.8726  -26.5476  -39.3197 O.2       4 UNK        -0.5039 
     34 N          23.9416  -28.1630  -38.1149 N.am      5 UNK        -0.4663 
     35 CA         25.3256  -27.6718  -38.0724 C.3       5 UNK         0.0242 
     36 CB         25.4269  -26.3793  -37.2359 C.3       5 UNK        -0.1982 
     37 C          26.0135  -27.5083  -39.4393 C.2       5 UNK         0.5017 
     38 O          26.9928  -28.2048  -39.7067 O.2       5 UNK        -0.5012 
     39 N          25.5221  -26.5713  -40.2582 N.am      6 UNK        -0.4439 
     40 CA         26.1492  -26.1427  -41.5120 C.3       6 UNK         0.0297 
     41 CB         25.6994  -24.7101  -41.8418 C.3       6 UNK        -0.2006 
     42 C          25.9145  -27.0955  -42.6983 C.2       6 UNK         0.4892 
     43 O          26.6423  -26.9967  -43.6872 O.2       6 UNK        -0.5089 
     44 N          24.9345  -28.0003  -42.5883 N.am      7 UNK        -0.4243 
     45 CA         24.6761  -29.0619  -43.5594 C.3       7 UNK         0.0196 
     46 CB         23.8008  -28.5586  -44.7247 C.3       7 UNK        -0.2007 
     47 C          24.0720  -30.2685  -42.8378 C.2       7 UNK         0.5020 
     48 O          24.7293  -31.3058  -42.7474 O.2       7 UNK        -0.5147 
     49 N          22.8540  -30.0904  -42.3060 N.am      8 UNK        -0.4734 
     50 CA         22.0301  -31.0871  -41.6109 C.3       8 UNK         0.0238 
     51 CB         22.7333  -31.5812  -40.3260 C.3       8 UNK        -0.1912 
     52 C          21.5706  -32.2393  -42.5284 C.2       8 UNK         0.5038 
     53 O          21.7408  -32.1744  -43.7485 O.2       8 UNK        -0.5046 
     54 N          20.9551  -33.2617  -41.9233 N.am      9 UNK        -0.4200 
     55 CA         20.4137  -34.4433  -42.6156 C.3       9 UNK         0.0839 
     56 C          21.4767  -35.5112  -43.0072 C.2       9 UNK         0.5513 
     57 N          22.7432  -35.3633  -42.6374 N.am      9 UNK        -0.7519 
     58 O          21.1447  -36.4930  -43.6664 O.2       9 UNK        -0.4960 
     59 C59        19.2317  -35.0839  -41.8387 C.3       10 UNK        -0.0876 
     60 S60        17.9354  -33.8959  -41.3419 S.3       10 UNK        -0.2414 
     61 C61        17.0910  -33.5662  -42.9208 C.3       10 UNK         0.0169 
     62 H62        16.7831  -25.4259  -49.1437 H         1 UNK         0.0903 
     63 H63        16.5909  -23.8641  -48.3451 H         1 UNK         0.0903 
     64 H64        17.5371  -23.9861  -49.8312 H         1 UNK         0.0903 
     65 H65        18.2309  -26.7391  -48.0380 H         1 UNK         0.3096 
     66 H66        20.8368  -25.7896  -47.2036 H         1 UNK         0.1121 
     67 H67        20.6825  -27.9980  -48.2005 H         1 UNK         0.0849 
     68 H68        21.2287  -28.1621  -46.5671 H         1 UNK         0.0849 
     69 H69        20.0708  -29.0881  -44.7220 H         1 UNK         0.0865 
     70 H70        20.2247  -30.6286  -45.5194 H         1 UNK         0.0865 
     71 H71        18.9514  -32.3681  -44.5309 H         1 UNK         0.1346 
     72 H72        15.5081  -31.5064  -42.1281 H         1 UNK         0.1412 
     73 H73        17.4990  -28.3503  -44.2458 H         1 UNK         0.1426 
     74 H74        14.8009  -29.2738  -41.7517 H         1 UNK         0.0716 
     75 H75        14.6806  -28.5464  -43.3354 H         1 UNK         0.0716 
     76 H76        16.7801  -28.8400  -40.1670 H         1 UNK         0.0695 
     77 H77        17.1612  -27.1929  -39.7335 H         1 UNK         0.0695 
     78 H78        18.6957  -28.9500  -41.7060 H         1 UNK         0.0983 
     79 H79        18.7129  -26.1071  -41.5849 H         1 UNK         0.3095 
     80 H80        19.9188  -24.9317  -42.9892 H         1 UNK         0.0454 
     81 H81        22.0104  -24.9795  -41.6161 H         1 UNK         0.0851 
     82 H82        22.2905  -24.2117  -43.1708 H         1 UNK         0.0851 
     83 H83        22.8368  -25.8656  -42.8892 H         1 UNK         0.0851 
     84 H84        21.6804  -25.9752  -45.0338 H         1 UNK         0.2976 
     85 H85        20.7749  -27.0419  -39.8679 H         1 UNK         0.3116 
     86 H86        21.6909  -29.3672  -38.4072 H         1 UNK         0.0646 
     87 H87        20.0592  -28.4145  -36.7530 H         1 UNK         0.0847 
     88 H88        20.8173  -26.8296  -36.8969 H         1 UNK         0.0847 
     89 H89        21.7046  -28.1740  -36.1922 H         1 UNK         0.0847 
     90 H90        23.7975  -29.0318  -37.6179 H         1 UNK         0.3040 
     91 H91        25.8921  -28.4383  -37.5402 H         1 UNK         0.1015 
     92 H92        26.4612  -26.0396  -37.1660 H         1 UNK         0.0786 
     93 H93        25.0716  -26.5405  -36.2180 H         1 UNK         0.0786 
     94 H94        24.8459  -25.5620  -37.6640 H         1 UNK         0.0786 
     95 H95        24.6513  -26.1246  -39.9827 H         1 UNK         0.3172 
     96 H96        27.2296  -26.1122  -41.3537 H         1 UNK         0.0595 
     97 H97        24.6169  -24.6268  -41.9086 H         1 UNK         0.0839 
     98 H98        26.1139  -24.3749  -42.7937 H         1 UNK         0.0839 
     99 H99        26.0380  -24.0077  -41.0800 H         1 UNK         0.0839 
    100 H100       24.4074  -28.0403  -41.7270 H         1 UNK         0.2998 
    101 H101       25.6288  -29.3961  -43.9773 H         1 UNK         0.0822 
    102 H102       23.5264  -29.3793  -45.3889 H         1 UNK         0.0787 
    103 H103       24.3335  -27.8208  -45.3246 H         1 UNK         0.0787 
    104 H104       22.8789  -28.0969  -44.3776 H         1 UNK         0.0787 
    105 H105       22.3664  -29.2165  -42.4989 H         1 UNK         0.3055 
    106 H106       21.1214  -30.5617  -41.3183 H         1 UNK         0.1106 
    107 H107       23.1723  -30.7530  -39.7710 H         1 UNK         0.0828 
    108 H108       22.0328  -32.0776  -39.6540 H         1 UNK         0.0828 
    109 H109       23.5338  -32.2880  -40.5470 H         1 UNK         0.0828 
    110 H110       20.8313  -33.2429  -40.9222 H         1 UNK         0.2931 
    111 H111       20.0077  -34.1019  -43.5676 H         1 UNK         0.0412 
    112 H112       23.0324  -34.5517  -42.1157 H         1 UNK         0.3472 
    113 H113       23.4201  -36.0618  -42.9022 H         1 UNK         0.3472 
    114 H114       19.5995  -35.5678  -40.9321 H         1 UNK         0.0970 
    115 H115       18.7662  -35.8755  -42.4294 H         1 UNK         0.0970 
    116 H116       17.4965  -34.1956  -43.7141 H         1 UNK         0.0612 
    117 H117       16.0403  -33.8427  -42.8225 H         1 UNK         0.0612 
@<TRIPOS>BOND
     1    1    2 1    
     2    1   62 1    
     3    1   63 1    
     4    1   64 1    
     5    2    3 2    
     6    2    4 am   BACKBONE|DICT|INTERRES
     7    4    5 1    
     8    4   65 1    
     9    5    6 1    
    10    5   25 1    
    11    5   66 1    
    12    6    7 1    
    13    6   67 1    
    14    6   68 1    
    15    7    8 1    
    16    8    9 1    
    17    8   69 1    
    18    8   70 1    
    19    9   10 ar   
    20    9   14 ar   
    21   10   11 ar   
    22   10   71 1    
    23   11   12 ar   
    24   11   61 1    
    25   12   13 ar   
    26   12   72 1    
    27   13   14 ar   
    28   13   15 1    
    29   14   73 1    
    30   15   16 1    
    31   15   74 1    
    32   15   75 1    
    33   16   17 1    
    34   17   18 1    
    35   17   76 1    
    36   17   77 1    
    37   18   19 1    
    38   18   27 1    
    39   18   78 1    
    40   19   20 am   BACKBONE|DICT|INTERRES
    41   19   79 1    
    42   20   21 2    
    43   20   22 1    
    44   22   23 1    
    45   22   24 1    
    46   22   80 1    
    47   23   81 1    
    48   23   82 1    
    49   23   83 1    
    50   24   25 am   BACKBONE|DICT|INTERRES
    51   24   84 1    
    52   25   26 2    
    53   27   28 2    
    54   27   29 am   BACKBONE|DICT|INTERRES
    55   29   30 1    
    56   29   85 1    
    57   30   31 1    
    58   30   32 1    
    59   30   86 1    
    60   31   87 1    
    61   31   88 1    
    62   31   89 1    
    63   32   33 2    
    64   32   34 am   BACKBONE|DICT|INTERRES
    65   34   35 1    
    66   34   90 1    
    67   35   36 1    
    68   35   37 1    
    69   35   91 1    
    70   36   92 1    
    71   36   93 1    
    72   36   94 1    
    73   37   38 2    
    74   37   39 am   BACKBONE|DICT|INTERRES
    75   39   40 1    
    76   39   95 1    
    77   40   41 1    
    78   40   42 1    
    79   40   96 1    
    80   41   97 1    
    81   41   98 1    
    82   41   99 1    
    83   42   43 2    
    84   42   44 am   BACKBONE|DICT|INTERRES
    85   44   45 1    
    86   44  100 1    
    87   45   46 1    
    88   45   47 1    
    89   45  101 1    
    90   46  102 1    
    91   46  103 1    
    92   46  104 1    
    93   47   48 2    
    94   47   49 am   BACKBONE|DICT|INTERRES
    95   49   50 1    
    96   49  105 1    
    97   50   51 1    
    98   50   52 1    
    99   50  106 1    
   100   51  107 1    
   101   51  108 1    
   102   51  109 1    
   103   52   53 2    
   104   52   54 am   BACKBONE|DICT|INTERRES
   105   54   55 1    
   106   54  110 1    
   107   55   56 1    
   108   55   59 1    
   109   55  111 1    
   110   56   57 am   BACKBONE|DICT|INTERRES
   111   56   58 2    
   112   57  112 1    
   113   57  113 1    
   114   59   60 1    
   115   59  114 1    
   116   59  115 1    
   117   60   61 1    
   118   61  116 1    
   119   61  117 1    
@<TRIPOS>SUBSTRUCTURE
     1 UNK         1 GROUP             0       ****    0 ROOT    
