@<TRIPOS>MOLECULE
3R8
117   119    1
SMALL
USER_CHARGES


@<TRIPOS>ATOM
      1 CA         15.8902  -22.5658  -45.7731 C.3       0 UNK        -0.2013 
      2 C          16.8455  -23.7356  -45.5944 C.2       0 UNK         0.4866 
      3 O          17.7565  -23.9140  -46.4040 O.2       0 UNK        -0.5176 
      4 N          16.6589  -24.5299  -44.5327 N.am      1 UNK        -0.4884 
      5 CA         17.4459  -25.7253  -44.1991 C.3       1 UNK         0.0853 
      6 C6         16.6452  -26.6982  -43.2916 C.3       10 UNK        -0.0849 
      7 S7         15.1948  -27.4060  -44.1445 S.3       10 UNK        -0.2776 
      8 C8         15.3299  -29.1869  -43.7321 C.3       10 UNK         0.0316 
      9 C9         16.5813  -29.8970  -44.2569 C.ar      10 UNK        -0.0863 
     10 C10        17.0688  -31.0159  -43.5706 C.ar      10 UNK        -0.1009 
     11 C11        18.2139  -31.6899  -44.0117 C.ar      10 UNK        -0.0712 
     12 C12        18.8707  -31.2409  -45.1624 C.ar      10 UNK        -0.0894 
     13 C13        18.3881  -30.1358  -45.8679 C.ar      10 UNK        -0.0745 
     14 C14        17.2400  -29.4779  -45.4180 C.ar      10 UNK        -0.0972 
     15 C15        19.0768  -29.6623  -47.1373 C.3       10 UNK         0.0209 
     16 S16        19.8413  -28.0261  -46.9164 S.3       10 UNK        -0.2568 
     17 C17        21.5661  -28.4310  -46.4529 C.3       10 UNK        -0.0983 
     18 CA         22.0883  -27.7200  -45.1727 C.3       3 UNK         0.0876 
     19 N          21.5383  -26.3751  -45.0145 N.am      3 UNK        -0.4424 
     20 C          21.9170  -25.4615  -44.1136 C.2       2 UNK         0.4918 
     21 O          22.8816  -25.5989  -43.3619 O.2       2 UNK        -0.4875 
     22 CA         21.0089  -24.2228  -43.9912 C.3       2 UNK         0.0481 
     23 CB         21.5072  -23.0941  -44.9055 C.3       2 UNK        -0.1831 
     24 N          19.6045  -24.5266  -44.3037 N.am      2 UNK        -0.4498 
     25 C          18.8310  -25.3707  -43.6054 C.2       1 UNK         0.5027 
     26 O          19.2060  -25.8941  -42.5556 O.2       1 UNK        -0.4969 
     27 C          21.9386  -28.5890  -43.9061 C.2       3 UNK         0.5005 
     28 O          22.8491  -29.3668  -43.6241 O.2       3 UNK        -0.5279 
     29 N          20.8576  -28.4117  -43.1283 N.am      4 UNK        -0.4463 
     30 CA         20.6675  -29.1025  -41.8486 C.3       4 UNK         0.0283 
     31 CB         19.2148  -28.9948  -41.3687 C.3       4 UNK        -0.1875 
     32 C          21.6238  -28.6009  -40.7632 C.2       4 UNK         0.4949 
     33 O          22.1230  -29.4115  -39.9869 O.2       4 UNK        -0.5039 
     34 N          21.8955  -27.2888  -40.7445 N.am      5 UNK        -0.4663 
     35 CA         22.8832  -26.6806  -39.8492 C.3       5 UNK         0.0242 
     36 CB         22.7415  -25.1503  -39.8794 C.3       5 UNK        -0.1982 
     37 C          24.3210  -27.1125  -40.1876 C.2       5 UNK         0.5017 
     38 O          25.1227  -27.3069  -39.2738 O.2       5 UNK        -0.5012 
     39 N          24.6096  -27.2706  -41.4870 N.am      6 UNK        -0.4439 
     40 CA         25.8924  -27.7456  -42.0031 C.3       6 UNK         0.0297 
     41 CB         25.9997  -27.4179  -43.5017 C.3       6 UNK        -0.2006 
     42 C          26.1218  -29.2464  -41.7497 C.2       6 UNK         0.4892 
     43 O          27.1660  -29.6103  -41.2075 O.2       6 UNK        -0.5089 
     44 N          25.1663  -30.0901  -42.1666 N.am      7 UNK        -0.4243 
     45 CA         25.2902  -31.5516  -42.1295 C.3       7 UNK         0.0196 
     46 CB         24.4007  -32.1591  -43.2268 C.3       7 UNK        -0.2007 
     47 C          24.9464  -32.1782  -40.7686 C.2       7 UNK         0.5020 
     48 O          25.3325  -33.3235  -40.5343 O.2       7 UNK        -0.5147 
     49 N          24.2083  -31.4500  -39.9176 N.am      8 UNK        -0.4734 
     50 CA         23.6562  -31.8802  -38.6232 C.3       8 UNK         0.0238 
     51 CB         24.7748  -32.2561  -37.6269 C.3       8 UNK        -0.1912 
     52 C          22.5685  -32.9693  -38.7472 C.2       8 UNK         0.5038 
     53 O          22.3230  -33.6942  -37.7806 O.2       8 UNK        -0.5046 
     54 N          21.9339  -33.0666  -39.9233 N.am      9 UNK        -0.4200 
     55 CA         20.8089  -33.9675  -40.2072 C.3       9 UNK         0.0839 
     56 C          19.4732  -33.4952  -39.5663 C.2       9 UNK         0.5513 
     57 N          18.5020  -34.3897  -39.4408 N.am      9 UNK        -0.7519 
     58 O          19.2967  -32.3341  -39.2027 O.2       9 UNK        -0.4960 
     59 C59        20.6769  -34.2582  -41.7278 C.3       10 UNK        -0.0876 
     60 S60        20.4607  -32.7708  -42.7645 S.3       10 UNK        -0.2414 
     61 C61        18.7154  -32.9204  -43.2623 C.3       10 UNK         0.0169 
     62 H62        16.4418  -21.6262  -45.7633 H         1 UNK         0.0903 
     63 H63        15.3730  -22.6477  -46.7287 H         1 UNK         0.0903 
     64 H64        15.1398  -22.5274  -44.9837 H         1 UNK         0.0903 
     65 H65        15.9018  -24.3250  -43.8957 H         1 UNK         0.3096 
     66 H66        17.6588  -26.2566  -45.1300 H         1 UNK         0.1121 
     67 H67        17.2775  -27.5237  -42.9669 H         1 UNK         0.0849 
     68 H68        16.3143  -26.1970  -42.3803 H         1 UNK         0.0849 
     69 H69        15.2744  -29.2876  -42.6469 H         1 UNK         0.0865 
     70 H70        14.4541  -29.6997  -44.1317 H         1 UNK         0.0865 
     71 H71        16.5566  -31.3614  -42.6828 H         1 UNK         0.1346 
     72 H72        19.7532  -31.7599  -45.5106 H         1 UNK         0.1412 
     73 H73        16.8669  -28.6334  -45.9803 H         1 UNK         0.1426 
     74 H74        19.8174  -30.3845  -47.4840 H         1 UNK         0.0716 
     75 H75        18.3327  -29.5909  -47.9319 H         1 UNK         0.0716 
     76 H76        22.1862  -28.1252  -47.2969 H         1 UNK         0.0695 
     77 H77        21.6968  -29.5130  -46.3859 H         1 UNK         0.0695 
     78 H78        23.1644  -27.5889  -45.3033 H         1 UNK         0.0983 
     79 H79        20.7403  -26.1719  -45.5995 H         1 UNK         0.3095 
     80 H80        21.0580  -23.8758  -42.9571 H         1 UNK         0.0454 
     81 H81        20.9161  -22.1877  -44.7743 H         1 UNK         0.0851 
     82 H82        21.4615  -23.3750  -45.9585 H         1 UNK         0.0851 
     83 H83        22.5437  -22.8391  -44.6801 H         1 UNK         0.0851 
     84 H84        19.2128  -24.1353  -45.1569 H         1 UNK         0.2976 
     85 H85        20.1722  -27.7119  -43.3767 H         1 UNK         0.3116 
     86 H86        20.8878  -30.1562  -42.0077 H         1 UNK         0.0646 
     87 H87        18.5219  -29.3068  -42.1443 H         1 UNK         0.0847 
     88 H88        19.0476  -29.6438  -40.5079 H         1 UNK         0.0847 
     89 H89        18.9531  -27.9817  -41.0645 H         1 UNK         0.0847 
     90 H90        21.4389  -26.6857  -41.4155 H         1 UNK         0.3040 
     91 H91        22.6701  -27.0210  -38.8331 H         1 UNK         0.1015 
     92 H92        22.9545  -24.7392  -40.8662 H         1 UNK         0.0786 
     93 H93        23.4342  -24.6834  -39.1779 H         1 UNK         0.0786 
     94 H94        21.7357  -24.8392  -39.5964 H         1 UNK         0.0786 
     95 H95        23.8983  -27.0228  -42.1655 H         1 UNK         0.3172 
     96 H96        26.6835  -27.1964  -41.4878 H         1 UNK         0.0595 
     97 H97        25.2433  -27.9392  -44.0881 H         1 UNK         0.0839 
     98 H98        26.9740  -27.7117  -43.8947 H         1 UNK         0.0839 
     99 H99        25.8855  -26.3490  -43.6838 H         1 UNK         0.0839 
    100 H100       24.3334  -29.7205  -42.6240 H         1 UNK         0.2998 
    101 H101       26.3250  -31.8189  -42.3549 H         1 UNK         0.0822 
    102 H102       24.5082  -33.2439  -43.2653 H         1 UNK         0.0787 
    103 H103       23.3463  -31.9429  -43.0540 H         1 UNK         0.0787 
    104 H104       24.6630  -31.7712  -44.2112 H         1 UNK         0.0787 
    105 H105       23.8946  -30.5338  -40.2206 H         1 UNK         0.3055 
    106 H106       23.1451  -31.0095  -38.2104 H         1 UNK         0.1106 
    107 H107       25.5294  -31.4722  -37.5633 H         1 UNK         0.0828 
    108 H108       24.3717  -32.3970  -36.6233 H         1 UNK         0.0828 
    109 H109       25.2749  -33.1839  -37.9051 H         1 UNK         0.0828 
    110 H110       22.1593  -32.4007  -40.6468 H         1 UNK         0.2931 
    111 H111       21.0492  -34.9206  -39.7312 H         1 UNK         0.0412 
    112 H112       17.6250  -34.1040  -39.0337 H         1 UNK         0.3472 
    113 H113       18.6310  -35.3477  -39.7275 H         1 UNK         0.3472 
    114 H114       21.5800  -34.7643  -42.0721 H         1 UNK         0.0970 
    115 H115       19.8662  -34.9637  -41.9182 H         1 UNK         0.0970 
    116 H116       18.5983  -33.7978  -43.8995 H         1 UNK         0.0612 
    117 H117       18.1111  -33.0966  -42.3711 H         1 UNK         0.0612 
@<TRIPOS>BOND
     1    1    2 1    
     2    1   62 1    
     3    1   63 1    
     4    1   64 1    
     5    2    3 2    
     6    2    4 am   BACKBONE|DICT|INTERRES
     7    4    5 1    
     8    4   65 1    
     9    5    6 1    
    10    5   25 1    
    11    5   66 1    
    12    6    7 1    
    13    6   67 1    
    14    6   68 1    
    15    7    8 1    
    16    8    9 1    
    17    8   69 1    
    18    8   70 1    
    19    9   10 ar   
    20    9   14 ar   
    21   10   11 ar   
    22   10   71 1    
    23   11   12 ar   
    24   11   61 1    
    25   12   13 ar   
    26   12   72 1    
    27   13   14 ar   
    28   13   15 1    
    29   14   73 1    
    30   15   16 1    
    31   15   74 1    
    32   15   75 1    
    33   16   17 1    
    34   17   18 1    
    35   17   76 1    
    36   17   77 1    
    37   18   19 1    
    38   18   27 1    
    39   18   78 1    
    40   19   20 am   BACKBONE|DICT|INTERRES
    41   19   79 1    
    42   20   21 2    
    43   20   22 1    
    44   22   23 1    
    45   22   24 1    
    46   22   80 1    
    47   23   81 1    
    48   23   82 1    
    49   23   83 1    
    50   24   25 am   BACKBONE|DICT|INTERRES
    51   24   84 1    
    52   25   26 2    
    53   27   28 2    
    54   27   29 am   BACKBONE|DICT|INTERRES
    55   29   30 1    
    56   29   85 1    
    57   30   31 1    
    58   30   32 1    
    59   30   86 1    
    60   31   87 1    
    61   31   88 1    
    62   31   89 1    
    63   32   33 2    
    64   32   34 am   BACKBONE|DICT|INTERRES
    65   34   35 1    
    66   34   90 1    
    67   35   36 1    
    68   35   37 1    
    69   35   91 1    
    70   36   92 1    
    71   36   93 1    
    72   36   94 1    
    73   37   38 2    
    74   37   39 am   BACKBONE|DICT|INTERRES
    75   39   40 1    
    76   39   95 1    
    77   40   41 1    
    78   40   42 1    
    79   40   96 1    
    80   41   97 1    
    81   41   98 1    
    82   41   99 1    
    83   42   43 2    
    84   42   44 am   BACKBONE|DICT|INTERRES
    85   44   45 1    
    86   44  100 1    
    87   45   46 1    
    88   45   47 1    
    89   45  101 1    
    90   46  102 1    
    91   46  103 1    
    92   46  104 1    
    93   47   48 2    
    94   47   49 am   BACKBONE|DICT|INTERRES
    95   49   50 1    
    96   49  105 1    
    97   50   51 1    
    98   50   52 1    
    99   50  106 1    
   100   51  107 1    
   101   51  108 1    
   102   51  109 1    
   103   52   53 2    
   104   52   54 am   BACKBONE|DICT|INTERRES
   105   54   55 1    
   106   54  110 1    
   107   55   56 1    
   108   55   59 1    
   109   55  111 1    
   110   56   57 am   BACKBONE|DICT|INTERRES
   111   56   58 2    
   112   57  112 1    
   113   57  113 1    
   114   59   60 1    
   115   59  114 1    
   116   59  115 1    
   117   60   61 1    
   118   61  116 1    
   119   61  117 1    
@<TRIPOS>SUBSTRUCTURE
     1 UNK         1 GROUP             0       ****    0 ROOT    
