@<TRIPOS>MOLECULE
3R8
117   119    1
SMALL
USER_CHARGES


@<TRIPOS>ATOM
      1 CA         14.6963  -25.6840  -41.4929 C.3       0 UNK        -0.2013 
      2 C          15.5967  -25.3052  -42.6593 C.2       0 UNK         0.4866 
      3 O          15.6819  -24.1280  -43.0113 O.2       0 UNK        -0.5176 
      4 N          16.2627  -26.2945  -43.2661 N.am      1 UNK        -0.4884 
      5 CA         17.2232  -26.1069  -44.3573 C.3       1 UNK         0.0853 
      6 C6         17.5644  -27.4490  -45.0516 C.3       10 UNK        -0.0849 
      7 S7         16.1549  -28.2232  -45.9125 S.3       10 UNK        -0.2776 
      8 C8         15.9800  -29.8202  -45.0314 C.3       10 UNK         0.0316 
      9 C9         17.1507  -30.8067  -45.1371 C.ar      10 UNK        -0.0863 
     10 C10        17.0780  -31.9898  -44.3933 C.ar      10 UNK        -0.1009 
     11 C11        18.1290  -32.9123  -44.3972 C.ar      10 UNK        -0.0712 
     12 C12        19.2728  -32.6445  -45.1556 C.ar      10 UNK        -0.0894 
     13 C13        19.3591  -31.4782  -45.9208 C.ar      10 UNK        -0.0745 
     14 C14        18.2876  -30.5784  -45.9259 C.ar      10 UNK        -0.0972 
     15 C15        20.6064  -31.1944  -46.7507 C.3       10 UNK         0.0209 
     16 S16        21.9028  -30.3396  -45.7917 S.3       10 UNK        -0.2568 
     17 C17        21.1089  -28.7278  -45.4983 C.3       10 UNK        -0.0983 
     18 CA         21.9881  -27.6597  -44.7996 C.3       3 UNK         0.0876 
     19 N          21.3250  -26.3578  -44.9259 N.am      3 UNK        -0.4424 
     20 C          21.6176  -25.1954  -44.3255 C.2       2 UNK         0.4918 
     21 O          22.6306  -24.9934  -43.6562 O.2       2 UNK        -0.4875 
     22 CA         20.5319  -24.1025  -44.4275 C.3       2 UNK         0.0481 
     23 CB         20.8852  -23.0974  -45.5343 C.3       2 UNK        -0.1831 
     24 N          19.1784  -24.6395  -44.6625 N.am      2 UNK        -0.4498 
     25 C          18.5289  -25.4741  -43.8331 C.2       1 UNK         0.5027 
     26 O          18.9839  -25.8389  -42.7463 O.2       1 UNK        -0.4969 
     27 C          22.2878  -28.0578  -43.3346 C.2       3 UNK         0.5005 
     28 O          23.3181  -28.6838  -43.0781 O.2       3 UNK        -0.5279 
     29 N          21.4212  -27.6537  -42.3889 N.am      4 UNK        -0.4463 
     30 CA         21.5480  -27.9178  -40.9521 C.3       4 UNK         0.0283 
     31 CB         20.3093  -27.3840  -40.2178 C.3       4 UNK        -0.1875 
     32 C          22.8311  -27.3693  -40.3060 C.2       4 UNK         0.4949 
     33 O          23.2515  -27.9034  -39.2810 O.2       4 UNK        -0.5039 
     34 N          23.4573  -26.3584  -40.9246 N.am      5 UNK        -0.4663 
     35 CA         24.7593  -25.8261  -40.5166 C.3       5 UNK         0.0242 
     36 CB         25.0081  -24.4972  -41.2480 C.3       5 UNK        -0.1982 
     37 C          25.9306  -26.7994  -40.7583 C.2       5 UNK         0.5017 
     38 O          26.9765  -26.6272  -40.1309 O.2       5 UNK        -0.5012 
     39 N          25.7502  -27.7808  -41.6549 N.am      6 UNK        -0.4439 
     40 CA         26.7620  -28.7706  -42.0267 C.3       6 UNK         0.0297 
     41 CB         27.0596  -28.6492  -43.5312 C.3       6 UNK        -0.2006 
     42 C          26.3182  -30.1987  -41.6801 C.2       6 UNK         0.4892 
     43 O          27.0972  -30.9410  -41.0815 O.2       6 UNK        -0.5089 
     44 N          25.0942  -30.5698  -42.0778 N.am      7 UNK        -0.4243 
     45 CA         24.5740  -31.9363  -41.9834 C.3       7 UNK         0.0196 
     46 CB         23.6031  -32.1704  -43.1526 C.3       7 UNK        -0.2007 
     47 C          23.8662  -32.2441  -40.6555 C.2       7 UNK         0.5020 
     48 O          23.6074  -33.4175  -40.3878 O.2       7 UNK        -0.5147 
     49 N          23.5210  -31.2057  -39.8765 N.am      8 UNK        -0.4734 
     50 CA         22.6927  -31.2621  -38.6593 C.3       8 UNK         0.0238 
     51 CB         23.4244  -32.0110  -37.5246 C.3       8 UNK        -0.1912 
     52 C          21.2719  -31.8088  -38.9253 C.2       8 UNK         0.5038 
     53 O          20.6996  -32.4894  -38.0722 O.2       8 UNK        -0.5046 
     54 N          20.7394  -31.4994  -40.1126 N.am      9 UNK        -0.4200 
     55 CA         19.4247  -31.9078  -40.6093 C.3       9 UNK         0.0839 
     56 C          18.8080  -30.7493  -41.4288 C.2       9 UNK         0.5513 
     57 N          19.4630  -30.3056  -42.4940 N.am      9 UNK        -0.7519 
     58 O          17.7519  -30.2283  -41.0815 O.2       9 UNK        -0.4960 
     59 C59        19.5122  -33.2457  -41.3913 C.3       10 UNK        -0.0876 
     60 S60        17.8772  -33.9436  -41.8042 S.3       10 UNK        -0.2414 
     61 C61        18.0180  -34.2090  -43.6030 C.3       10 UNK         0.0169 
     62 H62        14.7184  -26.7549  -41.2914 H         1 UNK         0.0903 
     63 H63        15.0138  -25.1630  -40.5899 H         1 UNK         0.0903 
     64 H64        13.6661  -25.4001  -41.7063 H         1 UNK         0.0903 
     65 H65        16.1725  -27.2386  -42.9206 H         1 UNK         0.3096 
     66 H66        16.7788  -25.4306  -45.0914 H         1 UNK         0.1121 
     67 H67        18.3386  -27.3014  -45.8065 H         1 UNK         0.0849 
     68 H68        17.9760  -28.1517  -44.3255 H         1 UNK         0.0849 
     69 H69        15.7907  -29.6107  -43.9774 H         1 UNK         0.0865 
     70 H70        15.0832  -30.3132  -45.4092 H         1 UNK         0.0865 
     71 H71        16.2024  -32.1910  -43.7909 H         1 UNK         0.1346 
     72 H72        20.0954  -33.3465  -45.1587 H         1 UNK         0.1412 
     73 H73        18.3636  -29.6901  -46.5346 H         1 UNK         0.1426 
     74 H74        20.3523  -30.5990  -47.6290 H         1 UNK         0.0716 
     75 H75        21.0146  -32.1320  -47.1307 H         1 UNK         0.0716 
     76 H76        20.7861  -28.3588  -46.4735 H         1 UNK         0.0695 
     77 H77        20.2002  -28.8929  -44.9209 H         1 UNK         0.0695 
     78 H78        22.9439  -27.5861  -45.3217 H         1 UNK         0.0983 
     79 H79        20.4859  -26.3630  -45.4834 H         1 UNK         0.3095 
     80 H80        20.5156  -23.5704  -43.4741 H         1 UNK         0.0454 
     81 H81        21.8737  -22.6666  -45.3680 H         1 UNK         0.0851 
     82 H82        20.8961  -23.5650  -46.5196 H         1 UNK         0.0851 
     83 H83        20.1758  -22.2702  -45.5616 H         1 UNK         0.0851 
     84 H84        18.7413  -24.3828  -45.5370 H         1 UNK         0.2976 
     85 H85        20.6184  -27.0969  -42.6635 H         1 UNK         0.3116 
     86 H86        21.5734  -28.9997  -40.8319 H         1 UNK         0.0646 
     87 H87        20.3454  -27.6321  -39.1562 H         1 UNK         0.0847 
     88 H88        19.3908  -27.8130  -40.6186 H         1 UNK         0.0847 
     89 H89        20.2319  -26.2989  -40.2976 H         1 UNK         0.0847 
     90 H90        23.0542  -25.9767  -41.7736 H         1 UNK         0.3040 
     91 H91        24.7220  -25.6255  -39.4434 H         1 UNK         0.1015 
     92 H92        24.2152  -23.7770  -41.0455 H         1 UNK         0.0786 
     93 H93        25.0656  -24.6371  -42.3284 H         1 UNK         0.0786 
     94 H94        25.9471  -24.0439  -40.9274 H         1 UNK         0.0786 
     95 H95        24.8439  -27.8667  -42.1051 H         1 UNK         0.3172 
     96 H96        27.6946  -28.5851  -41.4899 H         1 UNK         0.0595 
     97 H97        27.7991  -29.3875  -43.8447 H         1 UNK         0.0839 
     98 H98        27.4613  -27.6657  -43.7751 H         1 UNK         0.0839 
     99 H99        26.1657  -28.8036  -44.1374 H         1 UNK         0.0839 
    100 H100       24.4955  -29.8928  -42.5503 H         1 UNK         0.2998 
    101 H101       25.4003  -32.6436  -42.0840 H         1 UNK         0.0822 
    102 H102       22.7412  -31.5048  -43.0983 H         1 UNK         0.0787 
    103 H103       24.0916  -32.0058  -44.1132 H         1 UNK         0.0787 
    104 H104       23.2251  -33.1938  -43.1539 H         1 UNK         0.0787 
    105 H105       23.8114  -30.2821  -40.1685 H         1 UNK         0.3055 
    106 H106       22.5539  -30.2327  -38.3269 H         1 UNK         0.1106 
    107 H107       23.5333  -33.0739  -37.7415 H         1 UNK         0.0828 
    108 H108       24.4191  -31.5990  -37.3550 H         1 UNK         0.0828 
    109 H109       22.8767  -31.9277  -36.5851 H         1 UNK         0.0828 
    110 H110       21.2691  -30.9112  -40.7370 H         1 UNK         0.2931 
    111 H111       18.7704  -32.0649  -39.7490 H         1 UNK         0.0412 
    112 H112       19.0379  -29.5686  -43.0272 H         1 UNK         0.3472 
    113 H113       20.2750  -30.7786  -42.8525 H         1 UNK         0.3472 
    114 H114       20.1137  -33.1274  -42.2937 H         1 UNK         0.0970 
    115 H115       20.0350  -33.9882  -40.7865 H         1 UNK         0.0970 
    116 H116       18.8709  -34.8610  -43.7981 H         1 UNK         0.0612 
    117 H117       17.1356  -34.7523  -43.9434 H         1 UNK         0.0612 
@<TRIPOS>BOND
     1    1    2 1    
     2    1   62 1    
     3    1   63 1    
     4    1   64 1    
     5    2    3 2    
     6    2    4 am   BACKBONE|DICT|INTERRES
     7    4    5 1    
     8    4   65 1    
     9    5    6 1    
    10    5   25 1    
    11    5   66 1    
    12    6    7 1    
    13    6   67 1    
    14    6   68 1    
    15    7    8 1    
    16    8    9 1    
    17    8   69 1    
    18    8   70 1    
    19    9   10 ar   
    20    9   14 ar   
    21   10   11 ar   
    22   10   71 1    
    23   11   12 ar   
    24   11   61 1    
    25   12   13 ar   
    26   12   72 1    
    27   13   14 ar   
    28   13   15 1    
    29   14   73 1    
    30   15   16 1    
    31   15   74 1    
    32   15   75 1    
    33   16   17 1    
    34   17   18 1    
    35   17   76 1    
    36   17   77 1    
    37   18   19 1    
    38   18   27 1    
    39   18   78 1    
    40   19   20 am   BACKBONE|DICT|INTERRES
    41   19   79 1    
    42   20   21 2    
    43   20   22 1    
    44   22   23 1    
    45   22   24 1    
    46   22   80 1    
    47   23   81 1    
    48   23   82 1    
    49   23   83 1    
    50   24   25 am   BACKBONE|DICT|INTERRES
    51   24   84 1    
    52   25   26 2    
    53   27   28 2    
    54   27   29 am   BACKBONE|DICT|INTERRES
    55   29   30 1    
    56   29   85 1    
    57   30   31 1    
    58   30   32 1    
    59   30   86 1    
    60   31   87 1    
    61   31   88 1    
    62   31   89 1    
    63   32   33 2    
    64   32   34 am   BACKBONE|DICT|INTERRES
    65   34   35 1    
    66   34   90 1    
    67   35   36 1    
    68   35   37 1    
    69   35   91 1    
    70   36   92 1    
    71   36   93 1    
    72   36   94 1    
    73   37   38 2    
    74   37   39 am   BACKBONE|DICT|INTERRES
    75   39   40 1    
    76   39   95 1    
    77   40   41 1    
    78   40   42 1    
    79   40   96 1    
    80   41   97 1    
    81   41   98 1    
    82   41   99 1    
    83   42   43 2    
    84   42   44 am   BACKBONE|DICT|INTERRES
    85   44   45 1    
    86   44  100 1    
    87   45   46 1    
    88   45   47 1    
    89   45  101 1    
    90   46  102 1    
    91   46  103 1    
    92   46  104 1    
    93   47   48 2    
    94   47   49 am   BACKBONE|DICT|INTERRES
    95   49   50 1    
    96   49  105 1    
    97   50   51 1    
    98   50   52 1    
    99   50  106 1    
   100   51  107 1    
   101   51  108 1    
   102   51  109 1    
   103   52   53 2    
   104   52   54 am   BACKBONE|DICT|INTERRES
   105   54   55 1    
   106   54  110 1    
   107   55   56 1    
   108   55   59 1    
   109   55  111 1    
   110   56   57 am   BACKBONE|DICT|INTERRES
   111   56   58 2    
   112   57  112 1    
   113   57  113 1    
   114   59   60 1    
   115   59  114 1    
   116   59  115 1    
   117   60   61 1    
   118   61  116 1    
   119   61  117 1    
@<TRIPOS>SUBSTRUCTURE
     1 UNK         1 GROUP             0       ****    0 ROOT    
