@<TRIPOS>MOLECULE
3R8
117   119    1
SMALL
USER_CHARGES


@<TRIPOS>ATOM
      1 CA         14.2399  -23.7648  -41.4524 C.3       0 UNK        -0.2013 
      2 C          15.1942  -24.3740  -42.4689 C.2       0 UNK         0.4866 
      3 O          15.9650  -23.6472  -43.0968 O.2       0 UNK        -0.5176 
      4 N          15.1431  -25.7007  -42.6427 N.am      1 UNK        -0.4884 
      5 CA         16.0382  -26.4602  -43.5210 C.3       1 UNK         0.0853 
      6 C6         15.4430  -27.8538  -43.8423 C.3       10 UNK        -0.0849 
      7 S7         16.1820  -28.6269  -45.3240 S.3       10 UNK        -0.2776 
      8 C8         16.6200  -30.2893  -44.7170 C.3       10 UNK         0.0316 
      9 C9         17.9856  -30.3171  -44.0440 C.ar      10 UNK        -0.0863 
     10 C10        18.1149  -29.9982  -42.6902 C.ar      10 UNK        -0.1009 
     11 C11        19.3651  -30.0318  -42.0674 C.ar      10 UNK        -0.0712 
     12 C12        20.4961  -30.3911  -42.8086 C.ar      10 UNK        -0.0894 
     13 C13        20.3734  -30.7623  -44.1504 C.ar      10 UNK        -0.0745 
     14 C14        19.1181  -30.7074  -44.7657 C.ar      10 UNK        -0.0972 
     15 C15        21.5726  -31.3138  -44.9096 C.3       10 UNK         0.0209 
     16 S16        22.0122  -30.3109  -46.3647 S.3       10 UNK        -0.2568 
     17 C17        23.2812  -29.1813  -45.7053 C.3       10 UNK        -0.0983 
     18 CA         22.7879  -27.7140  -45.6726 C.3       3 UNK         0.0876 
     19 N          21.8404  -27.4853  -44.5807 N.am      3 UNK        -0.4424 
     20 C          20.6453  -26.9077  -44.7183 C.2       2 UNK         0.4918 
     21 O          20.1647  -26.5644  -45.8021 O.2       2 UNK        -0.4875 
     22 CA         19.8874  -26.5959  -43.4244 C.3       2 UNK         0.0481 
     23 CB         20.4004  -25.2898  -42.7883 C.3       2 UNK        -0.1831 
     24 N          18.4725  -26.4771  -43.7543 N.am      2 UNK        -0.4498 
     25 C          17.4486  -26.5567  -42.9008 C.2       1 UNK         0.5027 
     26 O          17.5740  -26.7152  -41.6831 O.2       1 UNK        -0.4969 
     27 C          23.9301  -26.7069  -45.4643 C.2       3 UNK         0.5005 
     28 O          25.0528  -27.0995  -45.1420 O.2       3 UNK        -0.5279 
     29 N          23.5842  -25.4100  -45.5273 N.am      4 UNK        -0.4463 
     30 CA         24.3553  -24.2246  -45.1103 C.3       4 UNK         0.0283 
     31 CB         25.6982  -24.1104  -45.8579 C.3       4 UNK        -0.1875 
     32 C          24.5521  -24.1229  -43.5832 C.2       4 UNK         0.4949 
     33 O          24.4836  -23.0221  -43.0370 O.2       4 UNK        -0.5039 
     34 N          24.7502  -25.2666  -42.9250 N.am      5 UNK        -0.4663 
     35 CA         24.7808  -25.4653  -41.4824 C.3       5 UNK         0.0242 
     36 CB         26.2476  -25.6246  -41.0390 C.3       5 UNK        -0.1982 
     37 C          23.9355  -26.7034  -41.1312 C.2       5 UNK         0.5017 
     38 O          23.3299  -27.3198  -42.0160 O.2       5 UNK        -0.5012 
     39 N          23.9025  -27.0325  -39.8351 N.am      6 UNK        -0.4439 
     40 CA         23.2655  -28.2306  -39.2863 C.3       6 UNK         0.0297 
     41 CB         22.9886  -27.9917  -37.7902 C.3       6 UNK        -0.2006 
     42 C          24.1180  -29.4982  -39.5038 C.2       6 UNK         0.4892 
     43 O          25.2491  -29.4089  -39.9879 O.2       6 UNK        -0.5089 
     44 N          23.5458  -30.6398  -39.0946 N.am      7 UNK        -0.4243 
     45 CA         24.0079  -32.0271  -39.2430 C.3       7 UNK         0.0196 
     46 CB         25.5033  -32.2166  -38.9133 C.3       7 UNK        -0.2007 
     47 C          23.6390  -32.6055  -40.6182 C.2       7 UNK         0.5020 
     48 O          23.5135  -31.8662  -41.5951 O.2       7 UNK        -0.5147 
     49 N          23.4323  -33.9315  -40.6443 N.am      8 UNK        -0.4734 
     50 CA         22.8754  -34.7216  -41.7569 C.3       8 UNK         0.0238 
     51 CB         23.8024  -34.6861  -42.9920 C.3       8 UNK        -0.1912 
     52 C          21.4146  -34.3468  -42.0947 C.2       8 UNK         0.5038 
     53 O          20.9837  -34.5248  -43.2354 O.2       8 UNK        -0.5046 
     54 N          20.6893  -33.8301  -41.0943 N.am      9 UNK        -0.4200 
     55 CA         19.3062  -33.3509  -41.1953 C.3       9 UNK         0.0839 
     56 C          18.2835  -34.5019  -41.3802 C.2       9 UNK         0.5513 
     57 N          17.1975  -34.2541  -42.0993 N.am      9 UNK        -0.7519 
     58 O          18.4423  -35.5966  -40.8432 O.2       9 UNK        -0.4960 
     59 C59        18.9185  -32.4478  -39.9889 C.3       10 UNK        -0.0876 
     60 S60        20.1334  -31.1253  -39.6283 S.3       10 UNK        -0.2414 
     61 C61        19.4808  -29.7163  -40.5838 C.3       10 UNK         0.0169 
     62 H62        13.5936  -23.0328  -41.9360 H         1 UNK         0.0903 
     63 H63        13.6070  -24.5181  -40.9835 H         1 UNK         0.0903 
     64 H64        14.8015  -23.2582  -40.6680 H         1 UNK         0.0903 
     65 H65        14.5158  -26.2504  -42.0726 H         1 UNK         0.3096 
     66 H66        16.1153  -25.9015  -44.4572 H         1 UNK         0.1121 
     67 H67        14.3764  -27.7556  -44.0517 H         1 UNK         0.0849 
     68 H68        15.5079  -28.5164  -42.9787 H         1 UNK         0.0849 
     69 H69        15.8511  -30.6560  -44.0353 H         1 UNK         0.0865 
     70 H70        16.6143  -30.9767  -45.5644 H         1 UNK         0.0865 
     71 H71        17.2418  -29.7258  -42.1151 H         1 UNK         0.1346 
     72 H72        21.4599  -30.4400  -42.3204 H         1 UNK         0.1412 
     73 H73        19.0228  -30.9915  -45.8049 H         1 UNK         0.1426 
     74 H74        21.3242  -32.3202  -45.2496 H         1 UNK         0.0716 
     75 H75        22.4365  -31.4307  -44.2533 H         1 UNK         0.0716 
     76 H76        24.1496  -29.2792  -46.3595 H         1 UNK         0.0695 
     77 H77        23.6102  -29.5040  -44.7157 H         1 UNK         0.0695 
     78 H78        22.3396  -27.4839  -46.6419 H         1 UNK         0.0983 
     79 H79        22.2050  -27.6528  -43.6463 H         1 UNK         0.3095 
     80 H80        20.0301  -27.4216  -42.7268 H         1 UNK         0.0454 
     81 H81        21.4689  -25.3450  -42.5790 H         1 UNK         0.0851 
     82 H82        19.8992  -25.0841  -41.8426 H         1 UNK         0.0851 
     83 H83        20.2409  -24.4335  -43.4446 H         1 UNK         0.0851 
     84 H84        18.2954  -26.4044  -44.7495 H         1 UNK         0.2976 
     85 H85        22.6232  -25.2135  -45.7750 H         1 UNK         0.3116 
     86 H86        23.7481  -23.3660  -45.4017 H         1 UNK         0.0646 
     87 H87        26.3945  -24.9009  -45.5772 H         1 UNK         0.0847 
     88 H88        25.5573  -24.1539  -46.9377 H         1 UNK         0.0847 
     89 H89        26.1853  -23.1610  -45.6322 H         1 UNK         0.0847 
     90 H90        24.7839  -26.1205  -43.4757 H         1 UNK         0.3040 
     91 H91        24.3356  -24.6044  -40.9785 H         1 UNK         0.1015 
     92 H92        26.3351  -25.6922  -39.9543 H         1 UNK         0.0786 
     93 H93        26.8497  -24.7719  -41.3539 H         1 UNK         0.0786 
     94 H94        26.6978  -26.5243  -41.4610 H         1 UNK         0.0786 
     95 H95        24.4567  -26.4899  -39.1893 H         1 UNK         0.3172 
     96 H96        22.3126  -28.3786  -39.7966 H         1 UNK         0.0595 
     97 H97        23.9131  -27.8917  -37.2198 H         1 UNK         0.0839 
     98 H98        22.4228  -28.8140  -37.3509 H         1 UNK         0.0839 
     99 H99        22.4001  -27.0870  -37.6356 H         1 UNK         0.0839 
    100 H100       22.6009  -30.5646  -38.7430 H         1 UNK         0.2998 
    101 H101       23.4398  -32.5854  -38.4970 H         1 UNK         0.0822 
    102 H102       25.7502  -33.2752  -38.8263 H         1 UNK         0.0787 
    103 H103       25.7670  -31.7432  -37.9675 H         1 UNK         0.0787 
    104 H104       26.1481  -31.8042  -39.6899 H         1 UNK         0.0787 
    105 H105       23.5890  -34.4496  -39.7896 H         1 UNK         0.3055 
    106 H106       22.8389  -35.7552  -41.4087 H         1 UNK         0.1106 
    107 H107       24.8277  -34.9440  -42.7275 H         1 UNK         0.0828 
    108 H108       23.4741  -35.4016  -43.7469 H         1 UNK         0.0828 
    109 H109       23.8136  -33.7035  -43.4645 H         1 UNK         0.0828 
    110 H110       21.1222  -33.7303  -40.1899 H         1 UNK         0.2931 
    111 H111       19.2569  -32.7463  -42.1003 H         1 UNK         0.0412 
    112 H112       17.0604  -33.3579  -42.5399 H         1 UNK         0.3472 
    113 H113       16.5108  -34.9826  -42.2192 H         1 UNK         0.3472 
    114 H114       17.9399  -31.9933  -40.1543 H         1 UNK         0.0970 
    115 H115       18.8170  -33.0518  -39.0853 H         1 UNK         0.0970 
    116 H116       20.1379  -28.8566  -40.4556 H         1 UNK         0.0612 
    117 H117       18.5144  -29.4258  -40.1688 H         1 UNK         0.0612 
@<TRIPOS>BOND
     1    1    2 1    
     2    1   62 1    
     3    1   63 1    
     4    1   64 1    
     5    2    3 2    
     6    2    4 am   BACKBONE|DICT|INTERRES
     7    4    5 1    
     8    4   65 1    
     9    5    6 1    
    10    5   25 1    
    11    5   66 1    
    12    6    7 1    
    13    6   67 1    
    14    6   68 1    
    15    7    8 1    
    16    8    9 1    
    17    8   69 1    
    18    8   70 1    
    19    9   10 ar   
    20    9   14 ar   
    21   10   11 ar   
    22   10   71 1    
    23   11   12 ar   
    24   11   61 1    
    25   12   13 ar   
    26   12   72 1    
    27   13   14 ar   
    28   13   15 1    
    29   14   73 1    
    30   15   16 1    
    31   15   74 1    
    32   15   75 1    
    33   16   17 1    
    34   17   18 1    
    35   17   76 1    
    36   17   77 1    
    37   18   19 1    
    38   18   27 1    
    39   18   78 1    
    40   19   20 am   BACKBONE|DICT|INTERRES
    41   19   79 1    
    42   20   21 2    
    43   20   22 1    
    44   22   23 1    
    45   22   24 1    
    46   22   80 1    
    47   23   81 1    
    48   23   82 1    
    49   23   83 1    
    50   24   25 am   BACKBONE|DICT|INTERRES
    51   24   84 1    
    52   25   26 2    
    53   27   28 2    
    54   27   29 am   BACKBONE|DICT|INTERRES
    55   29   30 1    
    56   29   85 1    
    57   30   31 1    
    58   30   32 1    
    59   30   86 1    
    60   31   87 1    
    61   31   88 1    
    62   31   89 1    
    63   32   33 2    
    64   32   34 am   BACKBONE|DICT|INTERRES
    65   34   35 1    
    66   34   90 1    
    67   35   36 1    
    68   35   37 1    
    69   35   91 1    
    70   36   92 1    
    71   36   93 1    
    72   36   94 1    
    73   37   38 2    
    74   37   39 am   BACKBONE|DICT|INTERRES
    75   39   40 1    
    76   39   95 1    
    77   40   41 1    
    78   40   42 1    
    79   40   96 1    
    80   41   97 1    
    81   41   98 1    
    82   41   99 1    
    83   42   43 2    
    84   42   44 am   BACKBONE|DICT|INTERRES
    85   44   45 1    
    86   44  100 1    
    87   45   46 1    
    88   45   47 1    
    89   45  101 1    
    90   46  102 1    
    91   46  103 1    
    92   46  104 1    
    93   47   48 2    
    94   47   49 am   BACKBONE|DICT|INTERRES
    95   49   50 1    
    96   49  105 1    
    97   50   51 1    
    98   50   52 1    
    99   50  106 1    
   100   51  107 1    
   101   51  108 1    
   102   51  109 1    
   103   52   53 2    
   104   52   54 am   BACKBONE|DICT|INTERRES
   105   54   55 1    
   106   54  110 1    
   107   55   56 1    
   108   55   59 1    
   109   55  111 1    
   110   56   57 am   BACKBONE|DICT|INTERRES
   111   56   58 2    
   112   57  112 1    
   113   57  113 1    
   114   59   60 1    
   115   59  114 1    
   116   59  115 1    
   117   60   61 1    
   118   61  116 1    
   119   61  117 1    
@<TRIPOS>SUBSTRUCTURE
     1 UNK         1 GROUP             0       ****    0 ROOT    
