@<TRIPOS>MOLECULE
3R8
117   119    1
SMALL
USER_CHARGES


@<TRIPOS>ATOM
      1 CA         14.5953  -23.6862  -47.5878 C.3       0 UNK        -0.2013 
      2 C          15.3401  -24.7788  -46.8348 C.2       0 UNK         0.4866 
      3 O          16.3195  -25.3162  -47.3510 O.2       0 UNK        -0.5176 
      4 N          14.8765  -25.1138  -45.6245 N.am      1 UNK        -0.4884 
      5 CA         15.4894  -26.1056  -44.7322 C.3       1 UNK         0.0853 
      6 C6         14.4607  -26.6497  -43.7064 C.3       10 UNK        -0.0849 
      7 S7         13.3655  -27.8698  -44.5020 S.3       10 UNK        -0.2776 
      8 C8         14.0291  -29.4451  -43.8580 C.3       10 UNK         0.0316 
      9 C9         15.5275  -29.6189  -44.0967 C.ar      10 UNK        -0.0863 
     10 C10        16.3971  -29.7784  -43.0130 C.ar      10 UNK        -0.1009 
     11 C11        17.7670  -29.9828  -43.2112 C.ar      10 UNK        -0.0712 
     12 C12        18.2621  -30.0280  -44.5209 C.ar      10 UNK        -0.0894 
     13 C13        17.4116  -29.8364  -45.6130 C.ar      10 UNK        -0.0745 
     14 C14        16.0434  -29.6481  -45.3956 C.ar      10 UNK        -0.0972 
     15 C15        17.9650  -29.8497  -47.0303 C.3       10 UNK         0.0209 
     16 S16        18.6591  -28.2307  -47.5003 S.3       10 UNK        -0.2568 
     17 C17        20.3833  -28.3527  -46.9084 C.3       10 UNK        -0.0983 
     18 CA         20.7924  -27.2102  -45.9428 C.3       3 UNK         0.0876 
     19 N          19.9032  -27.1347  -44.7781 N.am      3 UNK        -0.4424 
     20 C          19.8647  -26.1407  -43.8803 C.2       2 UNK         0.4918 
     21 O          20.5871  -25.1440  -43.9198 O.2       2 UNK        -0.4875 
     22 CA         18.8077  -26.3060  -42.7756 C.3       2 UNK         0.0481 
     23 CB         18.8412  -25.1904  -41.7096 C.3       2 UNK        -0.1831 
     24 N          17.4747  -26.4781  -43.3644 N.am      2 UNK        -0.4498 
     25 C          16.7617  -25.5668  -44.0460 C.2       1 UNK         0.5027 
     26 O          17.0674  -24.3754  -44.1433 O.2       1 UNK        -0.4969 
     27 C          22.2849  -27.3566  -45.5668 C.2       3 UNK         0.5005 
     28 O          23.1447  -27.0772  -46.4045 O.2       3 UNK        -0.5279 
     29 N          22.5686  -27.8030  -44.3380 N.am      4 UNK        -0.4463 
     30 CA         23.9011  -28.0041  -43.7807 C.3       4 UNK         0.0283 
     31 CB         24.2655  -29.4920  -43.9063 C.3       4 UNK        -0.1875 
     32 C          23.9178  -27.5285  -42.3195 C.2       4 UNK         0.4949 
     33 O          22.8656  -27.1947  -41.7686 O.2       4 UNK        -0.5039 
     34 N          25.1210  -27.4783  -41.7350 N.am      5 UNK        -0.4663 
     35 CA         25.3747  -27.0474  -40.3588 C.3       5 UNK         0.0242 
     36 CB         26.7303  -26.3099  -40.3138 C.3       5 UNK        -0.1982 
     37 C          25.2708  -28.2388  -39.3847 C.2       5 UNK         0.5017 
     38 O          24.1985  -28.8305  -39.2673 O.2       5 UNK        -0.5012 
     39 N          26.3675  -28.5601  -38.6818 N.am      6 UNK        -0.4439 
     40 CA         26.4461  -29.6607  -37.7144 C.3       6 UNK         0.0297 
     41 CB         27.7181  -29.5061  -36.8651 C.3       6 UNK        -0.2006 
     42 C          26.4016  -31.0522  -38.3703 C.2       6 UNK         0.4892 
     43 O          25.8807  -31.9894  -37.7643 O.2       6 UNK        -0.5089 
     44 N          26.9387  -31.1632  -39.5924 N.am      7 UNK        -0.4243 
     45 CA         26.8377  -32.3567  -40.4305 C.3       7 UNK         0.0196 
     46 CB         27.9117  -32.2963  -41.5284 C.3       7 UNK        -0.2007 
     47 C          25.4377  -32.4390  -41.0540 C.2       7 UNK         0.5020 
     48 O          24.9008  -31.4076  -41.4586 O.2       7 UNK        -0.5147 
     49 N          24.8847  -33.6561  -41.1358 N.am      8 UNK        -0.4734 
     50 CA         23.5691  -34.0264  -41.6843 C.3       8 UNK         0.0238 
     51 CB         23.4627  -33.6915  -43.1864 C.3       8 UNK        -0.1912 
     52 C          22.3683  -33.4661  -40.8985 C.2       8 UNK         0.5038 
     53 O          21.5335  -34.2496  -40.4443 O.2       8 UNK        -0.5046 
     54 N          22.3035  -32.1392  -40.7491 N.am      9 UNK        -0.4200 
     55 CA         21.2691  -31.4194  -39.9919 C.3       9 UNK         0.0839 
     56 C          21.4970  -31.4087  -38.4524 C.2       9 UNK         0.5513 
     57 N          22.6265  -31.8745  -37.9338 N.am      9 UNK        -0.7519 
     58 O          20.6152  -30.9872  -37.7083 O.2       9 UNK        -0.4960 
     59 C59        21.0478  -29.9846  -40.5378 C.3       10 UNK        -0.0876 
     60 S60        20.4489  -29.9543  -42.2607 S.3       10 UNK        -0.2414 
     61 C61        18.6568  -30.1764  -41.9819 C.3       10 UNK         0.0169 
     62 H62        14.2305  -24.0689  -48.5406 H         1 UNK         0.0903 
     63 H63        15.2629  -22.8489  -47.7897 H         1 UNK         0.0903 
     64 H64        13.7414  -23.3106  -47.0243 H         1 UNK         0.0903 
     65 H65        14.0784  -24.6227  -45.2480 H         1 UNK         0.3096 
     66 H66        15.8341  -26.9314  -45.3575 H         1 UNK         0.1121 
     67 H67        13.8558  -25.8402  -43.2942 H         1 UNK         0.0849 
     68 H68        14.9344  -27.1228  -42.8447 H         1 UNK         0.0849 
     69 H69        13.7962  -29.5121  -42.7940 H         1 UNK         0.0865 
     70 H70        13.4983  -30.2703  -44.3347 H         1 UNK         0.0865 
     71 H71        16.0035  -29.7626  -42.0051 H         1 UNK         0.1346 
     72 H72        19.3099  -30.2172  -44.7016 H         1 UNK         0.1412 
     73 H73        15.3764  -29.5180  -46.2375 H         1 UNK         0.1426 
     74 H74        18.7167  -30.6327  -47.1404 H         1 UNK         0.0716 
     75 H75        17.1706  -30.0995  -47.7352 H         1 UNK         0.0716 
     76 H76        21.0221  -28.3407  -47.7938 H         1 UNK         0.0695 
     77 H77        20.5480  -29.3244  -46.4411 H         1 UNK         0.0695 
     78 H78        20.6979  -26.2636  -46.4794 H         1 UNK         0.0983 
     79 H79        19.2404  -27.8908  -44.6887 H         1 UNK         0.3095 
     80 H80        19.0389  -27.2396  -42.2628 H         1 UNK         0.0454 
     81 H81        18.0725  -25.3414  -40.9522 H         1 UNK         0.0851 
     82 H82        18.6993  -24.1996  -42.1412 H         1 UNK         0.0851 
     83 H83        19.8043  -25.1801  -41.1977 H         1 UNK         0.0851 
     84 H84        17.1218  -27.4261  -43.3447 H         1 UNK         0.2976 
     85 H85        21.8144  -27.9332  -43.6754 H         1 UNK         0.3116 
     86 H86        24.6305  -27.4048  -44.3297 H         1 UNK         0.0646 
     87 H87        24.2594  -29.8162  -44.9468 H         1 UNK         0.0847 
     88 H88        25.2618  -29.6945  -43.5125 H         1 UNK         0.0847 
     89 H89        23.5611  -30.1186  -43.3582 H         1 UNK         0.0847 
     90 H90        25.9222  -27.8018  -42.2576 H         1 UNK         0.3040 
     91 H91        24.6034  -26.3351  -40.0566 H         1 UNK         0.1015 
     92 H92        27.5599  -26.9475  -40.6223 H         1 UNK         0.0786 
     93 H93        26.9457  -25.9328  -39.3129 H         1 UNK         0.0786 
     94 H94        26.7216  -25.4443  -40.9769 H         1 UNK         0.0786 
     95 H95        27.2038  -28.0115  -38.8210 H         1 UNK         0.3172 
     96 H96        25.5835  -29.5856  -37.0485 H         1 UNK         0.0595 
     97 H97        28.6217  -29.5540  -37.4742 H         1 UNK         0.0839 
     98 H98        27.7865  -30.2997  -36.1195 H         1 UNK         0.0839 
     99 H99        27.7243  -28.5582  -36.3265 H         1 UNK         0.0839 
    100 H100       27.2983  -30.3299  -40.0326 H         1 UNK         0.2998 
    101 H101       27.0149  -33.2402  -39.8131 H         1 UNK         0.0822 
    102 H102       28.9134  -32.2410  -41.1016 H         1 UNK         0.0787 
    103 H103       27.8764  -33.1869  -42.1574 H         1 UNK         0.0787 
    104 H104       27.7753  -31.4321  -42.1802 H         1 UNK         0.0787 
    105 H105       25.4113  -34.4301  -40.7529 H         1 UNK         0.3055 
    106 H106       23.5103  -35.1129  -41.5958 H         1 UNK         0.1106 
    107 H107       24.2621  -34.1661  -43.7552 H         1 UNK         0.0828 
    108 H108       22.5173  -34.0482  -43.5972 H         1 UNK         0.0828 
    109 H109       23.5101  -32.6192  -43.3758 H         1 UNK         0.0828 
    110 H110       23.0818  -31.5879  -41.1024 H         1 UNK         0.2931 
    111 H111       20.3307  -31.9588  -40.1324 H         1 UNK         0.0412 
    112 H112       22.7523  -31.8622  -36.9344 H         1 UNK         0.3472 
    113 H113       23.3760  -32.1911  -38.5282 H         1 UNK         0.3472 
    114 H114       20.3418  -29.4303  -39.9168 H         1 UNK         0.0970 
    115 H115       21.9806  -29.4220  -40.4947 H         1 UNK         0.0970 
    116 H116       18.4870  -31.1787  -41.5870 H         1 UNK         0.0612 
    117 H117       18.3406  -29.4769  -41.2065 H         1 UNK         0.0612 
@<TRIPOS>BOND
     1    1    2 1    
     2    1   62 1    
     3    1   63 1    
     4    1   64 1    
     5    2    3 2    
     6    2    4 am   BACKBONE|DICT|INTERRES
     7    4    5 1    
     8    4   65 1    
     9    5    6 1    
    10    5   25 1    
    11    5   66 1    
    12    6    7 1    
    13    6   67 1    
    14    6   68 1    
    15    7    8 1    
    16    8    9 1    
    17    8   69 1    
    18    8   70 1    
    19    9   10 ar   
    20    9   14 ar   
    21   10   11 ar   
    22   10   71 1    
    23   11   12 ar   
    24   11   61 1    
    25   12   13 ar   
    26   12   72 1    
    27   13   14 ar   
    28   13   15 1    
    29   14   73 1    
    30   15   16 1    
    31   15   74 1    
    32   15   75 1    
    33   16   17 1    
    34   17   18 1    
    35   17   76 1    
    36   17   77 1    
    37   18   19 1    
    38   18   27 1    
    39   18   78 1    
    40   19   20 am   BACKBONE|DICT|INTERRES
    41   19   79 1    
    42   20   21 2    
    43   20   22 1    
    44   22   23 1    
    45   22   24 1    
    46   22   80 1    
    47   23   81 1    
    48   23   82 1    
    49   23   83 1    
    50   24   25 am   BACKBONE|DICT|INTERRES
    51   24   84 1    
    52   25   26 2    
    53   27   28 2    
    54   27   29 am   BACKBONE|DICT|INTERRES
    55   29   30 1    
    56   29   85 1    
    57   30   31 1    
    58   30   32 1    
    59   30   86 1    
    60   31   87 1    
    61   31   88 1    
    62   31   89 1    
    63   32   33 2    
    64   32   34 am   BACKBONE|DICT|INTERRES
    65   34   35 1    
    66   34   90 1    
    67   35   36 1    
    68   35   37 1    
    69   35   91 1    
    70   36   92 1    
    71   36   93 1    
    72   36   94 1    
    73   37   38 2    
    74   37   39 am   BACKBONE|DICT|INTERRES
    75   39   40 1    
    76   39   95 1    
    77   40   41 1    
    78   40   42 1    
    79   40   96 1    
    80   41   97 1    
    81   41   98 1    
    82   41   99 1    
    83   42   43 2    
    84   42   44 am   BACKBONE|DICT|INTERRES
    85   44   45 1    
    86   44  100 1    
    87   45   46 1    
    88   45   47 1    
    89   45  101 1    
    90   46  102 1    
    91   46  103 1    
    92   46  104 1    
    93   47   48 2    
    94   47   49 am   BACKBONE|DICT|INTERRES
    95   49   50 1    
    96   49  105 1    
    97   50   51 1    
    98   50   52 1    
    99   50  106 1    
   100   51  107 1    
   101   51  108 1    
   102   51  109 1    
   103   52   53 2    
   104   52   54 am   BACKBONE|DICT|INTERRES
   105   54   55 1    
   106   54  110 1    
   107   55   56 1    
   108   55   59 1    
   109   55  111 1    
   110   56   57 am   BACKBONE|DICT|INTERRES
   111   56   58 2    
   112   57  112 1    
   113   57  113 1    
   114   59   60 1    
   115   59  114 1    
   116   59  115 1    
   117   60   61 1    
   118   61  116 1    
   119   61  117 1    
@<TRIPOS>SUBSTRUCTURE
     1 UNK         1 GROUP             0       ****    0 ROOT    
