@<TRIPOS>MOLECULE
3R8
117   119    1
SMALL
USER_CHARGES


@<TRIPOS>ATOM
      1 CA         15.5817  -22.3891  -44.2686 C.3       0 UNK        -0.2013 
      2 C          16.2888  -23.5259  -43.5460 C.2       0 UNK         0.4866 
      3 O          16.5846  -23.4007  -42.3580 O.2       0 UNK        -0.5176 
      4 N          16.5709  -24.6243  -44.2617 N.am      1 UNK        -0.4884 
      5 CA         17.2151  -25.8568  -43.7728 C.3       1 UNK         0.0853 
      6 C6         16.3789  -26.6068  -42.6941 C.3       10 UNK        -0.0849 
      7 S7         14.8828  -27.3489  -43.4389 S.3       10 UNK        -0.2776 
      8 C8         15.1824  -29.1483  -43.2820 C.3       10 UNK         0.0316 
      9 C9         16.5924  -29.5736  -43.6819 C.ar      10 UNK        -0.0863 
     10 C10        17.3954  -30.2699  -42.7711 C.ar      10 UNK        -0.1009 
     11 C11        18.7068  -30.6218  -43.1028 C.ar      10 UNK        -0.0712 
     12 C12        19.2186  -30.2507  -44.3485 C.ar      10 UNK        -0.0894 
     13 C13        18.4240  -29.5763  -45.2768 C.ar      10 UNK        -0.0745 
     14 C14        17.1030  -29.2594  -44.9460 C.ar      10 UNK        -0.0972 
     15 C15        18.9938  -29.1827  -46.6307 C.3       10 UNK         0.0209 
     16 S16        19.3847  -27.4068  -46.6706 S.3       10 UNK        -0.2568 
     17 C17        21.1889  -27.3714  -46.9736 C.3       10 UNK        -0.0983 
     18 CA         22.0979  -27.2487  -45.7103 C.3       3 UNK         0.0876 
     19 N          21.5560  -26.3526  -44.6916 N.am      3 UNK        -0.4424 
     20 C          21.5553  -25.0193  -44.7518 C.2       2 UNK         0.4918 
     21 O          22.1070  -24.3748  -45.6459 O.2       2 UNK        -0.4875 
     22 CA         20.7582  -24.2930  -43.6513 C.3       2 UNK         0.0481 
     23 CB         20.9790  -22.7694  -43.6650 C.3       2 UNK        -0.1831 
     24 N          19.3260  -24.5659  -43.7921 N.am      2 UNK        -0.4498 
     25 C          18.7021  -25.6814  -43.3858 C.2       1 UNK         0.5027 
     26 O          19.2823  -26.5830  -42.7830 O.2       1 UNK        -0.4969 
     27 C          22.4833  -28.5964  -45.0719 C.2       3 UNK         0.5005 
     28 O          22.2846  -28.7913  -43.8675 O.2       3 UNK        -0.5279 
     29 N          23.0749  -29.4825  -45.8903 N.am      4 UNK        -0.4463 
     30 CA         23.6781  -30.7717  -45.5274 C.3       4 UNK         0.0283 
     31 CB         22.5988  -31.7963  -45.1121 C.3       4 UNK        -0.1875 
     32 C          24.7994  -30.5853  -44.4875 C.2       4 UNK         0.4949 
     33 O          25.6136  -29.6708  -44.6375 O.2       4 UNK        -0.5039 
     34 N          24.8211  -31.4216  -43.4426 N.am      5 UNK        -0.4663 
     35 CA         25.7218  -31.3102  -42.2946 C.3       5 UNK         0.0242 
     36 CB         25.8057  -32.6755  -41.5878 C.3       5 UNK        -0.1982 
     37 C          25.2793  -30.1768  -41.3487 C.2       5 UNK         0.5017 
     38 O          24.8553  -30.4471  -40.2246 O.2       5 UNK        -0.5012 
     39 N          25.3578  -28.9341  -41.8467 N.am      6 UNK        -0.4439 
     40 CA         25.1202  -27.6606  -41.1552 C.3       6 UNK         0.0297 
     41 CB         26.3294  -27.3298  -40.2553 C.3       6 UNK        -0.2006 
     42 C          23.7818  -27.5998  -40.3913 C.2       6 UNK         0.4892 
     43 O          23.7641  -27.2120  -39.2220 O.2       6 UNK        -0.5089 
     44 N          22.6958  -28.0212  -41.0573 N.am      7 UNK        -0.4243 
     45 CA         21.3154  -28.1167  -40.5583 C.3       7 UNK         0.0196 
     46 CB         20.8093  -26.7580  -40.0270 C.3       7 UNK        -0.2007 
     47 C          21.0648  -29.2331  -39.5256 C.2       7 UNK         0.5020 
     48 O          19.9042  -29.4695  -39.1887 O.2       7 UNK        -0.5147 
     49 N          22.1125  -29.9160  -39.0435 N.am      8 UNK        -0.4734 
     50 CA         21.9941  -31.0178  -38.0852 C.3       8 UNK         0.0238 
     51 CB         23.2945  -31.1414  -37.2746 C.3       8 UNK        -0.1912 
     52 C          21.6536  -32.3493  -38.7699 C.2       8 UNK         0.5038 
     53 O          21.0041  -33.1891  -38.1461 O.2       8 UNK        -0.5046 
     54 N          22.0969  -32.5179  -40.0259 N.am      9 UNK        -0.4200 
     55 CA         21.9125  -33.7230  -40.8578 C.3       9 UNK         0.0839 
     56 C          22.6351  -35.0018  -40.3235 C.2       9 UNK         0.5513 
     57 N          23.5708  -34.8946  -39.3874 N.am      9 UNK        -0.7519 
     58 O          22.3805  -36.1073  -40.7944 O.2       9 UNK        -0.4960 
     59 C59        20.4144  -33.9635  -41.2277 C.3       10 UNK        -0.0876 
     60 S60        19.9042  -33.0792  -42.7376 S.3       10 UNK        -0.2414 
     61 C61        19.5709  -31.4009  -42.1208 C.3       10 UNK         0.0169 
     62 H62        14.6273  -22.1767  -43.7877 H         1 UNK         0.0903 
     63 H63        16.1896  -21.4854  -44.2327 H         1 UNK         0.0903 
     64 H64        15.3879  -22.6263  -45.3146 H         1 UNK         0.0903 
     65 H65        16.2983  -24.6510  -45.2352 H         1 UNK         0.3096 
     66 H66        17.2699  -26.5082  -44.6449 H         1 UNK         0.1121 
     67 H67        16.0787  -25.9346  -41.8900 H         1 UNK         0.0849 
     68 H68        16.9574  -27.3917  -42.2054 H         1 UNK         0.0849 
     69 H69        14.9722  -29.4401  -42.2518 H         1 UNK         0.0865 
     70 H70        14.4611  -29.6824  -43.9019 H         1 UNK         0.0865 
     71 H71        17.0032  -30.5329  -41.7982 H         1 UNK         0.1346 
     72 H72        20.2371  -30.4973  -44.5990 H         1 UNK         0.1412 
     73 H73        16.4848  -28.7292  -45.6578 H         1 UNK         0.1426 
     74 H74        18.2651  -29.4030  -47.4120 H         1 UNK         0.0716 
     75 H75        19.8789  -29.7769  -46.8622 H         1 UNK         0.0716 
     76 H76        21.3623  -26.4911  -47.5944 H         1 UNK         0.0695 
     77 H77        21.4710  -28.2107  -47.6104 H         1 UNK         0.0695 
     78 H78        23.0506  -26.8225  -46.0333 H         1 UNK         0.0983 
     79 H79        21.0708  -26.8160  -43.9292 H         1 UNK         0.3095 
     80 H80        21.1055  -24.6687  -42.6876 H         1 UNK         0.0454 
     81 H81        20.6421  -22.3177  -44.5988 H         1 UNK         0.0851 
     82 H82        22.0363  -22.5279  -43.5486 H         1 UNK         0.0851 
     83 H83        20.4455  -22.2850  -42.8470 H         1 UNK         0.0851 
     84 H84        18.7845  -23.8915  -44.3126 H         1 UNK         0.2976 
     85 H85        23.2327  -29.2016  -46.8482 H         1 UNK         0.3116 
     86 H86        24.1604  -31.1483  -46.4306 H         1 UNK         0.0646 
     87 H87        22.1561  -31.5520  -44.1465 H         1 UNK         0.0847 
     88 H88        23.0149  -32.8018  -45.0389 H         1 UNK         0.0847 
     89 H89        21.7958  -31.8439  -45.8475 H         1 UNK         0.0847 
     90 H90        24.1083  -32.1337  -43.3898 H         1 UNK         0.3040 
     91 H91        26.7240  -31.0622  -42.6520 H         1 UNK         0.1015 
     92 H92        24.8369  -32.9967  -41.2091 H         1 UNK         0.0786 
     93 H93        26.4882  -32.6329  -40.7379 H         1 UNK         0.0786 
     94 H94        26.1764  -33.4493  -42.2602 H         1 UNK         0.0786 
     95 H95        25.6259  -28.8640  -42.8249 H         1 UNK         0.3172 
     96 H96        25.0629  -26.8950  -41.9303 H         1 UNK         0.0595 
     97 H97        26.2242  -26.3434  -39.8016 H         1 UNK         0.0839 
     98 H98        27.2590  -27.3244  -40.8243 H         1 UNK         0.0839 
     99 H99        26.4363  -28.0523  -39.4451 H         1 UNK         0.0839 
    100 H100       22.8124  -28.3404  -42.0167 H         1 UNK         0.2998 
    101 H101       20.7136  -28.3753  -41.4309 H         1 UNK         0.0822 
    102 H102       21.2531  -26.5019  -39.0648 H         1 UNK         0.0787 
    103 H103       21.0276  -25.9500  -40.7232 H         1 UNK         0.0787 
    104 H104       19.7277  -26.7788  -39.8875 H         1 UNK         0.0787 
    105 H105       23.0466  -29.6853  -39.3651 H         1 UNK         0.3055 
    106 H106       21.1853  -30.7931  -37.3857 H         1 UNK         0.1106 
    107 H107       23.5366  -30.2064  -36.7690 H         1 UNK         0.0828 
    108 H108       23.2010  -31.9099  -36.5062 H         1 UNK         0.0828 
    109 H109       24.1443  -31.4122  -37.9013 H         1 UNK         0.0828 
    110 H110       22.6532  -31.7775  -40.4280 H         1 UNK         0.2931 
    111 H111       22.4490  -33.5086  -41.7827 H         1 UNK         0.0412 
    112 H112       23.8031  -33.9978  -38.9935 H         1 UNK         0.3472 
    113 H113       24.0397  -35.7259  -39.0632 H         1 UNK         0.3472 
    114 H114       19.7432  -33.7094  -40.4070 H         1 UNK         0.0970 
    115 H115       20.2154  -35.0164  -41.4320 H         1 UNK         0.0970 
    116 H116       19.0892  -31.4563  -41.1434 H         1 UNK         0.0612 
    117 H117       20.5186  -30.8810  -41.9780 H         1 UNK         0.0612 
@<TRIPOS>BOND
     1    1    2 1    
     2    1   62 1    
     3    1   63 1    
     4    1   64 1    
     5    2    3 2    
     6    2    4 am   BACKBONE|DICT|INTERRES
     7    4    5 1    
     8    4   65 1    
     9    5    6 1    
    10    5   25 1    
    11    5   66 1    
    12    6    7 1    
    13    6   67 1    
    14    6   68 1    
    15    7    8 1    
    16    8    9 1    
    17    8   69 1    
    18    8   70 1    
    19    9   10 ar   
    20    9   14 ar   
    21   10   11 ar   
    22   10   71 1    
    23   11   12 ar   
    24   11   61 1    
    25   12   13 ar   
    26   12   72 1    
    27   13   14 ar   
    28   13   15 1    
    29   14   73 1    
    30   15   16 1    
    31   15   74 1    
    32   15   75 1    
    33   16   17 1    
    34   17   18 1    
    35   17   76 1    
    36   17   77 1    
    37   18   19 1    
    38   18   27 1    
    39   18   78 1    
    40   19   20 am   BACKBONE|DICT|INTERRES
    41   19   79 1    
    42   20   21 2    
    43   20   22 1    
    44   22   23 1    
    45   22   24 1    
    46   22   80 1    
    47   23   81 1    
    48   23   82 1    
    49   23   83 1    
    50   24   25 am   BACKBONE|DICT|INTERRES
    51   24   84 1    
    52   25   26 2    
    53   27   28 2    
    54   27   29 am   BACKBONE|DICT|INTERRES
    55   29   30 1    
    56   29   85 1    
    57   30   31 1    
    58   30   32 1    
    59   30   86 1    
    60   31   87 1    
    61   31   88 1    
    62   31   89 1    
    63   32   33 2    
    64   32   34 am   BACKBONE|DICT|INTERRES
    65   34   35 1    
    66   34   90 1    
    67   35   36 1    
    68   35   37 1    
    69   35   91 1    
    70   36   92 1    
    71   36   93 1    
    72   36   94 1    
    73   37   38 2    
    74   37   39 am   BACKBONE|DICT|INTERRES
    75   39   40 1    
    76   39   95 1    
    77   40   41 1    
    78   40   42 1    
    79   40   96 1    
    80   41   97 1    
    81   41   98 1    
    82   41   99 1    
    83   42   43 2    
    84   42   44 am   BACKBONE|DICT|INTERRES
    85   44   45 1    
    86   44  100 1    
    87   45   46 1    
    88   45   47 1    
    89   45  101 1    
    90   46  102 1    
    91   46  103 1    
    92   46  104 1    
    93   47   48 2    
    94   47   49 am   BACKBONE|DICT|INTERRES
    95   49   50 1    
    96   49  105 1    
    97   50   51 1    
    98   50   52 1    
    99   50  106 1    
   100   51  107 1    
   101   51  108 1    
   102   51  109 1    
   103   52   53 2    
   104   52   54 am   BACKBONE|DICT|INTERRES
   105   54   55 1    
   106   54  110 1    
   107   55   56 1    
   108   55   59 1    
   109   55  111 1    
   110   56   57 am   BACKBONE|DICT|INTERRES
   111   56   58 2    
   112   57  112 1    
   113   57  113 1    
   114   59   60 1    
   115   59  114 1    
   116   59  115 1    
   117   60   61 1    
   118   61  116 1    
   119   61  117 1    
@<TRIPOS>SUBSTRUCTURE
     1 UNK         1 GROUP             0       ****    0 ROOT    
