@<TRIPOS>MOLECULE
3R8
117   119    1
SMALL
USER_CHARGES


@<TRIPOS>ATOM
      1 CA         21.9251  -22.6235  -46.6442 C.3       0 UNK        -0.2013 
      2 C          21.8304  -23.6750  -45.5489 C.2       0 UNK         0.4866 
      3 O          22.2473  -23.4203  -44.4190 O.2       0 UNK        -0.5176 
      4 N          21.2889  -24.8561  -45.8758 N.am      1 UNK        -0.4884 
      5 CA         21.1207  -25.9844  -44.9527 C.3       1 UNK         0.0853 
      6 C6         20.6605  -27.2674  -45.6885 C.3       10 UNK        -0.0849 
      7 S7         21.9311  -27.9927  -46.7713 S.3       10 UNK        -0.2776 
      8 C8         20.9843  -29.3065  -47.6217 C.3       10 UNK         0.0316 
      9 C9         20.0629  -30.0912  -46.6905 C.ar      10 UNK        -0.0863 
     10 C10        20.5934  -30.9181  -45.6932 C.ar      10 UNK        -0.1009 
     11 C11        19.7442  -31.6153  -44.8272 C.ar      10 UNK        -0.0712 
     12 C12        18.3595  -31.4999  -44.9769 C.ar      10 UNK        -0.0894 
     13 C13        17.8171  -30.6662  -45.9570 C.ar      10 UNK        -0.0745 
     14 C14        18.6736  -29.9704  -46.8159 C.ar      10 UNK        -0.0972 
     15 C15        16.3072  -30.5109  -46.0789 C.3       10 UNK         0.0209 
     16 S16        15.7209  -28.9330  -45.3783 S.3       10 UNK        -0.2568 
     17 C17        15.9441  -29.1773  -43.5788 C.3       10 UNK        -0.0983 
     18 CA         17.3046  -28.6353  -43.0638 C.3       3 UNK         0.0876 
     19 N          17.5664  -27.2481  -43.4545 N.am      3 UNK        -0.4424 
     20 C          17.0802  -26.1131  -42.9330 C.2       2 UNK         0.4918 
     21 O          16.1533  -26.0691  -42.1240 O.2       2 UNK        -0.4875 
     22 CA         17.7926  -24.8027  -43.3558 C.3       2 UNK         0.0481 
     23 CB         18.1057  -23.9183  -42.1308 C.3       2 UNK        -0.1831 
     24 N          19.0117  -24.9997  -44.1659 N.am      2 UNK        -0.4498 
     25 C          20.1086  -25.7003  -43.8285 C.2       1 UNK         0.5027 
     26 O          20.2654  -26.2323  -42.7274 O.2       1 UNK        -0.4969 
     27 C          17.5537  -28.8848  -41.5557 C.2       3 UNK         0.5005 
     28 O          16.8376  -29.6788  -40.9416 O.2       3 UNK        -0.5279 
     29 N          18.5541  -28.1924  -40.9825 N.am      4 UNK        -0.4463 
     30 CA         18.8821  -28.2339  -39.5525 C.3       4 UNK         0.0283 
     31 CB         17.8130  -27.4781  -38.7373 C.3       4 UNK        -0.1875 
     32 C          20.2767  -27.6801  -39.2139 C.2       4 UNK         0.4949 
     33 O          20.8212  -28.0578  -38.1759 O.2       4 UNK        -0.5039 
     34 N          20.8325  -26.7908  -40.0490 N.am      5 UNK        -0.4663 
     35 CA         22.1315  -26.1457  -39.8236 C.3       5 UNK         0.0242 
     36 CB         22.0196  -24.6647  -40.2274 C.3       5 UNK        -0.1982 
     37 C          23.2776  -26.8253  -40.5938 C.2       5 UNK         0.5017 
     38 O          24.4380  -26.4845  -40.3588 O.2       5 UNK        -0.5012 
     39 N          22.9460  -27.7477  -41.5077 N.am      6 UNK        -0.4439 
     40 CA         23.8938  -28.5010  -42.3289 C.3       6 UNK         0.0297 
     41 CB         23.1131  -29.2932  -43.3877 C.3       6 UNK        -0.2006 
     42 C          24.7367  -29.4721  -41.4927 C.2       6 UNK         0.4892 
     43 O          24.1993  -30.1136  -40.5839 O.2       6 UNK        -0.5089 
     44 N          26.0094  -29.6453  -41.8753 N.am      7 UNK        -0.4243 
     45 CA         26.9541  -30.6200  -41.3105 C.3       7 UNK         0.0196 
     46 CB         28.3875  -30.2057  -41.6920 C.3       7 UNK        -0.2007 
     47 C          26.6197  -32.0667  -41.7368 C.2       7 UNK         0.5020 
     48 O          27.4510  -32.7614  -42.3232 O.2       7 UNK        -0.5147 
     49 N          25.3809  -32.4686  -41.4508 N.am      8 UNK        -0.4734 
     50 CA         24.7352  -33.7254  -41.8175 C.3       8 UNK         0.0238 
     51 CB         24.4838  -33.7813  -43.3378 C.3       8 UNK        -0.1912 
     52 C          23.4131  -33.9163  -41.0568 C.2       8 UNK         0.5038 
     53 O          23.0072  -35.0646  -40.8720 O.2       8 UNK        -0.5046 
     54 N          22.7594  -32.8216  -40.6353 N.am      9 UNK        -0.4200 
     55 CA         21.4610  -32.8547  -39.9440 C.3       9 UNK         0.0839 
     56 C          21.2164  -31.6917  -38.9415 C.2       9 UNK         0.5513 
     57 N          22.0747  -30.6854  -38.8419 N.am      9 UNK        -0.7519 
     58 O          20.2222  -31.7117  -38.2206 O.2       9 UNK        -0.4960 
     59 C59        20.2775  -33.0415  -40.9323 C.3       10 UNK        -0.0876 
     60 S60        20.0774  -31.6520  -42.1034 S.3       10 UNK        -0.2414 
     61 C61        20.3025  -32.4782  -43.7078 C.3       10 UNK         0.0169 
     62 H62        22.9649  -22.3373  -46.8000 H         1 UNK         0.0903 
     63 H63        21.5273  -22.9841  -47.5926 H         1 UNK         0.0903 
     64 H64        21.3659  -21.7330  -46.3584 H         1 UNK         0.0903 
     65 H65        20.9976  -25.0219  -46.8293 H         1 UNK         0.3096 
     66 H66        22.0830  -26.1755  -44.4715 H         1 UNK         0.1121 
     67 H67        20.3875  -28.0411  -44.9672 H         1 UNK         0.0849 
     68 H68        19.7639  -27.0749  -46.2816 H         1 UNK         0.0849 
     69 H69        20.4111  -28.8517  -48.4311 H         1 UNK         0.0865 
     70 H70        21.6840  -29.9944  -48.0984 H         1 UNK         0.0865 
     71 H71        21.6658  -30.9997  -45.5804 H         1 UNK         0.1346 
     72 H72        17.7045  -32.0353  -44.3028 H         1 UNK         0.1412 
     73 H73        18.2531  -29.3227  -47.5733 H         1 UNK         0.1426 
     74 H74        16.0270  -30.5513  -47.1325 H         1 UNK         0.0716 
     75 H75        15.7882  -31.3402  -45.5957 H         1 UNK         0.0716 
     76 H76        15.1230  -28.6742  -43.0655 H         1 UNK         0.0695 
     77 H77        15.8404  -30.2399  -43.3527 H         1 UNK         0.0695 
     78 H78        18.0873  -29.2122  -43.5546 H         1 UNK         0.0983 
     79 H79        18.2940  -27.1392  -44.1420 H         1 UNK         0.3095 
     80 H80        17.0882  -24.2621  -43.9894 H         1 UNK         0.0454 
     81 H81        17.1929  -23.6453  -41.6000 H         1 UNK         0.0851 
     82 H82        18.7547  -24.4255  -41.4164 H         1 UNK         0.0851 
     83 H83        18.5952  -22.9905  -42.4264 H         1 UNK         0.0851 
     84 H84        18.9757  -24.6208  -45.1027 H         1 UNK         0.2976 
     85 H85        19.1050  -27.5768  -41.5676 H         1 UNK         0.3116 
     86 H86        18.8830  -29.2805  -39.2393 H         1 UNK         0.0646 
     87 H87        18.0634  -27.4658  -37.6755 H         1 UNK         0.0847 
     88 H88        16.8325  -27.9452  -38.8264 H         1 UNK         0.0847 
     89 H89        17.7200  -26.4417  -39.0642 H         1 UNK         0.0847 
     90 H90        20.3662  -26.5136  -40.9075 H         1 UNK         0.3040 
     91 H91        22.3912  -26.1850  -38.7632 H         1 UNK         0.1015 
     92 H92        21.2237  -24.1624  -39.6773 H         1 UNK         0.0786 
     93 H93        21.8172  -24.5472  -41.2927 H         1 UNK         0.0786 
     94 H94        22.9464  -24.1307  -40.0136 H         1 UNK         0.0786 
     95 H95        21.9686  -27.9742  -41.6092 H         1 UNK         0.3172 
     96 H96        24.5516  -27.7882  -42.8304 H         1 UNK         0.0595 
     97 H97        22.4908  -28.6364  -43.9890 H         1 UNK         0.0839 
     98 H98        22.4639  -30.0441  -42.9368 H         1 UNK         0.0839 
     99 H99        23.7875  -29.8128  -44.0696 H         1 UNK         0.0839 
    100 H100       26.3475  -29.1101  -42.6624 H         1 UNK         0.2998 
    101 H101       26.8762  -30.5815  -40.2217 H         1 UNK         0.0822 
    102 H102       28.6199  -29.2030  -41.3326 H         1 UNK         0.0787 
    103 H103       29.1206  -30.8828  -41.2513 H         1 UNK         0.0787 
    104 H104       28.5383  -30.2194  -42.7723 H         1 UNK         0.0787 
    105 H105       24.8148  -31.7961  -40.9418 H         1 UNK         0.3055 
    106 H106       25.3974  -34.5467  -41.5349 H         1 UNK         0.1106 
    107 H107       23.9460  -34.6896  -43.6137 H         1 UNK         0.0828 
    108 H108       23.8896  -32.9324  -43.6778 H         1 UNK         0.0828 
    109 H109       25.4179  -33.7813  -43.8994 H         1 UNK         0.0828 
    110 H110       23.1182  -31.8974  -40.8291 H         1 UNK         0.2931 
    111 H111       21.4727  -33.7364  -39.3000 H         1 UNK         0.0412 
    112 H112       21.8371  -29.9236  -38.2206 H         1 UNK         0.3472 
    113 H113       22.8947  -30.5950  -39.4334 H         1 UNK         0.3472 
    114 H114       19.3410  -33.1600  -40.3844 H         1 UNK         0.0970 
    115 H115       20.4056  -33.9742  -41.4829 H         1 UNK         0.0970 
    116 H116       19.7855  -33.4389  -43.7075 H         1 UNK         0.0612 
    117 H117       21.3617  -32.6888  -43.8614 H         1 UNK         0.0612 
@<TRIPOS>BOND
     1    1    2 1    
     2    1   62 1    
     3    1   63 1    
     4    1   64 1    
     5    2    3 2    
     6    2    4 am   BACKBONE|DICT|INTERRES
     7    4    5 1    
     8    4   65 1    
     9    5    6 1    
    10    5   25 1    
    11    5   66 1    
    12    6    7 1    
    13    6   67 1    
    14    6   68 1    
    15    7    8 1    
    16    8    9 1    
    17    8   69 1    
    18    8   70 1    
    19    9   10 ar   
    20    9   14 ar   
    21   10   11 ar   
    22   10   71 1    
    23   11   12 ar   
    24   11   61 1    
    25   12   13 ar   
    26   12   72 1    
    27   13   14 ar   
    28   13   15 1    
    29   14   73 1    
    30   15   16 1    
    31   15   74 1    
    32   15   75 1    
    33   16   17 1    
    34   17   18 1    
    35   17   76 1    
    36   17   77 1    
    37   18   19 1    
    38   18   27 1    
    39   18   78 1    
    40   19   20 am   BACKBONE|DICT|INTERRES
    41   19   79 1    
    42   20   21 2    
    43   20   22 1    
    44   22   23 1    
    45   22   24 1    
    46   22   80 1    
    47   23   81 1    
    48   23   82 1    
    49   23   83 1    
    50   24   25 am   BACKBONE|DICT|INTERRES
    51   24   84 1    
    52   25   26 2    
    53   27   28 2    
    54   27   29 am   BACKBONE|DICT|INTERRES
    55   29   30 1    
    56   29   85 1    
    57   30   31 1    
    58   30   32 1    
    59   30   86 1    
    60   31   87 1    
    61   31   88 1    
    62   31   89 1    
    63   32   33 2    
    64   32   34 am   BACKBONE|DICT|INTERRES
    65   34   35 1    
    66   34   90 1    
    67   35   36 1    
    68   35   37 1    
    69   35   91 1    
    70   36   92 1    
    71   36   93 1    
    72   36   94 1    
    73   37   38 2    
    74   37   39 am   BACKBONE|DICT|INTERRES
    75   39   40 1    
    76   39   95 1    
    77   40   41 1    
    78   40   42 1    
    79   40   96 1    
    80   41   97 1    
    81   41   98 1    
    82   41   99 1    
    83   42   43 2    
    84   42   44 am   BACKBONE|DICT|INTERRES
    85   44   45 1    
    86   44  100 1    
    87   45   46 1    
    88   45   47 1    
    89   45  101 1    
    90   46  102 1    
    91   46  103 1    
    92   46  104 1    
    93   47   48 2    
    94   47   49 am   BACKBONE|DICT|INTERRES
    95   49   50 1    
    96   49  105 1    
    97   50   51 1    
    98   50   52 1    
    99   50  106 1    
   100   51  107 1    
   101   51  108 1    
   102   51  109 1    
   103   52   53 2    
   104   52   54 am   BACKBONE|DICT|INTERRES
   105   54   55 1    
   106   54  110 1    
   107   55   56 1    
   108   55   59 1    
   109   55  111 1    
   110   56   57 am   BACKBONE|DICT|INTERRES
   111   56   58 2    
   112   57  112 1    
   113   57  113 1    
   114   59   60 1    
   115   59  114 1    
   116   59  115 1    
   117   60   61 1    
   118   61  116 1    
   119   61  117 1    
@<TRIPOS>SUBSTRUCTURE
     1 UNK         1 GROUP             0       ****    0 ROOT    
