@<TRIPOS>MOLECULE
3R8
117   119    1
SMALL
USER_CHARGES


@<TRIPOS>ATOM
      1 CA         21.7560  -23.7283  -40.7226 C.3       0 UNK        -0.2013 
      2 C          20.3812  -23.9203  -41.3447 C.2       0 UNK         0.4866 
      3 O          19.4514  -23.1814  -41.0194 O.2       0 UNK        -0.5176 
      4 N          20.2530  -24.9117  -42.2308 N.am      1 UNK        -0.4884 
      5 CA         19.0596  -25.2101  -43.0215 C.3       1 UNK         0.0853 
      6 C6         18.6522  -26.7016  -42.8591 C.3       10 UNK        -0.0849 
      7 S7         16.8882  -27.0013  -43.2273 S.3       10 UNK        -0.2776 
      8 C8         16.6385  -28.6775  -42.5525 C.3       10 UNK         0.0316 
      9 C9         17.4975  -29.7151  -43.2626 C.ar      10 UNK        -0.0863 
     10 C10        18.5154  -30.3807  -42.5719 C.ar      10 UNK        -0.1009 
     11 C11        19.3404  -31.2952  -43.2325 C.ar      10 UNK        -0.0712 
     12 C12        19.1214  -31.5661  -44.5851 C.ar      10 UNK        -0.0894 
     13 C13        18.1006  -30.9157  -45.2845 C.ar      10 UNK        -0.0745 
     14 C14        17.2847  -29.9986  -44.6158 C.ar      10 UNK        -0.0972 
     15 C15        17.9100  -31.1796  -46.7718 C.3       10 UNK         0.0209 
     16 S16        18.4127  -29.7606  -47.8022 S.3       10 UNK        -0.2568 
     17 C17        20.1498  -29.4980  -47.2959 C.3       10 UNK        -0.0983 
     18 CA         20.6376  -28.0499  -47.5491 C.3       3 UNK         0.0876 
     19 N          19.7342  -27.0426  -46.9889 N.am      3 UNK        -0.4424 
     20 C          19.5888  -25.8056  -47.4817 C.2       2 UNK         0.4918 
     21 O          20.2460  -25.3550  -48.4205 O.2       2 UNK        -0.4875 
     22 CA         18.5108  -24.9233  -46.8263 C.3       2 UNK         0.0481 
     23 CB         17.1458  -25.1641  -47.4905 C.3       2 UNK        -0.1831 
     24 N          18.3939  -25.1415  -45.3830 N.am      2 UNK        -0.4498 
     25 C          19.3380  -24.8202  -44.4902 C.2       1 UNK         0.5027 
     26 O          20.3843  -24.2417  -44.7990 O.2       1 UNK        -0.4969 
     27 C          22.0763  -27.8687  -47.0294 C.2       3 UNK         0.5005 
     28 O          23.0102  -27.8603  -47.8335 O.2       3 UNK        -0.5279 
     29 N          22.2324  -27.7478  -45.7025 N.am      4 UNK        -0.4463 
     30 CA         23.5125  -27.6787  -44.9954 C.3       4 UNK         0.0283 
     31 CB         24.2747  -29.0225  -45.0970 C.3       4 UNK        -0.1875 
     32 C          23.2871  -27.2003  -43.5479 C.2       4 UNK         0.4949 
     33 O          22.3455  -26.4489  -43.2976 O.2       4 UNK        -0.5039 
     34 N          24.1636  -27.6199  -42.6252 N.am      5 UNK        -0.4663 
     35 CA         24.3240  -27.1196  -41.2513 C.3       5 UNK         0.0242 
     36 CB         25.5982  -27.7503  -40.6613 C.3       5 UNK        -0.1982 
     37 C          23.1397  -27.3026  -40.2773 C.2       5 UNK         0.5017 
     38 O          23.2136  -26.7685  -39.1698 O.2       5 UNK        -0.5012 
     39 N          22.0939  -28.0309  -40.6889 N.am      6 UNK        -0.4439 
     40 CA         20.9020  -28.4234  -39.9242 C.3       6 UNK         0.0297 
     41 CB         20.2120  -27.2211  -39.2409 C.3       6 UNK        -0.2006 
     42 C          21.1783  -29.5649  -38.9298 C.2       6 UNK         0.4892 
     43 O          22.3118  -30.0379  -38.8128 O.2       6 UNK        -0.5089 
     44 N          20.1077  -30.0080  -38.2526 N.am      7 UNK        -0.4243 
     45 CA         20.0492  -31.1597  -37.3465 C.3       7 UNK         0.0196 
     46 CB         20.8835  -30.9084  -36.0682 C.3       7 UNK        -0.2007 
     47 C          20.4070  -32.4516  -38.1022 C.2       7 UNK         0.5020 
     48 O          19.6384  -32.8654  -38.9702 O.2       7 UNK        -0.5147 
     49 N          21.5610  -33.0496  -37.7867 N.am      8 UNK        -0.4734 
     50 CA         22.1084  -34.2083  -38.4952 C.3       8 UNK         0.0238 
     51 CB         23.0529  -34.9671  -37.5476 C.3       8 UNK        -0.1912 
     52 C          22.8432  -33.8360  -39.7978 C.2       8 UNK         0.5038 
     53 O          23.1001  -34.7339  -40.6015 O.2       8 UNK        -0.5046 
     54 N          23.1859  -32.5502  -39.9776 N.am      9 UNK        -0.4200 
     55 CA         24.0354  -32.0154  -41.0550 C.3       9 UNK         0.0839 
     56 C          25.4898  -32.5850  -41.0322 C.2       9 UNK         0.5513 
     57 N          26.2815  -32.3642  -42.0740 N.am      9 UNK        -0.7519 
     58 O          25.9399  -33.1768  -40.0525 O.2       9 UNK        -0.4960 
     59 C59        23.3413  -32.0823  -42.4477 C.3       10 UNK        -0.0876 
     60 S60        21.9670  -30.8911  -42.5864 S.3       10 UNK        -0.2414 
     61 C61        20.4993  -31.9588  -42.5069 C.3       10 UNK         0.0169 
     62 H62        22.0399  -22.6767  -40.7489 H         1 UNK         0.0903 
     63 H63        21.7475  -24.0564  -39.6834 H         1 UNK         0.0903 
     64 H64        22.5201  -24.2965  -41.2528 H         1 UNK         0.0903 
     65 H65        21.0812  -25.4298  -42.5266 H         1 UNK         0.3096 
     66 H66        18.2326  -24.5828  -42.6814 H         1 UNK         0.1121 
     67 H67        19.2786  -27.3597  -43.4650 H         1 UNK         0.0849 
     68 H68        18.8113  -27.0131  -41.8267 H         1 UNK         0.0849 
     69 H69        16.8414  -28.6666  -41.4805 H         1 UNK         0.0865 
     70 H70        15.5878  -28.9501  -42.6613 H         1 UNK         0.0865 
     71 H71        18.6792  -30.1773  -41.5242 H         1 UNK         0.1346 
     72 H72        19.7688  -32.2617  -45.1015 H         1 UNK         0.1412 
     73 H73        16.5038  -29.4817  -45.1572 H         1 UNK         0.1426 
     74 H74        16.8603  -31.4037  -46.9662 H         1 UNK         0.0716 
     75 H75        18.4735  -32.0601  -47.0847 H         1 UNK         0.0716 
     76 H76        20.7727  -30.2107  -47.8398 H         1 UNK         0.0695 
     77 H77        20.2627  -29.7419  -46.2402 H         1 UNK         0.0695 
     78 H78        20.6687  -27.9098  -48.6325 H         1 UNK         0.0983 
     79 H79        19.1264  -27.3446  -46.2429 H         1 UNK         0.3095 
     80 H80        18.7883  -23.8797  -46.9897 H         1 UNK         0.0454 
     81 H81        17.1988  -24.9856  -48.5654 H         1 UNK         0.0851 
     82 H82        16.3850  -24.4938  -47.0901 H         1 UNK         0.0851 
     83 H83        16.8001  -26.1889  -47.3480 H         1 UNK         0.0851 
     84 H84        17.5642  -25.6174  -45.0507 H         1 UNK         0.2976 
     85 H85        21.4176  -27.6779  -45.1089 H         1 UNK         0.3116 
     86 H86        24.1157  -26.9065  -45.4766 H         1 UNK         0.0646 
     87 H87        24.4585  -29.3021  -46.1339 H         1 UNK         0.0847 
     88 H88        25.2548  -28.9751  -44.6222 H         1 UNK         0.0847 
     89 H89        23.7154  -29.8357  -44.6384 H         1 UNK         0.0847 
     90 H90        24.8770  -28.2640  -42.9330 H         1 UNK         0.3040 
     91 H91        24.4863  -26.0423  -41.3251 H         1 UNK         0.1015 
     92 H92        25.8023  -27.3673  -39.6603 H         1 UNK         0.0786 
     93 H93        26.4740  -27.5271  -41.2710 H         1 UNK         0.0786 
     94 H94        25.5095  -28.8344  -40.5811 H         1 UNK         0.0786 
     95 H95        22.1728  -28.4520  -41.6043 H         1 UNK         0.3172 
     96 H96        20.2145  -28.8171  -40.6703 H         1 UNK         0.0595 
     97 H97        20.7475  -26.8970  -38.3479 H         1 UNK         0.0839 
     98 H98        19.1953  -27.4666  -38.9339 H         1 UNK         0.0839 
     99 H99        20.1402  -26.3681  -39.9094 H         1 UNK         0.0839 
    100 H100       19.2174  -29.5692  -38.4396 H         1 UNK         0.2998 
    101 H101       19.0069  -31.2653  -37.0415 H         1 UNK         0.0822 
    102 H102       20.8049  -31.7485  -35.3766 H         1 UNK         0.0787 
    103 H103       20.5228  -30.0268  -35.5382 H         1 UNK         0.0787 
    104 H104       21.9413  -30.7495  -36.2790 H         1 UNK         0.0787 
    105 H105       22.1395  -32.6313  -37.0719 H         1 UNK         0.3055 
    106 H106       21.2893  -34.8782  -38.7677 H         1 UNK         0.1106 
    107 H107       22.5355  -35.2899  -36.6440 H         1 UNK         0.0828 
    108 H108       23.4510  -35.8622  -38.0277 H         1 UNK         0.0828 
    109 H109       23.9041  -34.3537  -37.2490 H         1 UNK         0.0828 
    110 H110       22.8995  -31.8632  -39.2877 H         1 UNK         0.2931 
    111 H111       24.1663  -30.9621  -40.8044 H         1 UNK         0.0412 
    112 H112       25.9637  -31.8547  -42.8822 H         1 UNK         0.3472 
    113 H113       27.2269  -32.7138  -42.0460 H         1 UNK         0.3472 
    114 H114       24.0321  -31.8264  -43.2501 H         1 UNK         0.0970 
    115 H115       23.0032  -33.0940  -42.6731 H         1 UNK         0.0970 
    116 H116       20.7110  -32.9297  -42.9565 H         1 UNK         0.0612 
    117 H117       20.2448  -32.1454  -41.4635 H         1 UNK         0.0612 
@<TRIPOS>BOND
     1    1    2 1    
     2    1   62 1    
     3    1   63 1    
     4    1   64 1    
     5    2    3 2    
     6    2    4 am   BACKBONE|DICT|INTERRES
     7    4    5 1    
     8    4   65 1    
     9    5    6 1    
    10    5   25 1    
    11    5   66 1    
    12    6    7 1    
    13    6   67 1    
    14    6   68 1    
    15    7    8 1    
    16    8    9 1    
    17    8   69 1    
    18    8   70 1    
    19    9   10 ar   
    20    9   14 ar   
    21   10   11 ar   
    22   10   71 1    
    23   11   12 ar   
    24   11   61 1    
    25   12   13 ar   
    26   12   72 1    
    27   13   14 ar   
    28   13   15 1    
    29   14   73 1    
    30   15   16 1    
    31   15   74 1    
    32   15   75 1    
    33   16   17 1    
    34   17   18 1    
    35   17   76 1    
    36   17   77 1    
    37   18   19 1    
    38   18   27 1    
    39   18   78 1    
    40   19   20 am   BACKBONE|DICT|INTERRES
    41   19   79 1    
    42   20   21 2    
    43   20   22 1    
    44   22   23 1    
    45   22   24 1    
    46   22   80 1    
    47   23   81 1    
    48   23   82 1    
    49   23   83 1    
    50   24   25 am   BACKBONE|DICT|INTERRES
    51   24   84 1    
    52   25   26 2    
    53   27   28 2    
    54   27   29 am   BACKBONE|DICT|INTERRES
    55   29   30 1    
    56   29   85 1    
    57   30   31 1    
    58   30   32 1    
    59   30   86 1    
    60   31   87 1    
    61   31   88 1    
    62   31   89 1    
    63   32   33 2    
    64   32   34 am   BACKBONE|DICT|INTERRES
    65   34   35 1    
    66   34   90 1    
    67   35   36 1    
    68   35   37 1    
    69   35   91 1    
    70   36   92 1    
    71   36   93 1    
    72   36   94 1    
    73   37   38 2    
    74   37   39 am   BACKBONE|DICT|INTERRES
    75   39   40 1    
    76   39   95 1    
    77   40   41 1    
    78   40   42 1    
    79   40   96 1    
    80   41   97 1    
    81   41   98 1    
    82   41   99 1    
    83   42   43 2    
    84   42   44 am   BACKBONE|DICT|INTERRES
    85   44   45 1    
    86   44  100 1    
    87   45   46 1    
    88   45   47 1    
    89   45  101 1    
    90   46  102 1    
    91   46  103 1    
    92   46  104 1    
    93   47   48 2    
    94   47   49 am   BACKBONE|DICT|INTERRES
    95   49   50 1    
    96   49  105 1    
    97   50   51 1    
    98   50   52 1    
    99   50  106 1    
   100   51  107 1    
   101   51  108 1    
   102   51  109 1    
   103   52   53 2    
   104   52   54 am   BACKBONE|DICT|INTERRES
   105   54   55 1    
   106   54  110 1    
   107   55   56 1    
   108   55   59 1    
   109   55  111 1    
   110   56   57 am   BACKBONE|DICT|INTERRES
   111   56   58 2    
   112   57  112 1    
   113   57  113 1    
   114   59   60 1    
   115   59  114 1    
   116   59  115 1    
   117   60   61 1    
   118   61  116 1    
   119   61  117 1    
@<TRIPOS>SUBSTRUCTURE
     1 UNK         1 GROUP             0       ****    0 ROOT    
