@<TRIPOS>MOLECULE
3R8
117   119    1
SMALL
USER_CHARGES


@<TRIPOS>ATOM
      1 CA         19.4174  -23.5602  -41.6416 C.3       0 UNK        -0.2013 
      2 C          18.9977  -24.3843  -42.8484 C.2       0 UNK         0.4866 
      3 O          19.6195  -25.4094  -43.1232 O.2       0 UNK        -0.5176 
      4 N          17.9669  -23.9272  -43.5782 N.am      1 UNK        -0.4884 
      5 CA         17.2815  -24.5720  -44.7193 C.3       1 UNK         0.0853 
      6 C6         16.0860  -25.4720  -44.2877 C.3       10 UNK        -0.0849 
      7 S7         16.5153  -26.8764  -43.1993 S.3       10 UNK        -0.2776 
      8 C8         15.3941  -28.1942  -43.7710 C.3       10 UNK         0.0316 
      9 C9         16.1832  -29.4560  -44.0716 C.ar      10 UNK        -0.0863 
     10 C10        16.4402  -30.3869  -43.0600 C.ar      10 UNK        -0.1009 
     11 C11        17.2347  -31.5092  -43.3143 C.ar      10 UNK        -0.0712 
     12 C12        17.7502  -31.7091  -44.5980 C.ar      10 UNK        -0.0894 
     13 C13        17.5261  -30.7658  -45.6061 C.ar      10 UNK        -0.0745 
     14 C14        16.7172  -29.6561  -45.3470 C.ar      10 UNK        -0.0972 
     15 C15        18.2963  -30.8566  -46.9157 C.3       10 UNK         0.0209 
     16 S16        19.6307  -29.6018  -47.0166 S.3       10 UNK        -0.2568 
     17 C17        20.2618  -29.5340  -45.2985 C.3       10 UNK        -0.0983 
     18 CA         21.2418  -28.3830  -44.9490 C.3       3 UNK         0.0876 
     19 N          20.7793  -27.0485  -45.3503 N.am      3 UNK        -0.4424 
     20 C          21.1113  -26.4532  -46.5053 C.2       2 UNK         0.4918 
     21 O          21.8887  -26.9512  -47.3219 O.2       2 UNK        -0.4875 
     22 CA         20.5161  -25.0609  -46.8159 C.3       2 UNK         0.0481 
     23 CB         20.1197  -24.9194  -48.3010 C.3       2 UNK        -0.1831 
     24 N          19.4144  -24.6462  -45.9398 N.am      2 UNK        -0.4498 
     25 C          18.1970  -25.1971  -45.8047 C.2       1 UNK         0.5027 
     26 O          17.7902  -26.1352  -46.4914 O.2       1 UNK        -0.4969 
     27 C          21.5221  -28.3975  -43.4372 C.2       3 UNK         0.5005 
     28 O          22.6529  -28.6572  -43.0295 O.2       3 UNK        -0.5279 
     29 N          20.4860  -28.1073  -42.6329 N.am      4 UNK        -0.4463 
     30 CA         20.4571  -28.1498  -41.1640 C.3       4 UNK         0.0283 
     31 CB         19.0120  -27.9306  -40.6887 C.3       4 UNK        -0.1875 
     32 C          21.4195  -27.1806  -40.4520 C.2       4 UNK         0.4949 
     33 O          21.5872  -27.2854  -39.2366 O.2       4 UNK        -0.5039 
     34 N          22.0556  -26.2759  -41.2074 N.am      5 UNK        -0.4663 
     35 CA         23.2239  -25.5035  -40.7820 C.3       5 UNK         0.0242 
     36 CB         23.5565  -24.4631  -41.8634 C.3       5 UNK        -0.1982 
     37 C          24.4538  -26.3883  -40.4850 C.2       5 UNK         0.5017 
     38 O          25.2783  -26.0018  -39.6555 O.2       5 UNK        -0.5012 
     39 N          24.5520  -27.5509  -41.1470 N.am      6 UNK        -0.4439 
     40 CA         25.5350  -28.5950  -40.8641 C.3       6 UNK         0.0297 
     41 CB         25.9067  -29.3036  -42.1768 C.3       6 UNK        -0.2006 
     42 C          24.9538  -29.6035  -39.8612 C.2       6 UNK         0.4892 
     43 O          23.7352  -29.7936  -39.8080 O.2       6 UNK        -0.5089 
     44 N          25.8448  -30.2557  -39.1017 N.am      7 UNK        -0.4243 
     45 CA         25.5112  -31.2894  -38.1176 C.3       7 UNK         0.0196 
     46 CB         26.7910  -31.7410  -37.3956 C.3       7 UNK        -0.2007 
     47 C          24.8033  -32.4890  -38.7685 C.2       7 UNK         0.5020 
     48 O          25.2878  -33.0028  -39.7793 O.2       7 UNK        -0.5147 
     49 N          23.6571  -32.8834  -38.1945 N.am      8 UNK        -0.4734 
     50 CA         22.7524  -33.9448  -38.6664 C.3       8 UNK         0.0238 
     51 CB         23.4054  -35.3311  -38.4770 C.3       8 UNK        -0.1912 
     52 C          22.2327  -33.7274  -40.1056 C.2       8 UNK         0.5038 
     53 O          21.9472  -34.7026  -40.8029 O.2       8 UNK        -0.5046 
     54 N          22.1388  -32.4565  -40.5224 N.am      9 UNK        -0.4200 
     55 CA         21.8169  -32.0058  -41.8854 C.3       9 UNK         0.0839 
     56 C          22.9313  -32.3026  -42.9359 C.2       9 UNK         0.5513 
     57 N          24.1526  -32.6463  -42.5406 N.am      9 UNK        -0.7519 
     58 O          22.6944  -32.2009  -44.1366 O.2       9 UNK        -0.4960 
     59 C59        20.4001  -32.4307  -42.3751 C.3       10 UNK        -0.0876 
     60 S60        19.0486  -31.9264  -41.2550 S.3       10 UNK        -0.2414 
     61 C61        17.5789  -32.4739  -42.1880 C.3       10 UNK         0.0169 
     62 H62        20.3618  -23.0560  -41.8417 H         1 UNK         0.0903 
     63 H63        18.6735  -22.8067  -41.3841 H         1 UNK         0.0903 
     64 H64        19.5546  -24.2090  -40.7769 H         1 UNK         0.0903 
     65 H65        17.5483  -23.0523  -43.2931 H         1 UNK         0.3096 
     66 H66        16.8273  -23.7352  -45.2531 H         1 UNK         0.1121 
     67 H67        15.5543  -25.8305  -45.1703 H         1 UNK         0.0849 
     68 H68        15.3593  -24.8625  -43.7489 H         1 UNK         0.0849 
     69 H69        14.6495  -28.3893  -42.9978 H         1 UNK         0.0865 
     70 H70        14.8362  -27.8870  -44.6561 H         1 UNK         0.0865 
     71 H71        16.0565  -30.2167  -42.0632 H         1 UNK         0.1346 
     72 H72        18.3912  -32.5583  -44.7904 H         1 UNK         0.1412 
     73 H73        16.5753  -28.9057  -46.1137 H         1 UNK         0.1426 
     74 H74        18.7375  -31.8476  -47.0328 H         1 UNK         0.0716 
     75 H75        17.6130  -30.7223  -47.7553 H         1 UNK         0.0716 
     76 H76        20.7288  -30.4962  -45.0857 H         1 UNK         0.0695 
     77 H77        19.4064  -29.4546  -44.6309 H         1 UNK         0.0695 
     78 H78        22.1935  -28.5950  -45.4415 H         1 UNK         0.0983 
     79 H79        20.2038  -26.5379  -44.6867 H         1 UNK         0.3095 
     80 H80        21.3208  -24.3495  -46.6261 H         1 UNK         0.0454 
     81 H81        19.3749  -25.6602  -48.5932 H         1 UNK         0.0851 
     82 H82        20.9832  -25.0570  -48.9528 H         1 UNK         0.0851 
     83 H83        19.7126  -23.9309  -48.5125 H         1 UNK         0.0851 
     84 H84        19.6388  -23.9015  -45.2942 H         1 UNK         0.2976 
     85 H85        19.6159  -27.8230  -43.0630 H         1 UNK         0.3116 
     86 H86        20.7557  -29.1540  -40.8623 H         1 UNK         0.0646 
     87 H87        18.3342  -28.6641  -41.1261 H         1 UNK         0.0847 
     88 H88        18.9361  -28.0287  -39.6052 H         1 UNK         0.0847 
     89 H89        18.6492  -26.9368  -40.9523 H         1 UNK         0.0847 
     90 H90        21.7936  -26.2210  -42.1818 H         1 UNK         0.3040 
     91 H91        22.9645  -24.9788  -39.8600 H         1 UNK         0.1015 
     92 H92        23.8083  -24.9357  -42.8138 H         1 UNK         0.0786 
     93 H93        24.4099  -23.8519  -41.5665 H         1 UNK         0.0786 
     94 H94        22.7198  -23.7868  -42.0362 H         1 UNK         0.0786 
     95 H95        23.7916  -27.8287  -41.7653 H         1 UNK         0.3172 
     96 H96        26.4384  -28.1502  -40.4413 H         1 UNK         0.0595 
     97 H97        25.0451  -29.7993  -42.6258 H         1 UNK         0.0839 
     98 H98        26.6669  -30.0675  -42.0091 H         1 UNK         0.0839 
     99 H99        26.3067  -28.6014  -42.9081 H         1 UNK         0.0839 
    100 H100       26.8271  -30.0664  -39.2380 H         1 UNK         0.2998 
    101 H101       24.8425  -30.8368  -37.3822 H         1 UNK         0.0822 
    102 H102       26.5670  -32.4970  -36.6417 H         1 UNK         0.0787 
    103 H103       27.5123  -32.1766  -38.0886 H         1 UNK         0.0787 
    104 H104       27.2751  -30.9087  -36.8844 H         1 UNK         0.0787 
    105 H105       23.3402  -32.3798  -37.3764 H         1 UNK         0.3055 
    106 H106       21.8693  -33.9064  -38.0262 H         1 UNK         0.1106 
    107 H107       22.6966  -36.1321  -38.6908 H         1 UNK         0.0828 
    108 H108       24.2602  -35.4689  -39.1399 H         1 UNK         0.0828 
    109 H109       23.7492  -35.4720  -37.4524 H         1 UNK         0.0828 
    110 H110       22.4468  -31.7229  -39.8971 H         1 UNK         0.2931 
    111 H111       21.8118  -30.9206  -41.8134 H         1 UNK         0.0412 
    112 H112       24.3833  -32.7392  -41.5571 H         1 UNK         0.3472 
    113 H113       24.8568  -32.8292  -43.2370 H         1 UNK         0.3472 
    114 H114       20.3507  -33.5099  -42.5262 H         1 UNK         0.0970 
    115 H115       20.2033  -31.9810  -43.3469 H         1 UNK         0.0970 
    116 H116       16.7358  -32.5476  -41.4996 H         1 UNK         0.0612 
    117 H117       17.7426  -33.4797  -42.5779 H         1 UNK         0.0612 
@<TRIPOS>BOND
     1    1    2 1    
     2    1   62 1    
     3    1   63 1    
     4    1   64 1    
     5    2    3 2    
     6    2    4 am   BACKBONE|DICT|INTERRES
     7    4    5 1    
     8    4   65 1    
     9    5    6 1    
    10    5   25 1    
    11    5   66 1    
    12    6    7 1    
    13    6   67 1    
    14    6   68 1    
    15    7    8 1    
    16    8    9 1    
    17    8   69 1    
    18    8   70 1    
    19    9   10 ar   
    20    9   14 ar   
    21   10   11 ar   
    22   10   71 1    
    23   11   12 ar   
    24   11   61 1    
    25   12   13 ar   
    26   12   72 1    
    27   13   14 ar   
    28   13   15 1    
    29   14   73 1    
    30   15   16 1    
    31   15   74 1    
    32   15   75 1    
    33   16   17 1    
    34   17   18 1    
    35   17   76 1    
    36   17   77 1    
    37   18   19 1    
    38   18   27 1    
    39   18   78 1    
    40   19   20 am   BACKBONE|DICT|INTERRES
    41   19   79 1    
    42   20   21 2    
    43   20   22 1    
    44   22   23 1    
    45   22   24 1    
    46   22   80 1    
    47   23   81 1    
    48   23   82 1    
    49   23   83 1    
    50   24   25 am   BACKBONE|DICT|INTERRES
    51   24   84 1    
    52   25   26 2    
    53   27   28 2    
    54   27   29 am   BACKBONE|DICT|INTERRES
    55   29   30 1    
    56   29   85 1    
    57   30   31 1    
    58   30   32 1    
    59   30   86 1    
    60   31   87 1    
    61   31   88 1    
    62   31   89 1    
    63   32   33 2    
    64   32   34 am   BACKBONE|DICT|INTERRES
    65   34   35 1    
    66   34   90 1    
    67   35   36 1    
    68   35   37 1    
    69   35   91 1    
    70   36   92 1    
    71   36   93 1    
    72   36   94 1    
    73   37   38 2    
    74   37   39 am   BACKBONE|DICT|INTERRES
    75   39   40 1    
    76   39   95 1    
    77   40   41 1    
    78   40   42 1    
    79   40   96 1    
    80   41   97 1    
    81   41   98 1    
    82   41   99 1    
    83   42   43 2    
    84   42   44 am   BACKBONE|DICT|INTERRES
    85   44   45 1    
    86   44  100 1    
    87   45   46 1    
    88   45   47 1    
    89   45  101 1    
    90   46  102 1    
    91   46  103 1    
    92   46  104 1    
    93   47   48 2    
    94   47   49 am   BACKBONE|DICT|INTERRES
    95   49   50 1    
    96   49  105 1    
    97   50   51 1    
    98   50   52 1    
    99   50  106 1    
   100   51  107 1    
   101   51  108 1    
   102   51  109 1    
   103   52   53 2    
   104   52   54 am   BACKBONE|DICT|INTERRES
   105   54   55 1    
   106   54  110 1    
   107   55   56 1    
   108   55   59 1    
   109   55  111 1    
   110   56   57 am   BACKBONE|DICT|INTERRES
   111   56   58 2    
   112   57  112 1    
   113   57  113 1    
   114   59   60 1    
   115   59  114 1    
   116   59  115 1    
   117   60   61 1    
   118   61  116 1    
   119   61  117 1    
@<TRIPOS>SUBSTRUCTURE
     1 UNK         1 GROUP             0       ****    0 ROOT    
