@<TRIPOS>MOLECULE
3R8
117   119    1
SMALL
USER_CHARGES


@<TRIPOS>ATOM
      1 CA         14.8918  -24.8429  -46.3235 C.3       0 UNK        -0.2013 
      2 C          16.4054  -24.8729  -46.4758 C.2       0 UNK         0.4866 
      3 O          16.9855  -23.9320  -47.0192 O.2       0 UNK        -0.5176 
      4 N          17.0464  -25.9495  -46.0063 N.am      1 UNK        -0.4884 
      5 CA         18.5036  -26.1201  -46.0089 C.3       1 UNK         0.0853 
      6 C6         18.9315  -27.6122  -45.9705 C.3       10 UNK        -0.0849 
      7 S7         18.0774  -28.7217  -47.1505 S.3       10 UNK        -0.2776 
      8 C8         16.6898  -29.4230  -46.1840 C.3       10 UNK         0.0316 
      9 C9         17.1422  -30.1591  -44.9283 C.ar      10 UNK        -0.0863 
     10 C10        17.4724  -31.5166  -44.9713 C.ar      10 UNK        -0.1009 
     11 C11        17.8934  -32.1767  -43.8126 C.ar      10 UNK        -0.0712 
     12 C12        18.0194  -31.4606  -42.6172 C.ar      10 UNK        -0.0894 
     13 C13        17.6909  -30.1029  -42.5549 C.ar      10 UNK        -0.0745 
     14 C14        17.2141  -29.4749  -43.7122 C.ar      10 UNK        -0.0972 
     15 C15        17.8764  -29.3635  -41.2266 C.3       10 UNK         0.0209 
     16 S16        17.7211  -27.5422  -41.3213 S.3       10 UNK        -0.2568 
     17 C17        18.9580  -27.0025  -40.1009 C.3       10 UNK        -0.0983 
     18 CA         20.3653  -26.8687  -40.7293 C.3       3 UNK         0.0876 
     19 N          20.4063  -25.8989  -41.8306 N.am      3 UNK        -0.4424 
     20 C          21.4613  -25.6683  -42.6218 C.2       2 UNK         0.4918 
     21 O          22.5337  -26.2689  -42.5200 O.2       2 UNK        -0.4875 
     22 CA         21.2623  -24.6385  -43.7514 C.3       2 UNK         0.0481 
     23 CB         22.5994  -24.1361  -44.3260 C.3       2 UNK        -0.1831 
     24 N          20.4654  -25.2068  -44.8420 N.am      2 UNK        -0.4498 
     25 C          19.1349  -25.3625  -44.8173 C.2       1 UNK         0.5027 
     26 O          18.4304  -24.9777  -43.8787 O.2       1 UNK        -0.4969 
     27 C          21.4107  -26.5524  -39.6448 C.2       3 UNK         0.5005 
     28 O          21.5736  -25.3870  -39.2751 O.2       3 UNK        -0.5279 
     29 N          22.1121  -27.5951  -39.1787 N.am      4 UNK        -0.4463 
     30 CA         23.2034  -27.6142  -38.1935 C.3       4 UNK         0.0283 
     31 CB         22.7769  -27.0067  -36.8429 C.3       4 UNK        -0.1875 
     32 C          24.5155  -26.9904  -38.7012 C.2       4 UNK         0.4949 
     33 O          25.5860  -27.5049  -38.3782 O.2       4 UNK        -0.5039 
     34 N          24.4199  -25.9212  -39.5009 N.am      5 UNK        -0.4663 
     35 CA         25.5389  -25.2752  -40.1876 C.3       5 UNK         0.0242 
     36 CB         25.0675  -23.9335  -40.7689 C.3       5 UNK        -0.1982 
     37 C          26.1522  -26.1599  -41.2867 C.2       5 UNK         0.5017 
     38 O          27.3696  -26.1269  -41.4715 O.2       5 UNK        -0.5012 
     39 N          25.3094  -26.9370  -41.9795 N.am      6 UNK        -0.4439 
     40 CA         25.7133  -27.8875  -43.0136 C.3       6 UNK         0.0297 
     41 CB         25.7773  -27.1904  -44.3844 C.3       6 UNK        -0.2006 
     42 C          24.7868  -29.1095  -43.0563 C.2       6 UNK         0.4892 
     43 O          25.2859  -30.2355  -43.0766 O.2       6 UNK        -0.5089 
     44 N          23.4667  -28.8806  -43.0917 N.am      7 UNK        -0.4243 
     45 CA         22.4605  -29.9378  -43.2041 C.3       7 UNK         0.0196 
     46 CB         21.1984  -29.3787  -43.8772 C.3       7 UNK        -0.2007 
     47 C          22.1306  -30.5591  -41.8398 C.2       7 UNK         0.5020 
     48 O          22.1261  -29.8621  -40.8233 O.2       7 UNK        -0.5147 
     49 N          21.8244  -31.8574  -41.8626 N.am      8 UNK        -0.4734 
     50 CA         21.4581  -32.6976  -40.7189 C.3       8 UNK         0.0238 
     51 CB         22.6152  -32.8255  -39.7071 C.3       8 UNK        -0.1912 
     52 C          21.0368  -34.0792  -41.2347 C.2       8 UNK         0.5038 
     53 O          20.0470  -34.6319  -40.7562 O.2       8 UNK        -0.5046 
     54 N          21.7720  -34.5704  -42.2438 N.am      9 UNK        -0.4200 
     55 CA         21.4790  -35.7644  -43.0565 C.3       9 UNK         0.0839 
     56 C          21.6856  -37.1251  -42.3259 C.2       9 UNK         0.5513 
     57 N          22.3365  -37.1631  -41.1696 N.am      9 UNK        -0.7519 
     58 O          21.2765  -38.1691  -42.8281 O.2       9 UNK        -0.4960 
     59 C59        20.1163  -35.6939  -43.8113 C.3       10 UNK        -0.0876 
     60 S60        19.7796  -34.0694  -44.5899 S.3       10 UNK        -0.2414 
     61 C61        18.1728  -33.6713  -43.8330 C.3       10 UNK         0.0169 
     62 H62        14.5115  -25.7437  -45.8421 H         1 UNK         0.0903 
     63 H63        14.5930  -23.9852  -45.7215 H         1 UNK         0.0903 
     64 H64        14.4180  -24.7555  -47.3009 H         1 UNK         0.0903 
     65 H65        16.5245  -26.6693  -45.5316 H         1 UNK         0.3096 
     66 H66        18.8955  -25.6795  -46.9288 H         1 UNK         0.1121 
     67 H67        19.9918  -27.6777  -46.2179 H         1 UNK         0.0849 
     68 H68        18.8627  -28.0127  -44.9631 H         1 UNK         0.0849 
     69 H69        15.9870  -28.6308  -45.9252 H         1 UNK         0.0865 
     70 H70        16.1341  -30.1083  -46.8259 H         1 UNK         0.0865 
     71 H71        17.3947  -32.0624  -45.9019 H         1 UNK         0.1346 
     72 H72        18.3648  -31.9671  -41.7261 H         1 UNK         0.1412 
     73 H73        16.9298  -28.4335  -43.6917 H         1 UNK         0.1426 
     74 H74        18.8635  -29.6147  -40.8350 H         1 UNK         0.0716 
     75 H75        17.1506  -29.7382  -40.5038 H         1 UNK         0.0716 
     76 H76        18.9625  -27.7112  -39.2700 H         1 UNK         0.0695 
     77 H77        18.6331  -26.0469  -39.6850 H         1 UNK         0.0695 
     78 H78        20.6234  -27.8334  -41.1627 H         1 UNK         0.0983 
     79 H79        19.5408  -25.4143  -42.0344 H         1 UNK         0.3095 
     80 H80        20.7373  -23.7773  -43.3326 H         1 UNK         0.0454 
     81 H81        23.1791  -24.9419  -44.7767 H         1 UNK         0.0851 
     82 H82        23.2156  -23.6869  -43.5476 H         1 UNK         0.0851 
     83 H83        22.4407  -23.3728  -45.0878 H         1 UNK         0.0851 
     84 H84        20.9850  -25.5652  -45.6305 H         1 UNK         0.2976 
     85 H85        21.9726  -28.4914  -39.6486 H         1 UNK         0.3116 
     86 H86        23.4121  -28.6717  -38.0223 H         1 UNK         0.0646 
     87 H87        22.5933  -25.9344  -36.9138 H         1 UNK         0.0847 
     88 H88        23.5557  -27.1492  -36.0927 H         1 UNK         0.0847 
     89 H89        21.8711  -27.4790  -36.4632 H         1 UNK         0.0847 
     90 H90        23.4903  -25.5441  -39.6611 H         1 UNK         0.3040 
     91 H91        26.3207  -25.0768  -39.4509 H         1 UNK         0.1015 
     92 H92        24.2426  -24.0686  -41.4681 H         1 UNK         0.0786 
     93 H93        25.8748  -23.4322  -41.3047 H         1 UNK         0.0786 
     94 H94        24.7316  -23.2576  -39.9822 H         1 UNK         0.0786 
     95 H95        24.3154  -26.8613  -41.7904 H         1 UNK         0.3172 
     96 H96        26.7116  -28.2623  -42.7767 H         1 UNK         0.0595 
     97 H97        24.8129  -26.7677  -44.6668 H         1 UNK         0.0839 
     98 H98        26.0689  -27.8925  -45.1666 H         1 UNK         0.0839 
     99 H99        26.5095  -26.3829  -44.3852 H         1 UNK         0.0839 
    100 H100       23.1215  -27.9273  -43.0186 H         1 UNK         0.2998 
    101 H101       22.8574  -30.7223  -43.8529 H         1 UNK         0.0822 
    102 H102       20.7422  -28.5755  -43.3017 H         1 UNK         0.0787 
    103 H103       21.4304  -28.9916  -44.8685 H         1 UNK         0.0787 
    104 H104       20.4431  -30.1558  -44.0050 H         1 UNK         0.0787 
    105 H105       21.7586  -32.3130  -42.7634 H         1 UNK         0.3055 
    106 H106       20.5970  -32.2464  -40.2214 H         1 UNK         0.1106 
    107 H107       22.3588  -33.5218  -38.9074 H         1 UNK         0.0828 
    108 H108       23.5283  -33.1897  -40.1788 H         1 UNK         0.0828 
    109 H109       22.8435  -31.8708  -39.2336 H         1 UNK         0.0828 
    110 H110       22.6122  -34.0762  -42.5055 H         1 UNK         0.2931 
    111 H111       22.2526  -35.7563  -43.8252 H         1 UNK         0.0412 
    112 H112       22.4749  -38.0490  -40.7087 H         1 UNK         0.3472 
    113 H113       22.6829  -36.3153  -40.7502 H         1 UNK         0.3472 
    114 H114       20.0902  -36.4486  -44.5993 H         1 UNK         0.0970 
    115 H115       19.3042  -35.9575  -43.1322 H         1 UNK         0.0970 
    116 H116       17.3835  -34.1876  -44.3813 H         1 UNK         0.0612 
    117 H117       18.1375  -34.0572  -42.8132 H         1 UNK         0.0612 
@<TRIPOS>BOND
     1    1    2 1    
     2    1   62 1    
     3    1   63 1    
     4    1   64 1    
     5    2    3 2    
     6    2    4 am   BACKBONE|DICT|INTERRES
     7    4    5 1    
     8    4   65 1    
     9    5    6 1    
    10    5   25 1    
    11    5   66 1    
    12    6    7 1    
    13    6   67 1    
    14    6   68 1    
    15    7    8 1    
    16    8    9 1    
    17    8   69 1    
    18    8   70 1    
    19    9   10 ar   
    20    9   14 ar   
    21   10   11 ar   
    22   10   71 1    
    23   11   12 ar   
    24   11   61 1    
    25   12   13 ar   
    26   12   72 1    
    27   13   14 ar   
    28   13   15 1    
    29   14   73 1    
    30   15   16 1    
    31   15   74 1    
    32   15   75 1    
    33   16   17 1    
    34   17   18 1    
    35   17   76 1    
    36   17   77 1    
    37   18   19 1    
    38   18   27 1    
    39   18   78 1    
    40   19   20 am   BACKBONE|DICT|INTERRES
    41   19   79 1    
    42   20   21 2    
    43   20   22 1    
    44   22   23 1    
    45   22   24 1    
    46   22   80 1    
    47   23   81 1    
    48   23   82 1    
    49   23   83 1    
    50   24   25 am   BACKBONE|DICT|INTERRES
    51   24   84 1    
    52   25   26 2    
    53   27   28 2    
    54   27   29 am   BACKBONE|DICT|INTERRES
    55   29   30 1    
    56   29   85 1    
    57   30   31 1    
    58   30   32 1    
    59   30   86 1    
    60   31   87 1    
    61   31   88 1    
    62   31   89 1    
    63   32   33 2    
    64   32   34 am   BACKBONE|DICT|INTERRES
    65   34   35 1    
    66   34   90 1    
    67   35   36 1    
    68   35   37 1    
    69   35   91 1    
    70   36   92 1    
    71   36   93 1    
    72   36   94 1    
    73   37   38 2    
    74   37   39 am   BACKBONE|DICT|INTERRES
    75   39   40 1    
    76   39   95 1    
    77   40   41 1    
    78   40   42 1    
    79   40   96 1    
    80   41   97 1    
    81   41   98 1    
    82   41   99 1    
    83   42   43 2    
    84   42   44 am   BACKBONE|DICT|INTERRES
    85   44   45 1    
    86   44  100 1    
    87   45   46 1    
    88   45   47 1    
    89   45  101 1    
    90   46  102 1    
    91   46  103 1    
    92   46  104 1    
    93   47   48 2    
    94   47   49 am   BACKBONE|DICT|INTERRES
    95   49   50 1    
    96   49  105 1    
    97   50   51 1    
    98   50   52 1    
    99   50  106 1    
   100   51  107 1    
   101   51  108 1    
   102   51  109 1    
   103   52   53 2    
   104   52   54 am   BACKBONE|DICT|INTERRES
   105   54   55 1    
   106   54  110 1    
   107   55   56 1    
   108   55   59 1    
   109   55  111 1    
   110   56   57 am   BACKBONE|DICT|INTERRES
   111   56   58 2    
   112   57  112 1    
   113   57  113 1    
   114   59   60 1    
   115   59  114 1    
   116   59  115 1    
   117   60   61 1    
   118   61  116 1    
   119   61  117 1    
@<TRIPOS>SUBSTRUCTURE
     1 UNK         1 GROUP             0       ****    0 ROOT    
