@<TRIPOS>MOLECULE
3R8
117   119    1
SMALL
USER_CHARGES


@<TRIPOS>ATOM
      1 CA         22.4731  -22.4168  -46.0657 C.3       0 UNK        -0.2013 
      2 C          22.1279  -23.3202  -44.8916 C.2       0 UNK         0.4866 
      3 O          22.2490  -22.9018  -43.7404 O.2       0 UNK        -0.5176 
      4 N          21.7011  -24.5582  -45.1729 N.am      1 UNK        -0.4884 
      5 CA         21.3539  -25.5683  -44.1662 C.3       1 UNK         0.0853 
      6 C6         21.1775  -26.9794  -44.7863 C.3       10 UNK        -0.0849 
      7 S7         22.5425  -27.5630  -45.8436 S.3       10 UNK        -0.2776 
      8 C8         22.6562  -29.3291  -45.3784 C.3       10 UNK         0.0316 
      9 C9         21.3069  -30.0416  -45.2741 C.ar      10 UNK        -0.0863 
     10 C10        21.0045  -30.7657  -44.1167 C.ar      10 UNK        -0.1009 
     11 C11        19.7799  -31.4234  -43.9833 C.ar      10 UNK        -0.0712 
     12 C12        18.8437  -31.3490  -45.0165 C.ar      10 UNK        -0.0894 
     13 C13        19.1109  -30.5923  -46.1623 C.ar      10 UNK        -0.0745 
     14 C14        20.3567  -29.9675  -46.3011 C.ar      10 UNK        -0.0972 
     15 C15        18.0196  -30.3877  -47.2057 C.3       10 UNK         0.0209 
     16 S16        17.1612  -28.7845  -46.9915 S.3       10 UNK        -0.2568 
     17 C17        16.4961  -28.9083  -45.2914 C.3       10 UNK        -0.0983 
     18 CA         17.4918  -28.3044  -44.2666 C.3       3 UNK         0.0876 
     19 N          17.6186  -26.8485  -44.3596 N.am      3 UNK        -0.4424 
     20 C          17.0094  -25.8843  -43.6541 C.2       2 UNK         0.4918 
     21 O          16.0264  -26.0612  -42.9343 O.2       2 UNK        -0.4875 
     22 CA         17.6746  -24.4868  -43.7418 C.3       2 UNK         0.0481 
     23 CB         17.4581  -23.6525  -42.4622 C.3       2 UNK        -0.1831 
     24 N          19.1098  -24.5637  -44.0817 N.am      2 UNK        -0.4498 
     25 C          20.0549  -25.2405  -43.4030 C.2       1 UNK         0.5027 
     26 O          19.8748  -25.7308  -42.2878 O.2       1 UNK        -0.4969 
     27 C          17.3724  -28.8489  -42.8261 C.2       3 UNK         0.5005 
     28 O          16.4639  -29.6271  -42.5280 O.2       3 UNK        -0.5279 
     29 N          18.3156  -28.4387  -41.9653 N.am      4 UNK        -0.4463 
     30 CA         18.4489  -28.9166  -40.5903 C.3       4 UNK         0.0283 
     31 CB         17.4794  -28.1628  -39.6616 C.3       4 UNK        -0.1875 
     32 C          19.8938  -28.7962  -40.0886 C.2       4 UNK         0.4949 
     33 O          20.4031  -29.7507  -39.5009 O.2       4 UNK        -0.5039 
     34 N          20.5155  -27.6314  -40.3135 N.am      5 UNK        -0.4663 
     35 CA         21.8517  -27.2697  -39.8382 C.3       5 UNK         0.0242 
     36 CB         21.7852  -25.8306  -39.2866 C.3       5 UNK        -0.1982 
     37 C          22.9061  -27.4268  -40.9516 C.2       5 UNK         0.5017 
     38 O          22.6779  -28.1650  -41.9114 O.2       5 UNK        -0.5012 
     39 N          24.0484  -26.7374  -40.7900 N.am      6 UNK        -0.4439 
     40 CA         25.2602  -26.7942  -41.6192 C.3       6 UNK         0.0297 
     41 CB         24.9988  -26.2572  -43.0445 C.3       6 UNK        -0.2006 
     42 C          25.8647  -28.2075  -41.5681 C.2       6 UNK         0.4892 
     43 O          26.3221  -28.6168  -40.4987 O.2       6 UNK        -0.5089 
     44 N          25.8048  -28.9533  -42.6794 N.am      7 UNK        -0.4243 
     45 CA         26.0482  -30.3980  -42.7295 C.3       7 UNK         0.0196 
     46 CB         26.3746  -30.8011  -44.1797 C.3       7 UNK        -0.2007 
     47 C          24.8225  -31.1430  -42.1632 C.2       7 UNK         0.5020 
     48 O          24.0768  -31.7676  -42.9175 O.2       7 UNK        -0.5147 
     49 N          24.6044  -30.9752  -40.8526 N.am      8 UNK        -0.4734 
     50 CA         23.3854  -31.3229  -40.1232 C.3       8 UNK         0.0238 
     51 CB         23.5333  -30.8554  -38.6658 C.3       8 UNK        -0.1912 
     52 C          23.0228  -32.8147  -40.1738 C.2       8 UNK         0.5038 
     53 O          23.9125  -33.6694  -40.1595 O.2       8 UNK        -0.5046 
     54 N          21.7135  -33.0829  -40.1890 N.am      9 UNK        -0.4200 
     55 CA         21.1270  -34.4312  -40.2538 C.3       9 UNK         0.0839 
     56 C          20.9533  -35.1141  -38.8661 C.2       9 UNK         0.5513 
     57 N          21.2497  -34.4540  -37.7526 N.am      9 UNK        -0.7519 
     58 O          20.5509  -36.2727  -38.7988 O.2       9 UNK        -0.4960 
     59 C59        19.7992  -34.4311  -41.0585 C.3       10 UNK        -0.0876 
     60 S60        20.0385  -33.8944  -42.7872 S.3       10 UNK        -0.2414 
     61 C61        19.4554  -32.1755  -42.7036 C.3       10 UNK         0.0169 
     62 H62        22.3232  -22.9158  -47.0230 H         1 UNK         0.0903 
     63 H63        21.8498  -21.5232  -46.0476 H         1 UNK         0.0903 
     64 H64        23.5158  -22.1063  -46.0054 H         1 UNK         0.0903 
     65 H65        21.6601  -24.8673  -46.1346 H         1 UNK         0.3096 
     66 H66        22.1584  -25.6072  -43.4296 H         1 UNK         0.1121 
     67 H67        21.0259  -27.7042  -43.9840 H         1 UNK         0.0849 
     68 H68        20.2826  -27.0219  -45.4087 H         1 UNK         0.0849 
     69 H69        23.2753  -29.8501  -46.1095 H         1 UNK         0.0865 
     70 H70        23.1887  -29.3912  -44.4278 H         1 UNK         0.0865 
     71 H71        21.7222  -30.8141  -43.3091 H         1 UNK         0.1346 
     72 H72        17.8853  -31.8371  -44.9029 H         1 UNK         0.1412 
     73 H73        20.5681  -29.3830  -47.1862 H         1 UNK         0.1426 
     74 H74        17.2886  -31.1967  -47.1618 H         1 UNK         0.0716 
     75 H75        18.4568  -30.4253  -48.2045 H         1 UNK         0.0716 
     76 H76        16.2845  -29.9585  -45.0853 H         1 UNK         0.0695 
     77 H77        15.5372  -28.3904  -45.2395 H         1 UNK         0.0695 
     78 H78        18.4837  -28.6473  -44.5511 H         1 UNK         0.0983 
     79 H79        18.3513  -26.5380  -44.9777 H         1 UNK         0.3095 
     80 H80        17.1885  -23.9653  -44.5673 H         1 UNK         0.0454 
     81 H81        16.3969  -23.4697  -42.2898 H         1 UNK         0.0851 
     82 H82        17.9453  -22.6804  -42.5352 H         1 UNK         0.0851 
     83 H83        17.8467  -24.1567  -41.5770 H         1 UNK         0.0851 
     84 H84        19.3676  -24.1902  -44.9853 H         1 UNK         0.2976 
     85 H85        19.0184  -27.7812  -42.2790 H         1 UNK         0.3116 
     86 H86        18.1937  -29.9785  -40.5648 H         1 UNK         0.0646 
     87 H87        16.4412  -28.3413  -39.9417 H         1 UNK         0.0847 
     88 H88        17.6508  -27.0860  -39.6889 H         1 UNK         0.0847 
     89 H89        17.5956  -28.4882  -38.6270 H         1 UNK         0.0847 
     90 H90        20.0594  -26.9155  -40.8729 H         1 UNK         0.3040 
     91 H91        22.1421  -27.9354  -39.0229 H         1 UNK         0.1015 
     92 H92        22.7005  -25.5536  -38.7627 H         1 UNK         0.0786 
     93 H93        20.9718  -25.7226  -38.5686 H         1 UNK         0.0786 
     94 H94        21.6215  -25.1011  -40.0816 H         1 UNK         0.0786 
     95 H95        24.1359  -26.1793  -39.9523 H         1 UNK         0.3172 
     96 H96        25.9895  -26.1323  -41.1500 H         1 UNK         0.0595 
     97 H97        24.2630  -26.8510  -43.5844 H         1 UNK         0.0839 
     98 H98        25.9153  -26.2504  -43.6358 H         1 UNK         0.0839 
     99 H99        24.6332  -25.2307  -43.0141 H         1 UNK         0.0839 
    100 H100       25.3709  -28.5443  -43.4936 H         1 UNK         0.2998 
    101 H101       26.9117  -30.6444  -42.1076 H         1 UNK         0.0822 
    102 H102       27.2685  -30.2921  -44.5404 H         1 UNK         0.0787 
    103 H103       26.5610  -31.8734  -44.2518 H         1 UNK         0.0787 
    104 H104       25.5569  -30.5660  -44.8620 H         1 UNK         0.0787 
    105 H105       25.2766  -30.4043  -40.3526 H         1 UNK         0.3055 
    106 H106       22.5781  -30.7572  -40.5933 H         1 UNK         0.1106 
    107 H107       23.7629  -29.7915  -38.6096 H         1 UNK         0.0828 
    108 H108       22.6092  -31.0134  -38.1081 H         1 UNK         0.0828 
    109 H109       24.3261  -31.3971  -38.1482 H         1 UNK         0.0828 
    110 H110       21.0583  -32.3165  -40.1356 H         1 UNK         0.2931 
    111 H111       21.8242  -35.0710  -40.7987 H         1 UNK         0.0412 
    112 H112       21.1365  -34.9128  -36.8620 H         1 UNK         0.3472 
    113 H113       21.5890  -33.5069  -37.7931 H         1 UNK         0.3472 
    114 H114       19.3748  -35.4363  -41.0928 H         1 UNK         0.0970 
    115 H115       19.0484  -33.8061  -40.5715 H         1 UNK         0.0970 
    116 H116       19.9180  -31.6676  -41.8567 H         1 UNK         0.0612 
    117 H117       18.3800  -32.1652  -42.5186 H         1 UNK         0.0612 
@<TRIPOS>BOND
     1    1    2 1    
     2    1   62 1    
     3    1   63 1    
     4    1   64 1    
     5    2    3 2    
     6    2    4 am   BACKBONE|DICT|INTERRES
     7    4    5 1    
     8    4   65 1    
     9    5    6 1    
    10    5   25 1    
    11    5   66 1    
    12    6    7 1    
    13    6   67 1    
    14    6   68 1    
    15    7    8 1    
    16    8    9 1    
    17    8   69 1    
    18    8   70 1    
    19    9   10 ar   
    20    9   14 ar   
    21   10   11 ar   
    22   10   71 1    
    23   11   12 ar   
    24   11   61 1    
    25   12   13 ar   
    26   12   72 1    
    27   13   14 ar   
    28   13   15 1    
    29   14   73 1    
    30   15   16 1    
    31   15   74 1    
    32   15   75 1    
    33   16   17 1    
    34   17   18 1    
    35   17   76 1    
    36   17   77 1    
    37   18   19 1    
    38   18   27 1    
    39   18   78 1    
    40   19   20 am   BACKBONE|DICT|INTERRES
    41   19   79 1    
    42   20   21 2    
    43   20   22 1    
    44   22   23 1    
    45   22   24 1    
    46   22   80 1    
    47   23   81 1    
    48   23   82 1    
    49   23   83 1    
    50   24   25 am   BACKBONE|DICT|INTERRES
    51   24   84 1    
    52   25   26 2    
    53   27   28 2    
    54   27   29 am   BACKBONE|DICT|INTERRES
    55   29   30 1    
    56   29   85 1    
    57   30   31 1    
    58   30   32 1    
    59   30   86 1    
    60   31   87 1    
    61   31   88 1    
    62   31   89 1    
    63   32   33 2    
    64   32   34 am   BACKBONE|DICT|INTERRES
    65   34   35 1    
    66   34   90 1    
    67   35   36 1    
    68   35   37 1    
    69   35   91 1    
    70   36   92 1    
    71   36   93 1    
    72   36   94 1    
    73   37   38 2    
    74   37   39 am   BACKBONE|DICT|INTERRES
    75   39   40 1    
    76   39   95 1    
    77   40   41 1    
    78   40   42 1    
    79   40   96 1    
    80   41   97 1    
    81   41   98 1    
    82   41   99 1    
    83   42   43 2    
    84   42   44 am   BACKBONE|DICT|INTERRES
    85   44   45 1    
    86   44  100 1    
    87   45   46 1    
    88   45   47 1    
    89   45  101 1    
    90   46  102 1    
    91   46  103 1    
    92   46  104 1    
    93   47   48 2    
    94   47   49 am   BACKBONE|DICT|INTERRES
    95   49   50 1    
    96   49  105 1    
    97   50   51 1    
    98   50   52 1    
    99   50  106 1    
   100   51  107 1    
   101   51  108 1    
   102   51  109 1    
   103   52   53 2    
   104   52   54 am   BACKBONE|DICT|INTERRES
   105   54   55 1    
   106   54  110 1    
   107   55   56 1    
   108   55   59 1    
   109   55  111 1    
   110   56   57 am   BACKBONE|DICT|INTERRES
   111   56   58 2    
   112   57  112 1    
   113   57  113 1    
   114   59   60 1    
   115   59  114 1    
   116   59  115 1    
   117   60   61 1    
   118   61  116 1    
   119   61  117 1    
@<TRIPOS>SUBSTRUCTURE
     1 UNK         1 GROUP             0       ****    0 ROOT    
