@<TRIPOS>MOLECULE
3R8
117   119    1
SMALL
USER_CHARGES


@<TRIPOS>ATOM
      1 CA         22.5330  -30.2711  -47.4519 C.3       0 UNK        -0.2013 
      2 C          21.2446  -30.2272  -46.6443 C.2       0 UNK         0.4866 
      3 O          20.4138  -31.1250  -46.7747 O.2       0 UNK        -0.5176 
      4 N          21.0819  -29.1934  -45.8126 N.am      1 UNK        -0.4884 
      5 CA         19.9394  -28.9806  -44.9263 C.3       1 UNK         0.0853 
      6 C6         18.9549  -27.9271  -45.5013 C.3       10 UNK        -0.0849 
      7 S7         17.7849  -28.6996  -46.6701 S.3       10 UNK        -0.2776 
      8 C8         16.2134  -28.7021  -45.7387 C.3       10 UNK         0.0316 
      9 C9         16.3725  -29.1812  -44.3003 C.ar      10 UNK        -0.0863 
     10 C10        16.7313  -30.5047  -44.0271 C.ar      10 UNK        -0.1009 
     11 C11        16.8947  -30.9326  -42.7074 C.ar      10 UNK        -0.0712 
     12 C12        16.6893  -30.0263  -41.6631 C.ar      10 UNK        -0.0894 
     13 C13        16.3420  -28.6947  -41.9147 C.ar      10 UNK        -0.0745 
     14 C14        16.1642  -28.2889  -43.2430 C.ar      10 UNK        -0.0972 
     15 C15        16.1576  -27.7611  -40.7122 C.3       10 UNK         0.0209 
     16 S16        15.8061  -25.9944  -41.0532 S.3       10 UNK        -0.2568 
     17 C17        17.2656  -25.2867  -41.9065 C.3       10 UNK        -0.0983 
     18 CA         18.6406  -25.4614  -41.2088 C.3       3 UNK         0.0876 
     19 N          19.1054  -26.8416  -41.3147 N.am      3 UNK        -0.4424 
     20 C          20.1544  -27.3799  -40.6822 C.2       2 UNK         0.4918 
     21 O          20.8248  -26.7988  -39.8300 O.2       2 UNK        -0.4875 
     22 CA         20.5232  -28.8148  -41.1025 C.3       2 UNK         0.0481 
     23 CB         19.9827  -29.8243  -40.0802 C.3       2 UNK        -0.1831 
     24 N          20.0960  -29.1654  -42.4695 N.am      2 UNK        -0.4498 
     25 C          20.5108  -28.5272  -43.5791 C.2       1 UNK         0.5027 
     26 O          21.2872  -27.5694  -43.5691 O.2       1 UNK        -0.4969 
     27 C          19.6565  -24.4626  -41.8155 C.2       3 UNK         0.5005 
     28 O          19.7116  -23.3191  -41.3601 O.2       3 UNK        -0.5279 
     29 N          20.4096  -24.8876  -42.8428 N.am      4 UNK        -0.4463 
     30 CA         21.3521  -24.0525  -43.5895 C.3       4 UNK         0.0283 
     31 CB         21.3185  -24.4445  -45.0766 C.3       4 UNK        -0.1875 
     32 C          22.7781  -24.1664  -43.0338 C.2       4 UNK         0.4949 
     33 O          23.4466  -23.1435  -42.8819 O.2       4 UNK        -0.5039 
     34 N          23.2179  -25.3937  -42.7346 N.am      5 UNK        -0.4663 
     35 CA         24.5182  -25.6967  -42.1420 C.3       5 UNK         0.0242 
     36 CB         25.5417  -25.9967  -43.2501 C.3       5 UNK        -0.1982 
     37 C          24.3341  -26.8963  -41.2122 C.2       5 UNK         0.5017 
     38 O          23.6885  -27.8609  -41.6192 O.2       5 UNK        -0.5012 
     39 N          24.8826  -26.8070  -39.9926 N.am      6 UNK        -0.4439 
     40 CA         24.6699  -27.7309  -38.8721 C.3       6 UNK         0.0297 
     41 CB         25.6123  -27.3517  -37.7167 C.3       6 UNK        -0.2006 
     42 C          24.8213  -29.2203  -39.2345 C.2       6 UNK         0.4892 
     43 O          25.9314  -29.6665  -39.5310 O.2       6 UNK        -0.5089 
     44 N          23.6892  -29.9387  -39.1927 N.am      7 UNK        -0.4243 
     45 CA         23.5251  -31.3737  -39.4573 C.3       7 UNK         0.0196 
     46 CB         24.2168  -32.2053  -38.3552 C.3       7 UNK        -0.2007 
     47 C          23.9342  -31.8132  -40.8797 C.2       7 UNK         0.5020 
     48 O          24.3765  -32.9491  -41.0557 O.2       7 UNK        -0.5147 
     49 N          23.7867  -30.9251  -41.8750 N.am      8 UNK        -0.4734 
     50 CA         24.1694  -31.1982  -43.2652 C.3       8 UNK         0.0238 
     51 CB         24.2859  -29.8768  -44.0391 C.3       8 UNK        -0.1912 
     52 C          23.2549  -32.1931  -44.0056 C.2       8 UNK         0.5038 
     53 O          23.7258  -32.8198  -44.9560 O.2       8 UNK        -0.5046 
     54 N          21.9872  -32.3252  -43.5872 N.am      9 UNK        -0.4200 
     55 CA         21.0558  -33.3340  -44.1226 C.3       9 UNK         0.0839 
     56 C          21.3599  -34.7672  -43.6044 C.2       9 UNK         0.5513 
     57 N          21.0068  -35.7887  -44.3735 N.am      9 UNK        -0.7519 
     58 O          21.8783  -34.9662  -42.5081 O.2       9 UNK        -0.4960 
     59 C59        19.5628  -32.9480  -43.9348 C.3       10 UNK        -0.0876 
     60 S60        19.0693  -32.5893  -42.2169 S.3       10 UNK        -0.2414 
     61 C61        17.2694  -32.3754  -42.3971 C.3       10 UNK         0.0169 
     62 H62        23.1690  -29.4081  -47.2559 H         1 UNK         0.0903 
     63 H63        23.0965  -31.1716  -47.2087 H         1 UNK         0.0903 
     64 H64        22.3060  -30.2891  -48.5175 H         1 UNK         0.0903 
     65 H65        21.8116  -28.4995  -45.7142 H         1 UNK         0.3096 
     66 H66        19.4089  -29.9163  -44.7615 H         1 UNK         0.1121 
     67 H67        18.3918  -27.4204  -44.7168 H         1 UNK         0.0849 
     68 H68        19.4962  -27.1339  -46.0204 H         1 UNK         0.0849 
     69 H69        15.7917  -27.6961  -45.7666 H         1 UNK         0.0865 
     70 H70        15.4973  -29.3436  -46.2541 H         1 UNK         0.0865 
     71 H71        16.8871  -31.1973  -44.8434 H         1 UNK         0.1346 
     72 H72        16.7948  -30.3662  -40.6420 H         1 UNK         0.1412 
     73 H73        15.8588  -27.2784  -43.4689 H         1 UNK         0.1426 
     74 H74        17.0186  -27.8322  -40.0478 H         1 UNK         0.0716 
     75 H75        15.3157  -28.1422  -40.1327 H         1 UNK         0.0716 
     76 H76        17.0368  -24.2234  -42.0080 H         1 UNK         0.0695 
     77 H77        17.3079  -25.6619  -42.9294 H         1 UNK         0.0695 
     78 H78        18.5356  -25.2160  -40.1497 H         1 UNK         0.0983 
     79 H79        18.5966  -27.4282  -41.9583 H         1 UNK         0.3095 
     80 H80        21.6044  -28.9017  -41.0740 H         1 UNK         0.0454 
     81 H81        18.8968  -29.8202  -40.0357 H         1 UNK         0.0851 
     82 H82        20.3398  -29.5892  -39.0767 H         1 UNK         0.0851 
     83 H83        20.3126  -30.8372  -40.3031 H         1 UNK         0.0851 
     84 H84        19.4379  -29.9293  -42.5519 H         1 UNK         0.2976 
     85 H85        20.3877  -25.8681  -43.0988 H         1 UNK         0.3116 
     86 H86        21.0477  -23.0058  -43.5186 H         1 UNK         0.0646 
     87 H87        20.3185  -24.3289  -45.4946 H         1 UNK         0.0847 
     88 H88        21.6307  -25.4771  -45.2357 H         1 UNK         0.0847 
     89 H89        21.9879  -23.8108  -45.6598 H         1 UNK         0.0847 
     90 H90        22.6112  -26.1994  -42.8699 H         1 UNK         0.3040 
     91 H91        24.8648  -24.8441  -41.5536 H         1 UNK         0.1015 
     92 H92        26.5066  -26.2790  -42.8270 H         1 UNK         0.0786 
     93 H93        25.7058  -25.1239  -43.8822 H         1 UNK         0.0786 
     94 H94        25.2110  -26.8145  -43.8910 H         1 UNK         0.0786 
     95 H95        25.4294  -25.9851  -39.7808 H         1 UNK         0.3172 
     96 H96        23.6469  -27.5650  -38.5272 H         1 UNK         0.0595 
     97 H97        26.6601  -27.4194  -38.0127 H         1 UNK         0.0839 
     98 H98        25.4725  -28.0178  -36.8641 H         1 UNK         0.0839 
     99 H99        25.4264  -26.3367  -37.3651 H         1 UNK         0.0839 
    100 H100       22.8405  -29.4448  -38.9564 H         1 UNK         0.2998 
    101 H101       22.4557  -31.5741  -39.3862 H         1 UNK         0.0822 
    102 H102       23.8922  -31.8966  -37.3616 H         1 UNK         0.0787 
    103 H103       23.9801  -33.2654  -38.4551 H         1 UNK         0.0787 
    104 H104       25.3023  -32.1092  -38.3988 H         1 UNK         0.0787 
    105 H105       23.5035  -29.9746  -41.6571 H         1 UNK         0.3055 
    106 H106       25.1631  -31.6522  -43.2489 H         1 UNK         0.1106 
    107 H107       23.3554  -29.3123  -44.0183 H         1 UNK         0.0828 
    108 H108       24.5466  -30.0510  -45.0837 H         1 UNK         0.0828 
    109 H109       25.0665  -29.2457  -43.6149 H         1 UNK         0.0828 
    110 H110       21.6885  -31.8272  -42.7631 H         1 UNK         0.2931 
    111 H111       21.2183  -33.3631  -45.2024 H         1 UNK         0.0412 
    112 H112       21.1828  -36.7278  -44.0510 H         1 UNK         0.3472 
    113 H113       20.5780  -35.6418  -45.2743 H         1 UNK         0.3472 
    114 H114       19.3319  -32.0819  -44.5488 H         1 UNK         0.0970 
    115 H115       18.9210  -33.7416  -44.3221 H         1 UNK         0.0970 
    116 H116       16.7911  -32.6830  -41.4660 H         1 UNK         0.0612 
    117 H117       16.8851  -33.0465  -43.1666 H         1 UNK         0.0612 
@<TRIPOS>BOND
     1    1    2 1    
     2    1   62 1    
     3    1   63 1    
     4    1   64 1    
     5    2    3 2    
     6    2    4 am   BACKBONE|DICT|INTERRES
     7    4    5 1    
     8    4   65 1    
     9    5    6 1    
    10    5   25 1    
    11    5   66 1    
    12    6    7 1    
    13    6   67 1    
    14    6   68 1    
    15    7    8 1    
    16    8    9 1    
    17    8   69 1    
    18    8   70 1    
    19    9   10 ar   
    20    9   14 ar   
    21   10   11 ar   
    22   10   71 1    
    23   11   12 ar   
    24   11   61 1    
    25   12   13 ar   
    26   12   72 1    
    27   13   14 ar   
    28   13   15 1    
    29   14   73 1    
    30   15   16 1    
    31   15   74 1    
    32   15   75 1    
    33   16   17 1    
    34   17   18 1    
    35   17   76 1    
    36   17   77 1    
    37   18   19 1    
    38   18   27 1    
    39   18   78 1    
    40   19   20 am   BACKBONE|DICT|INTERRES
    41   19   79 1    
    42   20   21 2    
    43   20   22 1    
    44   22   23 1    
    45   22   24 1    
    46   22   80 1    
    47   23   81 1    
    48   23   82 1    
    49   23   83 1    
    50   24   25 am   BACKBONE|DICT|INTERRES
    51   24   84 1    
    52   25   26 2    
    53   27   28 2    
    54   27   29 am   BACKBONE|DICT|INTERRES
    55   29   30 1    
    56   29   85 1    
    57   30   31 1    
    58   30   32 1    
    59   30   86 1    
    60   31   87 1    
    61   31   88 1    
    62   31   89 1    
    63   32   33 2    
    64   32   34 am   BACKBONE|DICT|INTERRES
    65   34   35 1    
    66   34   90 1    
    67   35   36 1    
    68   35   37 1    
    69   35   91 1    
    70   36   92 1    
    71   36   93 1    
    72   36   94 1    
    73   37   38 2    
    74   37   39 am   BACKBONE|DICT|INTERRES
    75   39   40 1    
    76   39   95 1    
    77   40   41 1    
    78   40   42 1    
    79   40   96 1    
    80   41   97 1    
    81   41   98 1    
    82   41   99 1    
    83   42   43 2    
    84   42   44 am   BACKBONE|DICT|INTERRES
    85   44   45 1    
    86   44  100 1    
    87   45   46 1    
    88   45   47 1    
    89   45  101 1    
    90   46  102 1    
    91   46  103 1    
    92   46  104 1    
    93   47   48 2    
    94   47   49 am   BACKBONE|DICT|INTERRES
    95   49   50 1    
    96   49  105 1    
    97   50   51 1    
    98   50   52 1    
    99   50  106 1    
   100   51  107 1    
   101   51  108 1    
   102   51  109 1    
   103   52   53 2    
   104   52   54 am   BACKBONE|DICT|INTERRES
   105   54   55 1    
   106   54  110 1    
   107   55   56 1    
   108   55   59 1    
   109   55  111 1    
   110   56   57 am   BACKBONE|DICT|INTERRES
   111   56   58 2    
   112   57  112 1    
   113   57  113 1    
   114   59   60 1    
   115   59  114 1    
   116   59  115 1    
   117   60   61 1    
   118   61  116 1    
   119   61  117 1    
@<TRIPOS>SUBSTRUCTURE
     1 UNK         1 GROUP             0       ****    0 ROOT    
