@<TRIPOS>MOLECULE
3R8
117   119    1
SMALL
USER_CHARGES


@<TRIPOS>ATOM
      1 CA         14.8988  -22.4473  -41.3598 C.3       0 UNK        -0.2013 
      2 C          15.4788  -23.5466  -42.2372 C.2       0 UNK         0.4866 
      3 O          14.9598  -23.8001  -43.3248 O.2       0 UNK        -0.5176 
      4 N          16.5465  -24.2077  -41.7716 N.am      1 UNK        -0.4884 
      5 CA         17.2735  -25.2442  -42.5085 C.3       1 UNK         0.0853 
      6 C6         18.1187  -26.1113  -41.5395 C.3       10 UNK        -0.0849 
      7 S7         19.0511  -27.4496  -42.3499 S.3       10 UNK        -0.2776 
      8 C8         17.7653  -28.7082  -42.6314 C.3       10 UNK         0.0316 
      9 C9         18.1872  -29.5941  -43.7902 C.ar      10 UNK        -0.0863 
     10 C10        18.6008  -30.9115  -43.5784 C.ar      10 UNK        -0.1009 
     11 C11        19.1080  -31.6748  -44.6367 C.ar      10 UNK        -0.0712 
     12 C12        19.1804  -31.1114  -45.9164 C.ar      10 UNK        -0.0894 
     13 C13        18.7552  -29.7978  -46.1376 C.ar      10 UNK        -0.0745 
     14 C14        18.2330  -29.0571  -45.0774 C.ar      10 UNK        -0.0972 
     15 C15        18.9240  -29.1379  -47.4972 C.3       10 UNK         0.0209 
     16 S16        20.6711  -28.8108  -47.9214 S.3       10 UNK        -0.2568 
     17 C17        21.4480  -28.2287  -46.3697 C.3       10 UNK        -0.0983 
     18 CA         21.5072  -26.6860  -46.2497 C.3       3 UNK         0.0876 
     19 N          20.1857  -26.0997  -46.0142 N.am      3 UNK        -0.4424 
     20 C          19.8221  -24.8810  -46.4312 C.2       2 UNK         0.4918 
     21 O          20.5562  -24.1348  -47.0806 O.2       2 UNK        -0.4875 
     22 CA         18.3937  -24.4115  -46.1046 C.3       2 UNK         0.0481 
     23 CB         17.4600  -24.7073  -47.2898 C.3       2 UNK        -0.1831 
     24 N          17.8240  -25.0029  -44.8908 N.am      2 UNK        -0.4498 
     25 C          18.0972  -24.5927  -43.6434 C.2       1 UNK         0.5027 
     26 O          18.9225  -23.7177  -43.3700 O.2       1 UNK        -0.4969 
     27 C          22.4647  -26.2841  -45.1131 C.2       3 UNK         0.5005 
     28 O          22.0311  -26.0722  -43.9786 O.2       3 UNK        -0.5279 
     29 N          23.7674  -26.2559  -45.4262 N.am      4 UNK        -0.4463 
     30 CA         24.8517  -26.0057  -44.4692 C.3       4 UNK         0.0283 
     31 CB         26.1298  -25.6460  -45.2456 C.3       4 UNK        -0.1875 
     32 C          25.1186  -27.1820  -43.5076 C.2       4 UNK         0.4949 
     33 O          25.8407  -26.9966  -42.5282 O.2       4 UNK        -0.5039 
     34 N          24.5552  -28.3635  -43.8063 N.am      5 UNK        -0.4663 
     35 CA         24.6649  -29.5922  -43.0146 C.3       5 UNK         0.0242 
     36 CB         23.9535  -30.7376  -43.7554 C.3       5 UNK        -0.1982 
     37 C          24.1142  -29.4472  -41.5867 C.2       5 UNK         0.5017 
     38 O          24.7757  -29.8815  -40.6424 O.2       5 UNK        -0.5012 
     39 N          22.9322  -28.8215  -41.4646 N.am      6 UNK        -0.4439 
     40 CA         22.2215  -28.5011  -40.2220 C.3       6 UNK         0.0297 
     41 CB         22.8612  -27.2580  -39.5641 C.3       6 UNK        -0.2006 
     42 C          22.0958  -29.7177  -39.2824 C.2       6 UNK         0.4892 
     43 O          21.3684  -30.6574  -39.6064 O.2       6 UNK        -0.5089 
     44 N          22.8309  -29.6955  -38.1615 N.am      7 UNK        -0.4243 
     45 CA         22.8861  -30.7513  -37.1479 C.3       7 UNK         0.0196 
     46 CB         23.7466  -30.2699  -35.9687 C.3       7 UNK        -0.2007 
     47 C          23.3937  -32.1117  -37.6604 C.2       7 UNK         0.5020 
     48 O          23.0561  -33.1310  -37.0579 O.2       7 UNK        -0.5147 
     49 N          24.1567  -32.1325  -38.7653 N.am      8 UNK        -0.4734 
     50 CA         24.6276  -33.3654  -39.4115 C.3       8 UNK         0.0238 
     51 CB         25.6802  -33.0266  -40.4786 C.3       8 UNK        -0.1912 
     52 C          23.4928  -34.2135  -40.0178 C.2       8 UNK         0.5038 
     53 O          23.6690  -35.4227  -40.1720 O.2       8 UNK        -0.5046 
     54 N          22.3525  -33.5789  -40.3201 N.am      9 UNK        -0.4200 
     55 CA         21.1004  -34.2409  -40.7119 C.3       9 UNK         0.0839 
     56 C          20.2580  -34.7479  -39.5026 C.2       9 UNK         0.5513 
     57 N          20.6641  -34.5433  -38.2541 N.am      9 UNK        -0.7519 
     58 O          19.2122  -35.3604  -39.7024 O.2       9 UNK        -0.4960 
     59 C59        20.2639  -33.3377  -41.6546 C.3       10 UNK        -0.0876 
     60 S60        21.0511  -33.1451  -43.2920 S.3       10 UNK        -0.2414 
     61 C61        19.6022  -33.0966  -44.4004 C.3       10 UNK         0.0169 
     62 H62        13.8592  -22.6683  -41.1197 H         1 UNK         0.0903 
     63 H63        15.4471  -22.3393  -40.4242 H         1 UNK         0.0903 
     64 H64        14.9319  -21.4927  -41.8843 H         1 UNK         0.0903 
     65 H65        16.9499  -23.9338  -40.8866 H         1 UNK         0.3096 
     66 H66        16.5258  -25.8970  -42.9634 H         1 UNK         0.1121 
     67 H67        17.4783  -26.5519  -40.7735 H         1 UNK         0.0849 
     68 H68        18.8375  -25.4861  -41.0064 H         1 UNK         0.0849 
     69 H69        16.8082  -28.2415  -42.8654 H         1 UNK         0.0865 
     70 H70        17.6176  -29.2888  -41.7194 H         1 UNK         0.0865 
     71 H71        18.5607  -31.3289  -42.5834 H         1 UNK         0.1346 
     72 H72        19.5967  -31.6801  -46.7367 H         1 UNK         0.1412 
     73 H73        17.9175  -28.0367  -45.2384 H         1 UNK         0.1426 
     74 H74        18.3764  -28.1953  -47.5391 H         1 UNK         0.0716 
     75 H75        18.4868  -29.7762  -48.2661 H         1 UNK         0.0716 
     76 H76        22.4576  -28.6434  -46.3865 H         1 UNK         0.0695 
     77 H77        20.9799  -28.6702  -45.4903 H         1 UNK         0.0695 
     78 H78        21.9120  -26.2885  -47.1836 H         1 UNK         0.0983 
     79 H79        19.5720  -26.6122  -45.4009 H         1 UNK         0.3095 
     80 H80        18.4291  -23.3278  -45.9730 H         1 UNK         0.0454 
     81 H81        17.3633  -25.7778  -47.4741 H         1 UNK         0.0851 
     82 H82        17.8377  -24.2532  -48.2071 H         1 UNK         0.0851 
     83 H83        16.4619  -24.3031  -47.1198 H         1 UNK         0.0851 
     84 H84        17.0991  -25.6922  -45.0266 H         1 UNK         0.2976 
     85 H85        24.0461  -26.4457  -46.3792 H         1 UNK         0.3116 
     86 H86        24.5736  -25.1456  -43.8560 H         1 UNK         0.0646 
     87 H87        26.4622  -26.4675  -45.8814 H         1 UNK         0.0847 
     88 H88        26.9486  -25.4121  -44.5635 H         1 UNK         0.0847 
     89 H89        25.9794  -24.7700  -45.8767 H         1 UNK         0.0847 
     90 H90        23.9995  -28.4157  -44.6457 H         1 UNK         0.3040 
     91 H91        25.7255  -29.8401  -42.9316 H         1 UNK         0.1015 
     92 H92        24.4120  -30.9288  -44.7257 H         1 UNK         0.0786 
     93 H93        22.8968  -30.5218  -43.9212 H         1 UNK         0.0786 
     94 H94        24.0050  -31.6673  -43.1877 H         1 UNK         0.0786 
     95 H95        22.4777  -28.5138  -42.3132 H         1 UNK         0.3172 
     96 H96        21.2031  -28.2349  -40.5043 H         1 UNK         0.0595 
     97 H97        23.9142  -27.4116  -39.3244 H         1 UNK         0.0839 
     98 H98        22.3412  -26.9814  -38.6458 H         1 UNK         0.0839 
     99 H99        22.8038  -26.3974  -40.2311 H         1 UNK         0.0839 
    100 H100       23.4270  -28.8952  -38.0086 H         1 UNK         0.2998 
    101 H101       21.8672  -30.9073  -36.7873 H         1 UNK         0.0822 
    102 H102       23.3420  -29.3594  -35.5260 H         1 UNK         0.0787 
    103 H103       23.7837  -31.0220  -35.1791 H         1 UNK         0.0787 
    104 H104       24.7739  -30.0686  -36.2753 H         1 UNK         0.0787 
    105 H105       24.3775  -31.2566  -39.2324 H         1 UNK         0.3055 
    106 H106       25.1085  -33.9771  -38.6448 H         1 UNK         0.1106 
    107 H107       26.1085  -33.9349  -40.9045 H         1 UNK         0.0828 
    108 H108       26.5020  -32.4464  -40.0587 H         1 UNK         0.0828 
    109 H109       25.2517  -32.4553  -41.3011 H         1 UNK         0.0828 
    110 H110       22.2822  -32.5857  -40.1334 H         1 UNK         0.2931 
    111 H111       21.3547  -35.1422  -41.2732 H         1 UNK         0.0412 
    112 H112       21.5304  -34.0597  -38.0491 H         1 UNK         0.3472 
    113 H113       20.0988  -34.8909  -37.4957 H         1 UNK         0.3472 
    114 H114       19.2662  -33.7558  -41.7965 H         1 UNK         0.0970 
    115 H115       20.1179  -32.3531  -41.2089 H         1 UNK         0.0970 
    116 H116       19.8918  -33.5559  -45.3467 H         1 UNK         0.0612 
    117 H117       18.7905  -33.7101  -44.0084 H         1 UNK         0.0612 
@<TRIPOS>BOND
     1    1    2 1    
     2    1   62 1    
     3    1   63 1    
     4    1   64 1    
     5    2    3 2    
     6    2    4 am   BACKBONE|DICT|INTERRES
     7    4    5 1    
     8    4   65 1    
     9    5    6 1    
    10    5   25 1    
    11    5   66 1    
    12    6    7 1    
    13    6   67 1    
    14    6   68 1    
    15    7    8 1    
    16    8    9 1    
    17    8   69 1    
    18    8   70 1    
    19    9   10 ar   
    20    9   14 ar   
    21   10   11 ar   
    22   10   71 1    
    23   11   12 ar   
    24   11   61 1    
    25   12   13 ar   
    26   12   72 1    
    27   13   14 ar   
    28   13   15 1    
    29   14   73 1    
    30   15   16 1    
    31   15   74 1    
    32   15   75 1    
    33   16   17 1    
    34   17   18 1    
    35   17   76 1    
    36   17   77 1    
    37   18   19 1    
    38   18   27 1    
    39   18   78 1    
    40   19   20 am   BACKBONE|DICT|INTERRES
    41   19   79 1    
    42   20   21 2    
    43   20   22 1    
    44   22   23 1    
    45   22   24 1    
    46   22   80 1    
    47   23   81 1    
    48   23   82 1    
    49   23   83 1    
    50   24   25 am   BACKBONE|DICT|INTERRES
    51   24   84 1    
    52   25   26 2    
    53   27   28 2    
    54   27   29 am   BACKBONE|DICT|INTERRES
    55   29   30 1    
    56   29   85 1    
    57   30   31 1    
    58   30   32 1    
    59   30   86 1    
    60   31   87 1    
    61   31   88 1    
    62   31   89 1    
    63   32   33 2    
    64   32   34 am   BACKBONE|DICT|INTERRES
    65   34   35 1    
    66   34   90 1    
    67   35   36 1    
    68   35   37 1    
    69   35   91 1    
    70   36   92 1    
    71   36   93 1    
    72   36   94 1    
    73   37   38 2    
    74   37   39 am   BACKBONE|DICT|INTERRES
    75   39   40 1    
    76   39   95 1    
    77   40   41 1    
    78   40   42 1    
    79   40   96 1    
    80   41   97 1    
    81   41   98 1    
    82   41   99 1    
    83   42   43 2    
    84   42   44 am   BACKBONE|DICT|INTERRES
    85   44   45 1    
    86   44  100 1    
    87   45   46 1    
    88   45   47 1    
    89   45  101 1    
    90   46  102 1    
    91   46  103 1    
    92   46  104 1    
    93   47   48 2    
    94   47   49 am   BACKBONE|DICT|INTERRES
    95   49   50 1    
    96   49  105 1    
    97   50   51 1    
    98   50   52 1    
    99   50  106 1    
   100   51  107 1    
   101   51  108 1    
   102   51  109 1    
   103   52   53 2    
   104   52   54 am   BACKBONE|DICT|INTERRES
   105   54   55 1    
   106   54  110 1    
   107   55   56 1    
   108   55   59 1    
   109   55  111 1    
   110   56   57 am   BACKBONE|DICT|INTERRES
   111   56   58 2    
   112   57  112 1    
   113   57  113 1    
   114   59   60 1    
   115   59  114 1    
   116   59  115 1    
   117   60   61 1    
   118   61  116 1    
   119   61  117 1    
@<TRIPOS>SUBSTRUCTURE
     1 UNK         1 GROUP             0       ****    0 ROOT    
