@<TRIPOS>MOLECULE
3R8
117   119    1
SMALL
USER_CHARGES


@<TRIPOS>ATOM
      1 CA         16.6543  -22.8882  -48.6003 C.3       0 UNK        -0.2013 
      2 C          17.7482  -23.7058  -47.9298 C.2       0 UNK         0.4866 
      3 O          18.7461  -24.0375  -48.5704 O.2       0 UNK        -0.5176 
      4 N          17.5720  -24.0288  -46.6460 N.am      1 UNK        -0.4884 
      5 CA         18.5057  -24.8019  -45.8286 C.3       1 UNK         0.0853 
      6 C6         18.4516  -26.3310  -46.1198 C.3       10 UNK        -0.0849 
      7 S7         16.7928  -27.0731  -45.9182 S.3       10 UNK        -0.2776 
      8 C8         17.1211  -28.8230  -46.3039 C.3       10 UNK         0.0316 
      9 C9         17.7692  -29.5759  -45.1473 C.ar      10 UNK        -0.0863 
     10 C10        19.0107  -30.1985  -45.3147 C.ar      10 UNK        -0.1009 
     11 C11        19.5715  -30.9526  -44.2787 C.ar      10 UNK        -0.0712 
     12 C12        18.8938  -31.0653  -43.0612 C.ar      10 UNK        -0.0894 
     13 C13        17.6543  -30.4464  -42.8800 C.ar      10 UNK        -0.0745 
     14 C14        17.0967  -29.7064  -43.9273 C.ar      10 UNK        -0.0972 
     15 C15        16.8922  -30.6128  -41.5731 C.3       10 UNK         0.0209 
     16 S16        16.9398  -29.1046  -40.5558 S.3       10 UNK        -0.2568 
     17 C17        18.6057  -29.1851  -39.8125 C.3       10 UNK        -0.0983 
     18 CA         19.6613  -28.3484  -40.5764 C.3       3 UNK         0.0876 
     19 N          19.2048  -26.9823  -40.8599 N.am      3 UNK        -0.4424 
     20 C          19.8653  -26.1043  -41.6217 C.2       2 UNK         0.4918 
     21 O          21.0175  -26.2687  -42.0281 O.2       2 UNK        -0.4875 
     22 CA         19.1074  -24.8484  -42.0476 C.3       2 UNK         0.0481 
     23 CB         19.7116  -23.5799  -41.4243 C.3       2 UNK        -0.1831 
     24 N          19.2208  -24.8068  -43.4990 N.am      2 UNK        -0.4498 
     25 C          18.2430  -24.4801  -44.3471 C.2       1 UNK         0.5027 
     26 O          17.1686  -23.9760  -44.0037 O.2       1 UNK        -0.4969 
     27 C          21.0199  -28.4033  -39.8518 C.2       3 UNK         0.5005 
     28 O          21.8319  -29.2744  -40.1615 O.2       3 UNK        -0.5279 
     29 N          21.2549  -27.4608  -38.9272 N.am      4 UNK        -0.4463 
     30 CA         22.5124  -27.3247  -38.1879 C.3       4 UNK         0.0283 
     31 CB         22.3215  -26.3509  -37.0142 C.3       4 UNK        -0.1875 
     32 C          23.6810  -26.8756  -39.0806 C.2       4 UNK         0.4949 
     33 O          24.7803  -27.4130  -38.9512 O.2       4 UNK        -0.5039 
     34 N          23.4189  -25.9227  -39.9871 N.am      5 UNK        -0.4663 
     35 CA         24.3939  -25.4144  -40.9583 C.3       5 UNK         0.0242 
     36 CB         23.8717  -24.1091  -41.5793 C.3       5 UNK        -0.1982 
     37 C          24.7105  -26.4450  -42.0531 C.2       5 UNK         0.5017 
     38 O          25.8630  -26.5587  -42.4698 O.2       5 UNK        -0.5012 
     39 N          23.6835  -27.1987  -42.4663 N.am      6 UNK        -0.4439 
     40 CA         23.7657  -28.3056  -43.4199 C.3       6 UNK         0.0297 
     41 CB         22.3744  -28.5191  -44.0344 C.3       6 UNK        -0.2006 
     42 C          24.3208  -29.6127  -42.8117 C.2       6 UNK         0.4892 
     43 O          24.4640  -30.5921  -43.5446 O.2       6 UNK        -0.5089 
     44 N          24.6302  -29.6042  -41.5051 N.am      7 UNK        -0.4243 
     45 CA         25.2371  -30.6782  -40.7113 C.3       7 UNK         0.0196 
     46 CB         26.6789  -30.9595  -41.1858 C.3       7 UNK        -0.2007 
     47 C          24.3696  -31.9481  -40.6302 C.2       7 UNK         0.5020 
     48 O          24.8922  -33.0591  -40.7374 O.2       7 UNK        -0.5147 
     49 N          23.0559  -31.7612  -40.4415 N.am      8 UNK        -0.4734 
     50 CA         21.9873  -32.7545  -40.2446 C.3       8 UNK         0.0238 
     51 CB         22.2289  -33.5845  -38.9690 C.3       8 UNK        -0.1912 
     52 C          21.6840  -33.6706  -41.4455 C.2       8 UNK         0.5038 
     53 O          20.5180  -34.0173  -41.6288 O.2       8 UNK        -0.5046 
     54 N          22.7146  -34.0360  -42.2190 N.am      9 UNK        -0.4200 
     55 CA         22.7157  -34.8456  -43.4518 C.3       9 UNK         0.0839 
     56 C          22.0372  -36.2491  -43.3845 C.2       9 UNK         0.5513 
     57 N          21.8108  -36.8176  -42.2067 N.am      9 UNK        -0.7519 
     58 O          21.7591  -36.8601  -44.4136 O.2       9 UNK        -0.4960 
     59 C59        22.3821  -34.0215  -44.7312 C.3       10 UNK        -0.0876 
     60 S60        20.6626  -33.4215  -44.8610 S.3       10 UNK        -0.2414 
     61 C61        20.9013  -31.6624  -44.4737 C.3       10 UNK         0.0169 
     62 H62        15.8335  -22.6683  -47.9177 H         1 UNK         0.0903 
     63 H63        17.0590  -21.9426  -48.9602 H         1 UNK         0.0903 
     64 H64        16.2490  -23.4325  -49.4529 H         1 UNK         0.0903 
     65 H65        16.7564  -23.7142  -46.1334 H         1 UNK         0.3096 
     66 H66        19.5142  -24.4442  -46.0503 H         1 UNK         0.1121 
     67 H67        19.1560  -26.8706  -45.4836 H         1 UNK         0.0849 
     68 H68        18.7823  -26.5156  -47.1430 H         1 UNK         0.0849 
     69 H69        16.1741  -29.3084  -46.5441 H         1 UNK         0.0865 
     70 H70        17.7298  -28.8863  -47.2073 H         1 UNK         0.0865 
     71 H71        19.5307  -30.1192  -46.2596 H         1 UNK         0.1346 
     72 H72        19.3234  -31.6563  -42.2641 H         1 UNK         0.1412 
     73 H73        16.1306  -29.2376  -43.7959 H         1 UNK         0.1426 
     74 H74        17.2732  -31.4597  -41.0003 H         1 UNK         0.0716 
     75 H75        15.8505  -30.8466  -41.7977 H         1 UNK         0.0716 
     76 H76        18.9202  -30.2285  -39.7466 H         1 UNK         0.0695 
     77 H77        18.5153  -28.8331  -38.7830 H         1 UNK         0.0695 
     78 H78        19.8157  -28.8222  -41.5479 H         1 UNK         0.0983 
     79 H79        18.2538  -26.7778  -40.5873 H         1 UNK         0.3095 
     80 H80        18.0609  -24.9385  -41.7477 H         1 UNK         0.0454 
     81 H81        20.7560  -23.4456  -41.7056 H         1 UNK         0.0851 
     82 H82        19.6668  -23.6195  -40.3354 H         1 UNK         0.0851 
     83 H83        19.1665  -22.6901  -41.7394 H         1 UNK         0.0851 
     84 H84        20.0674  -25.2342  -43.8531 H         1 UNK         0.2976 
     85 H85        20.5298  -26.7840  -38.7373 H         1 UNK         0.3116 
     86 H86        22.7680  -28.3039  -37.7766 H         1 UNK         0.0646 
     87 H87        22.0393  -25.3535  -37.3535 H         1 UNK         0.0847 
     88 H88        23.2431  -26.2497  -36.4392 H         1 UNK         0.0847 
     89 H89        21.5516  -26.7029  -36.3274 H         1 UNK         0.0847 
     90 H90        22.4758  -25.5694  -40.0598 H         1 UNK         0.3040 
     91 H91        25.3235  -25.1953  -40.4277 H         1 UNK         0.1015 
     92 H92        22.9646  -24.2730  -42.1615 H         1 UNK         0.0786 
     93 H93        24.6136  -23.6764  -42.2519 H         1 UNK         0.0786 
     94 H94        23.6534  -23.3627  -40.8153 H         1 UNK         0.0786 
     95 H95        22.7561  -26.9785  -42.1096 H         1 UNK         0.3172 
     96 H96        24.4448  -28.0117  -44.2228 H         1 UNK         0.0595 
     97 H97        21.6696  -28.9244  -43.3075 H         1 UNK         0.0839 
     98 H98        22.4308  -29.2111  -44.8730 H         1 UNK         0.0839 
     99 H99        21.9589  -27.5881  -44.4202 H         1 UNK         0.0839 
    100 H100       24.4268  -28.7567  -40.9921 H         1 UNK         0.2998 
    101 H101       25.2988  -30.2956  -39.6913 H         1 UNK         0.0822 
    102 H102       27.2753  -30.0472  -41.2026 H         1 UNK         0.0787 
    103 H103       27.1806  -31.6612  -40.5183 H         1 UNK         0.0787 
    104 H104       26.6988  -31.3925  -42.1865 H         1 UNK         0.0787 
    105 H105       22.7290  -30.7940  -40.4003 H         1 UNK         0.3055 
    106 H106       21.0823  -32.1664  -40.0817 H         1 UNK         0.1106 
    107 H107       21.3863  -34.2486  -38.7713 H         1 UNK         0.0828 
    108 H108       23.1198  -34.2080  -39.0493 H         1 UNK         0.0828 
    109 H109       22.3460  -32.9429  -38.0957 H         1 UNK         0.0828 
    110 H110       23.6305  -33.7293  -41.9010 H         1 UNK         0.2931 
    111 H111       23.7691  -35.1067  -43.5595 H         1 UNK         0.0412 
    112 H112       22.0283  -36.3262  -41.3549 H         1 UNK         0.3472 
    113 H113       21.3875  -37.7317  -42.1711 H         1 UNK         0.3472 
    114 H114       22.5921  -34.6170  -45.6213 H         1 UNK         0.0970 
    115 H115       23.0637  -33.1716  -44.7975 H         1 UNK         0.0970 
    116 H116       21.5100  -31.5572  -43.5743 H         1 UNK         0.0612 
    117 H117       21.4637  -31.2078  -45.2891 H         1 UNK         0.0612 
@<TRIPOS>BOND
     1    1    2 1    
     2    1   62 1    
     3    1   63 1    
     4    1   64 1    
     5    2    3 2    
     6    2    4 am   BACKBONE|DICT|INTERRES
     7    4    5 1    
     8    4   65 1    
     9    5    6 1    
    10    5   25 1    
    11    5   66 1    
    12    6    7 1    
    13    6   67 1    
    14    6   68 1    
    15    7    8 1    
    16    8    9 1    
    17    8   69 1    
    18    8   70 1    
    19    9   10 ar   
    20    9   14 ar   
    21   10   11 ar   
    22   10   71 1    
    23   11   12 ar   
    24   11   61 1    
    25   12   13 ar   
    26   12   72 1    
    27   13   14 ar   
    28   13   15 1    
    29   14   73 1    
    30   15   16 1    
    31   15   74 1    
    32   15   75 1    
    33   16   17 1    
    34   17   18 1    
    35   17   76 1    
    36   17   77 1    
    37   18   19 1    
    38   18   27 1    
    39   18   78 1    
    40   19   20 am   BACKBONE|DICT|INTERRES
    41   19   79 1    
    42   20   21 2    
    43   20   22 1    
    44   22   23 1    
    45   22   24 1    
    46   22   80 1    
    47   23   81 1    
    48   23   82 1    
    49   23   83 1    
    50   24   25 am   BACKBONE|DICT|INTERRES
    51   24   84 1    
    52   25   26 2    
    53   27   28 2    
    54   27   29 am   BACKBONE|DICT|INTERRES
    55   29   30 1    
    56   29   85 1    
    57   30   31 1    
    58   30   32 1    
    59   30   86 1    
    60   31   87 1    
    61   31   88 1    
    62   31   89 1    
    63   32   33 2    
    64   32   34 am   BACKBONE|DICT|INTERRES
    65   34   35 1    
    66   34   90 1    
    67   35   36 1    
    68   35   37 1    
    69   35   91 1    
    70   36   92 1    
    71   36   93 1    
    72   36   94 1    
    73   37   38 2    
    74   37   39 am   BACKBONE|DICT|INTERRES
    75   39   40 1    
    76   39   95 1    
    77   40   41 1    
    78   40   42 1    
    79   40   96 1    
    80   41   97 1    
    81   41   98 1    
    82   41   99 1    
    83   42   43 2    
    84   42   44 am   BACKBONE|DICT|INTERRES
    85   44   45 1    
    86   44  100 1    
    87   45   46 1    
    88   45   47 1    
    89   45  101 1    
    90   46  102 1    
    91   46  103 1    
    92   46  104 1    
    93   47   48 2    
    94   47   49 am   BACKBONE|DICT|INTERRES
    95   49   50 1    
    96   49  105 1    
    97   50   51 1    
    98   50   52 1    
    99   50  106 1    
   100   51  107 1    
   101   51  108 1    
   102   51  109 1    
   103   52   53 2    
   104   52   54 am   BACKBONE|DICT|INTERRES
   105   54   55 1    
   106   54  110 1    
   107   55   56 1    
   108   55   59 1    
   109   55  111 1    
   110   56   57 am   BACKBONE|DICT|INTERRES
   111   56   58 2    
   112   57  112 1    
   113   57  113 1    
   114   59   60 1    
   115   59  114 1    
   116   59  115 1    
   117   60   61 1    
   118   61  116 1    
   119   61  117 1    
@<TRIPOS>SUBSTRUCTURE
     1 UNK         1 GROUP             0       ****    0 ROOT    
