@<TRIPOS>MOLECULE
3R8
117   119    1
SMALL
USER_CHARGES


@<TRIPOS>ATOM
      1 CA         16.8168  -22.8398  -40.6343 C.3       0 UNK        -0.2013 
      2 C          16.4788  -23.3788  -42.0163 C.2       0 UNK         0.4866 
      3 O          15.9947  -22.6286  -42.8648 O.2       0 UNK        -0.5176 
      4 N          16.7216  -24.6755  -42.2462 N.am      1 UNK        -0.4884 
      5 CA         16.5310  -25.3437  -43.5380 C.3       1 UNK         0.0853 
      6 C6         16.4763  -26.8794  -43.3597 C.3       10 UNK        -0.0849 
      7 S7         15.5471  -27.7153  -44.6852 S.3       10 UNK        -0.2776 
      8 C8         15.7779  -29.4604  -44.2112 C.3       10 UNK         0.0316 
      9 C9         17.2422  -29.8718  -44.2698 C.ar      10 UNK        -0.0863 
     10 C10        17.9635  -30.1077  -43.0955 C.ar      10 UNK        -0.1009 
     11 C11        19.3120  -30.4726  -43.1521 C.ar      10 UNK        -0.0712 
     12 C12        19.9425  -30.5837  -44.3962 C.ar      10 UNK        -0.0894 
     13 C13        19.2344  -30.3428  -45.5781 C.ar      10 UNK        -0.0745 
     14 C14        17.8790  -30.0057  -45.5053 C.ar      10 UNK        -0.0972 
     15 C15        19.9221  -30.4768  -46.9326 C.3       10 UNK         0.0209 
     16 S16        19.6366  -29.0322  -48.0105 S.3       10 UNK        -0.2568 
     17 C17        21.1255  -28.0057  -47.7448 C.3       10 UNK        -0.0983 
     18 CA         21.0319  -26.9469  -46.6077 C.3       3 UNK         0.0876 
     19 N          19.7453  -26.2465  -46.5798 N.am      3 UNK        -0.4424 
     20 C          19.5204  -25.0340  -47.0951 C.2       2 UNK         0.4918 
     21 O          20.3815  -24.3584  -47.6601 O.2       2 UNK        -0.4875 
     22 CA         18.0959  -24.4604  -46.9639 C.3       2 UNK         0.0481 
     23 CB         17.3183  -24.6853  -48.2708 C.3       2 UNK        -0.1831 
     24 N          17.2936  -24.9638  -45.8405 N.am      2 UNK        -0.4498 
     25 C          17.6268  -24.9205  -44.5425 C.2       1 UNK         0.5027 
     26 O          18.7438  -24.5937  -44.1314 O.2       1 UNK        -0.4969 
     27 C          21.4322  -27.4730  -45.2145 C.2       3 UNK         0.5005 
     28 O          22.2871  -28.3572  -45.1276 O.2       3 UNK        -0.5279 
     29 N          20.8492  -26.9158  -44.1401 N.am      4 UNK        -0.4463 
     30 CA         21.2235  -27.2472  -42.7648 C.3       4 UNK         0.0283 
     31 CB         20.1167  -26.8193  -41.7876 C.3       4 UNK        -0.1875 
     32 C          22.5614  -26.5983  -42.3842 C.2       4 UNK         0.4949 
     33 O          22.6981  -25.3775  -42.4839 O.2       4 UNK        -0.5039 
     34 N          23.5032  -27.4242  -41.9230 N.am      5 UNK        -0.4663 
     35 CA         24.7973  -27.0281  -41.3810 C.3       5 UNK         0.0242 
     36 CB         25.7901  -26.7273  -42.5185 C.3       5 UNK        -0.1982 
     37 C          25.2993  -28.1807  -40.5080 C.2       5 UNK         0.5017 
     38 O          25.1312  -29.3401  -40.8955 O.2       5 UNK        -0.5012 
     39 N          25.8814  -27.8494  -39.3456 N.am      6 UNK        -0.4439 
     40 CA         26.5390  -28.7484  -38.3792 C.3       6 UNK         0.0297 
     41 CB         27.8673  -29.2620  -38.9752 C.3       6 UNK        -0.2006 
     42 C          25.6767  -29.9153  -37.8415 C.2       6 UNK         0.4892 
     43 O          26.2336  -30.8600  -37.2800 O.2       6 UNK        -0.5089 
     44 N          24.3502  -29.8465  -38.0414 N.am      7 UNK        -0.4243 
     45 CA         23.3618  -30.9155  -37.8391 C.3       7 UNK         0.0196 
     46 CB         23.1756  -31.2179  -36.3370 C.3       7 UNK        -0.2007 
     47 C          23.6622  -32.1814  -38.6737 C.2       7 UNK         0.5020 
     48 O          23.3521  -33.2912  -38.2371 O.2       7 UNK        -0.5147 
     49 N          24.2588  -31.9999  -39.8638 N.am      8 UNK        -0.4734 
     50 CA         24.7521  -33.0708  -40.7411 C.3       8 UNK         0.0238 
     51 CB         25.5178  -32.4433  -41.9172 C.3       8 UNK        -0.1912 
     52 C          23.6747  -34.0410  -41.2587 C.2       8 UNK         0.5038 
     53 O          24.0074  -35.1758  -41.6036 O.2       8 UNK        -0.5046 
     54 N          22.4160  -33.5887  -41.2934 N.am      9 UNK        -0.4200 
     55 CA         21.2353  -34.4096  -41.5945 C.3       9 UNK         0.0839 
     56 C          20.7894  -35.3577  -40.4406 C.2       9 UNK         0.5513 
     57 N          21.3476  -35.2670  -39.2382 N.am      9 UNK        -0.7519 
     58 O          19.9267  -36.2072  -40.6485 O.2       9 UNK        -0.4960 
     59 C59        20.0661  -33.5482  -42.1392 C.3       10 UNK        -0.0876 
     60 S60        19.5286  -32.2232  -40.9990 S.3       10 UNK        -0.2414 
     61 C61        20.0904  -30.7249  -41.8669 C.3       10 UNK         0.0169 
     62 H62        17.5528  -22.0402  -40.7141 H         1 UNK         0.0903 
     63 H63        15.9231  -22.4347  -40.1603 H         1 UNK         0.0903 
     64 H64        17.2254  -23.6123  -39.9830 H         1 UNK         0.0903 
     65 H65        17.1453  -25.2338  -41.5194 H         1 UNK         0.3096 
     66 H66        15.5681  -25.0050  -43.9287 H         1 UNK         0.1121 
     67 H67        17.4794  -27.2998  -43.3026 H         1 UNK         0.0849 
     68 H68        15.9850  -27.1352  -42.4191 H         1 UNK         0.0849 
     69 H69        15.3666  -29.6223  -43.2136 H         1 UNK         0.0865 
     70 H70        15.1984  -30.0920  -44.8861 H         1 UNK         0.0865 
     71 H71        17.4784  -30.0095  -42.1339 H         1 UNK         0.1346 
     72 H72        20.9898  -30.8495  -44.4451 H         1 UNK         0.1412 
     73 H73        17.3203  -29.8259  -46.4138 H         1 UNK         0.1426 
     74 H74        19.5258  -31.3627  -47.4303 H         1 UNK         0.0716 
     75 H75        20.9938  -30.6446  -46.8158 H         1 UNK         0.0716 
     76 H76        21.2872  -27.4734  -48.6832 H         1 UNK         0.0695 
     77 H77        22.0030  -28.6458  -47.6402 H         1 UNK         0.0695 
     78 H78        21.8169  -26.2156  -46.8126 H         1 UNK         0.0983 
     79 H79        18.9770  -26.7490  -46.1588 H         1 UNK         0.3095 
     80 H80        18.2019  -23.3839  -46.8162 H         1 UNK         0.0454 
     81 H81        16.3528  -24.1796  -48.2534 H         1 UNK         0.0851 
     82 H82        17.1411  -25.7456  -48.4562 H         1 UNK         0.0851 
     83 H83        17.8691  -24.2935  -49.1272 H         1 UNK         0.0851 
     84 H84        16.3718  -25.3039  -46.0774 H         1 UNK         0.2976 
     85 H85        20.2217  -26.1289  -44.2660 H         1 UNK         0.3116 
     86 H86        21.3307  -28.3300  -42.6901 H         1 UNK         0.0646 
     87 H87        19.2181  -27.4164  -41.9252 H         1 UNK         0.0847 
     88 H88        20.4325  -26.9619  -40.7532 H         1 UNK         0.0847 
     89 H89        19.8549  -25.7672  -41.9048 H         1 UNK         0.0847 
     90 H90        23.3289  -28.4210  -41.8857 H         1 UNK         0.3040 
     91 H91        24.6677  -26.1361  -40.7637 H         1 UNK         0.1015 
     92 H92        26.7695  -26.4568  -42.1215 H         1 UNK         0.0786 
     93 H93        25.4502  -25.8952  -43.1353 H         1 UNK         0.0786 
     94 H94        25.9275  -27.5915  -43.1699 H         1 UNK         0.0786 
     95 H95        25.9311  -26.8669  -39.1099 H         1 UNK         0.3172 
     96 H96        26.7811  -28.1337  -37.5110 H         1 UNK         0.0595 
     97 H97        27.6963  -29.9329  -39.8181 H         1 UNK         0.0839 
     98 H98        28.4482  -29.8126  -38.2342 H         1 UNK         0.0839 
     99 H99        28.4920  -28.4394  -39.3231 H         1 UNK         0.0839 
    100 H100       24.0054  -29.0191  -38.5067 H         1 UNK         0.2998 
    101 H101       22.4134  -30.5296  -38.2160 H         1 UNK         0.0822 
    102 H102       22.3450  -31.9065  -36.1766 H         1 UNK         0.0787 
    103 H103       22.9559  -30.3110  -35.7737 H         1 UNK         0.0787 
    104 H104       24.0645  -31.6762  -35.9025 H         1 UNK         0.0787 
    105 H105       24.4945  -31.0522  -40.1474 H         1 UNK         0.3055 
    106 H106       25.4554  -33.6677  -40.1563 H         1 UNK         0.1106 
    107 H107       26.3594  -31.8447  -41.5678 H         1 UNK         0.0828 
    108 H108       25.9207  -33.2109  -42.5794 H         1 UNK         0.0828 
    109 H109       24.8753  -31.7971  -42.5168 H         1 UNK         0.0828 
    110 H110       22.2334  -32.6544  -40.9611 H         1 UNK         0.2931 
    111 H111       21.5190  -35.0787  -42.4094 H         1 UNK         0.0412 
    112 H112       21.0470  -35.8954  -38.5103 H         1 UNK         0.3472 
    113 H113       22.0589  -34.5716  -39.0370 H         1 UNK         0.3472 
    114 H114       20.3594  -33.1123  -43.0944 H         1 UNK         0.0970 
    115 H115       19.2019  -34.1745  -42.3685 H         1 UNK         0.0970 
    116 H116       19.9633  -29.8713  -41.2000 H         1 UNK         0.0612 
    117 H117       21.1603  -30.8036  -42.0657 H         1 UNK         0.0612 
@<TRIPOS>BOND
     1    1    2 1    
     2    1   62 1    
     3    1   63 1    
     4    1   64 1    
     5    2    3 2    
     6    2    4 am   BACKBONE|DICT|INTERRES
     7    4    5 1    
     8    4   65 1    
     9    5    6 1    
    10    5   25 1    
    11    5   66 1    
    12    6    7 1    
    13    6   67 1    
    14    6   68 1    
    15    7    8 1    
    16    8    9 1    
    17    8   69 1    
    18    8   70 1    
    19    9   10 ar   
    20    9   14 ar   
    21   10   11 ar   
    22   10   71 1    
    23   11   12 ar   
    24   11   61 1    
    25   12   13 ar   
    26   12   72 1    
    27   13   14 ar   
    28   13   15 1    
    29   14   73 1    
    30   15   16 1    
    31   15   74 1    
    32   15   75 1    
    33   16   17 1    
    34   17   18 1    
    35   17   76 1    
    36   17   77 1    
    37   18   19 1    
    38   18   27 1    
    39   18   78 1    
    40   19   20 am   BACKBONE|DICT|INTERRES
    41   19   79 1    
    42   20   21 2    
    43   20   22 1    
    44   22   23 1    
    45   22   24 1    
    46   22   80 1    
    47   23   81 1    
    48   23   82 1    
    49   23   83 1    
    50   24   25 am   BACKBONE|DICT|INTERRES
    51   24   84 1    
    52   25   26 2    
    53   27   28 2    
    54   27   29 am   BACKBONE|DICT|INTERRES
    55   29   30 1    
    56   29   85 1    
    57   30   31 1    
    58   30   32 1    
    59   30   86 1    
    60   31   87 1    
    61   31   88 1    
    62   31   89 1    
    63   32   33 2    
    64   32   34 am   BACKBONE|DICT|INTERRES
    65   34   35 1    
    66   34   90 1    
    67   35   36 1    
    68   35   37 1    
    69   35   91 1    
    70   36   92 1    
    71   36   93 1    
    72   36   94 1    
    73   37   38 2    
    74   37   39 am   BACKBONE|DICT|INTERRES
    75   39   40 1    
    76   39   95 1    
    77   40   41 1    
    78   40   42 1    
    79   40   96 1    
    80   41   97 1    
    81   41   98 1    
    82   41   99 1    
    83   42   43 2    
    84   42   44 am   BACKBONE|DICT|INTERRES
    85   44   45 1    
    86   44  100 1    
    87   45   46 1    
    88   45   47 1    
    89   45  101 1    
    90   46  102 1    
    91   46  103 1    
    92   46  104 1    
    93   47   48 2    
    94   47   49 am   BACKBONE|DICT|INTERRES
    95   49   50 1    
    96   49  105 1    
    97   50   51 1    
    98   50   52 1    
    99   50  106 1    
   100   51  107 1    
   101   51  108 1    
   102   51  109 1    
   103   52   53 2    
   104   52   54 am   BACKBONE|DICT|INTERRES
   105   54   55 1    
   106   54  110 1    
   107   55   56 1    
   108   55   59 1    
   109   55  111 1    
   110   56   57 am   BACKBONE|DICT|INTERRES
   111   56   58 2    
   112   57  112 1    
   113   57  113 1    
   114   59   60 1    
   115   59  114 1    
   116   59  115 1    
   117   60   61 1    
   118   61  116 1    
   119   61  117 1    
@<TRIPOS>SUBSTRUCTURE
     1 UNK         1 GROUP             0       ****    0 ROOT    
