@<TRIPOS>MOLECULE
3R8
117   119    1
SMALL
USER_CHARGES


@<TRIPOS>ATOM
      1 CA         12.3511  -26.6974  -47.3898 C.3       0 UNK        -0.2013 
      2 C          13.6853  -27.3970  -47.1769 C.2       0 UNK         0.4866 
      3 O          14.2294  -27.9787  -48.1164 O.2       0 UNK        -0.5176 
      4 N          14.2124  -27.3536  -45.9475 N.am      1 UNK        -0.4884 
      5 CA         15.5208  -27.8979  -45.5721 C.3       1 UNK         0.0853 
      6 C6         15.6523  -28.0805  -44.0365 C.3       10 UNK        -0.0849 
      7 S7         15.2196  -26.5935  -43.0646 S.3       10 UNK        -0.2776 
      8 C8         15.5014  -27.1836  -41.3664 C.3       10 UNK         0.0316 
      9 C9         16.9813  -27.3734  -41.0665 C.ar      10 UNK        -0.0863 
     10 C10        17.5014  -28.6512  -40.8425 C.ar      10 UNK        -0.1009 
     11 C11        18.8562  -28.8246  -40.5423 C.ar      10 UNK        -0.0712 
     12 C12        19.6889  -27.7050  -40.4552 C.ar      10 UNK        -0.0894 
     13 C13        19.1834  -26.4215  -40.6905 C.ar      10 UNK        -0.0745 
     14 C14        17.8279  -26.2640  -40.9916 C.ar      10 UNK        -0.0972 
     15 C15        20.0853  -25.1968  -40.5940 C.3       10 UNK         0.0209 
     16 S16        21.5660  -25.3101  -41.6495 S.3       10 UNK        -0.2568 
     17 C17        20.8563  -25.4428  -43.3295 C.3       10 UNK        -0.0983 
     18 CA         20.8668  -26.8981  -43.8865 C.3       3 UNK         0.0876 
     19 N          19.8866  -27.1073  -44.9573 N.am      3 UNK        -0.4424 
     20 C          19.9135  -26.5446  -46.1742 C.2       2 UNK         0.4918 
     21 O          20.6997  -25.6571  -46.5078 O.2       2 UNK        -0.4875 
     22 CA         18.9124  -27.0796  -47.2138 C.3       2 UNK         0.0481 
     23 CB         19.6089  -28.0879  -48.1421 C.3       2 UNK        -0.1831 
     24 N          17.7342  -27.7163  -46.6161 N.am      2 UNK        -0.4498 
     25 C          16.6687  -27.0455  -46.1571 C.2       1 UNK         0.5027 
     26 O          16.5739  -25.8151  -46.1802 O.2       1 UNK        -0.4969 
     27 C          22.2581  -27.4482  -44.2985 C.2       3 UNK         0.5005 
     28 O          22.3151  -28.4438  -45.0253 O.2       3 UNK        -0.5279 
     29 N          23.3308  -26.8047  -43.8146 N.am      4 UNK        -0.4463 
     30 CA         24.7534  -27.1594  -43.9036 C.3       4 UNK         0.0283 
     31 CB         25.2051  -27.3981  -45.3589 C.3       4 UNK        -0.1875 
     32 C          25.1302  -28.3430  -42.9936 C.2       4 UNK         0.4949 
     33 O          24.2986  -29.2015  -42.7015 O.2       4 UNK        -0.5039 
     34 N          26.3982  -28.3478  -42.5530 N.am      5 UNK        -0.4663 
     35 CA         27.0283  -29.3459  -41.6722 C.3       5 UNK         0.0242 
     36 CB         27.2021  -30.6875  -42.4138 C.3       5 UNK        -0.1982 
     37 C          26.3283  -29.5036  -40.3045 C.2       5 UNK         0.5017 
     38 O          26.2944  -30.6050  -39.7508 O.2       5 UNK        -0.5012 
     39 N          25.7884  -28.3908  -39.7832 N.am      6 UNK        -0.4439 
     40 CA         25.0156  -28.2806  -38.5423 C.3       6 UNK         0.0297 
     41 CB         25.9286  -28.4781  -37.3096 C.3       6 UNK        -0.2006 
     42 C          23.7790  -29.2000  -38.5736 C.2       6 UNK         0.4892 
     43 O          22.8714  -28.9514  -39.3660 O.2       6 UNK        -0.5089 
     44 N          23.7619  -30.2367  -37.7264 N.am      7 UNK        -0.4243 
     45 CA         22.6915  -31.2317  -37.6540 C.3       7 UNK         0.0196 
     46 CB         22.7803  -31.9639  -36.3051 C.3       7 UNK        -0.2007 
     47 C          22.7094  -32.2443  -38.8133 C.2       7 UNK         0.5020 
     48 O          21.6758  -32.8566  -39.0805 O.2       7 UNK        -0.5147 
     49 N          23.8548  -32.4196  -39.4884 N.am      8 UNK        -0.4734 
     50 CA         24.0459  -33.3944  -40.5693 C.3       8 UNK         0.0238 
     51 CB         25.5108  -33.8705  -40.5652 C.3       8 UNK        -0.1912 
     52 C          23.5990  -32.8482  -41.9406 C.2       8 UNK         0.5038 
     53 O          24.3161  -33.0088  -42.9298 O.2       8 UNK        -0.5046 
     54 N          22.4174  -32.2227  -41.9757 N.am      9 UNK        -0.4200 
     55 CA         21.8016  -31.6227  -43.1683 C.3       9 UNK         0.0839 
     56 C          21.2681  -32.6327  -44.2280 C.2       9 UNK         0.5513 
     57 N          21.2055  -33.9291  -43.9448 N.am      9 UNK        -0.7519 
     58 O          20.9102  -32.2327  -45.3330 O.2       9 UNK        -0.4960 
     59 C59        20.7371  -30.5656  -42.7758 C.3       10 UNK        -0.0876 
     60 S60        19.3558  -31.2498  -41.7929 S.3       10 UNK        -0.2414 
     61 C61        19.4089  -30.2210  -40.2923 C.3       10 UNK         0.0169 
     62 H62        11.9815  -26.2370  -46.4735 H         1 UNK         0.0903 
     63 H63        12.4529  -25.9173  -48.1438 H         1 UNK         0.0903 
     64 H64        11.6038  -27.4110  -47.7360 H         1 UNK         0.0903 
     65 H65        13.7479  -26.8299  -45.2182 H         1 UNK         0.3096 
     66 H66        15.5923  -28.8912  -46.0220 H         1 UNK         0.1121 
     67 H67        16.6610  -28.4027  -43.7704 H         1 UNK         0.0849 
     68 H68        14.9932  -28.8890  -43.7161 H         1 UNK         0.0849 
     69 H69        15.0882  -26.4552  -40.6671 H         1 UNK         0.0865 
     70 H70        14.9447  -28.1084  -41.2056 H         1 UNK         0.0865 
     71 H71        16.8545  -29.5162  -40.9004 H         1 UNK         0.1346 
     72 H72        20.7355  -27.8290  -40.2142 H         1 UNK         0.1412 
     73 H73        17.4241  -25.2757  -41.1663 H         1 UNK         0.1426 
     74 H74        20.4033  -25.0782  -39.5575 H         1 UNK         0.0716 
     75 H75        19.5405  -24.2877  -40.8539 H         1 UNK         0.0716 
     76 H76        21.3893  -24.7632  -43.9967 H         1 UNK         0.0695 
     77 H77        19.8312  -25.0699  -43.2936 H         1 UNK         0.0695 
     78 H78        20.5327  -27.5535  -43.0832 H         1 UNK         0.0983 
     79 H79        19.2137  -27.8404  -44.7962 H         1 UNK         0.3095 
     80 H80        18.5856  -26.2345  -47.8236 H         1 UNK         0.0454 
     81 H81        18.9374  -28.4374  -48.9264 H         1 UNK         0.0851 
     82 H82        19.9725  -28.9588  -47.5949 H         1 UNK         0.0851 
     83 H83        20.4699  -27.6333  -48.6344 H         1 UNK         0.0851 
     84 H84        17.7340  -28.7263  -46.5836 H         1 UNK         0.2976 
     85 H85        23.1276  -26.0326  -43.1908 H         1 UNK         0.3116 
     86 H86        25.2864  -26.2822  -43.5333 H         1 UNK         0.0646 
     87 H87        24.7940  -28.3214  -45.7679 H         1 UNK         0.0847 
     88 H88        24.9031  -26.5778  -46.0099 H         1 UNK         0.0847 
     89 H89        26.2908  -27.4789  -45.4212 H         1 UNK         0.0847 
     90 H90        27.0024  -27.5912  -42.8460 H         1 UNK         0.3040 
     91 H91        28.0272  -28.9690  -41.4465 H         1 UNK         0.1015 
     92 H92        27.7822  -31.3941  -41.8192 H         1 UNK         0.0786 
     93 H93        27.7284  -30.5538  -43.3588 H         1 UNK         0.0786 
     94 H94        26.2409  -31.1535  -42.6297 H         1 UNK         0.0786 
     95 H95        25.8385  -27.5508  -40.3418 H         1 UNK         0.3172 
     96 H96        24.6326  -27.2597  -38.5057 H         1 UNK         0.0595 
     97 H97        26.3992  -29.4616  -37.2894 H         1 UNK         0.0839 
     98 H98        25.3695  -28.3560  -36.3808 H         1 UNK         0.0839 
     99 H99        26.7274  -27.7365  -37.2964 H         1 UNK         0.0839 
    100 H100       24.5605  -30.3782  -37.1250 H         1 UNK         0.2998 
    101 H101       21.7333  -30.7089  -37.6941 H         1 UNK         0.0822 
    102 H102       21.9750  -32.6931  -36.2032 H         1 UNK         0.0787 
    103 H103       22.6928  -31.2694  -35.4693 H         1 UNK         0.0787 
    104 H104       23.7228  -32.5027  -36.1989 H         1 UNK         0.0787 
    105 H105       24.6455  -31.8154  -39.2864 H         1 UNK         0.3055 
    106 H106       23.4240  -34.2700  -40.3690 H         1 UNK         0.1106 
    107 H107       26.1991  -33.0603  -40.8042 H         1 UNK         0.0828 
    108 H108       25.7945  -34.2757  -39.5939 H         1 UNK         0.0828 
    109 H109       25.6690  -34.6594  -41.3018 H         1 UNK         0.0828 
    110 H110       21.8743  -32.1777  -41.1226 H         1 UNK         0.2931 
    111 H111       22.5970  -31.0789  -43.6811 H         1 UNK         0.0412 
    112 H112       21.4895  -34.2677  -43.0398 H         1 UNK         0.3472 
    113 H113       20.8614  -34.5714  -44.6411 H         1 UNK         0.3472 
    114 H114       21.2251  -29.7678  -42.2134 H         1 UNK         0.0970 
    115 H115       20.3270  -30.0874  -43.6668 H         1 UNK         0.0970 
    116 H116       20.4317  -30.1808  -39.9150 H         1 UNK         0.0612 
    117 H117       18.8150  -30.7040  -39.5153 H         1 UNK         0.0612 
@<TRIPOS>BOND
     1    1    2 1    
     2    1   62 1    
     3    1   63 1    
     4    1   64 1    
     5    2    3 2    
     6    2    4 am   BACKBONE|DICT|INTERRES
     7    4    5 1    
     8    4   65 1    
     9    5    6 1    
    10    5   25 1    
    11    5   66 1    
    12    6    7 1    
    13    6   67 1    
    14    6   68 1    
    15    7    8 1    
    16    8    9 1    
    17    8   69 1    
    18    8   70 1    
    19    9   10 ar   
    20    9   14 ar   
    21   10   11 ar   
    22   10   71 1    
    23   11   12 ar   
    24   11   61 1    
    25   12   13 ar   
    26   12   72 1    
    27   13   14 ar   
    28   13   15 1    
    29   14   73 1    
    30   15   16 1    
    31   15   74 1    
    32   15   75 1    
    33   16   17 1    
    34   17   18 1    
    35   17   76 1    
    36   17   77 1    
    37   18   19 1    
    38   18   27 1    
    39   18   78 1    
    40   19   20 am   BACKBONE|DICT|INTERRES
    41   19   79 1    
    42   20   21 2    
    43   20   22 1    
    44   22   23 1    
    45   22   24 1    
    46   22   80 1    
    47   23   81 1    
    48   23   82 1    
    49   23   83 1    
    50   24   25 am   BACKBONE|DICT|INTERRES
    51   24   84 1    
    52   25   26 2    
    53   27   28 2    
    54   27   29 am   BACKBONE|DICT|INTERRES
    55   29   30 1    
    56   29   85 1    
    57   30   31 1    
    58   30   32 1    
    59   30   86 1    
    60   31   87 1    
    61   31   88 1    
    62   31   89 1    
    63   32   33 2    
    64   32   34 am   BACKBONE|DICT|INTERRES
    65   34   35 1    
    66   34   90 1    
    67   35   36 1    
    68   35   37 1    
    69   35   91 1    
    70   36   92 1    
    71   36   93 1    
    72   36   94 1    
    73   37   38 2    
    74   37   39 am   BACKBONE|DICT|INTERRES
    75   39   40 1    
    76   39   95 1    
    77   40   41 1    
    78   40   42 1    
    79   40   96 1    
    80   41   97 1    
    81   41   98 1    
    82   41   99 1    
    83   42   43 2    
    84   42   44 am   BACKBONE|DICT|INTERRES
    85   44   45 1    
    86   44  100 1    
    87   45   46 1    
    88   45   47 1    
    89   45  101 1    
    90   46  102 1    
    91   46  103 1    
    92   46  104 1    
    93   47   48 2    
    94   47   49 am   BACKBONE|DICT|INTERRES
    95   49   50 1    
    96   49  105 1    
    97   50   51 1    
    98   50   52 1    
    99   50  106 1    
   100   51  107 1    
   101   51  108 1    
   102   51  109 1    
   103   52   53 2    
   104   52   54 am   BACKBONE|DICT|INTERRES
   105   54   55 1    
   106   54  110 1    
   107   55   56 1    
   108   55   59 1    
   109   55  111 1    
   110   56   57 am   BACKBONE|DICT|INTERRES
   111   56   58 2    
   112   57  112 1    
   113   57  113 1    
   114   59   60 1    
   115   59  114 1    
   116   59  115 1    
   117   60   61 1    
   118   61  116 1    
   119   61  117 1    
@<TRIPOS>SUBSTRUCTURE
     1 UNK         1 GROUP             0       ****    0 ROOT    
