@<TRIPOS>MOLECULE
3R8
117   119    1
SMALL
USER_CHARGES


@<TRIPOS>ATOM
      1 CA         13.8202  -29.8556  -43.8425 C.3       0 UNK        -0.2013 
      2 C          15.2330  -29.3023  -43.9456 C.2       0 UNK         0.4866 
      3 O          16.1904  -29.9994  -43.6120 O.2       0 UNK        -0.5176 
      4 N          15.3769  -28.0607  -44.4257 N.am      1 UNK        -0.4884 
      5 CA         16.6394  -27.3150  -44.5554 C.3       1 UNK         0.0853 
      6 C6         16.3839  -25.7843  -44.5763 C.3       10 UNK        -0.0849 
      7 S7         15.6791  -25.2045  -42.9936 S.3       10 UNK        -0.2776 
      8 C8         17.0790  -24.2999  -42.2504 C.3       10 UNK         0.0316 
      9 C9         18.3422  -25.1468  -42.1554 C.ar      10 UNK        -0.0863 
     10 C10        18.4140  -26.2163  -41.2582 C.ar      10 UNK        -0.1009 
     11 C11        19.5667  -27.0047  -41.1850 C.ar      10 UNK        -0.0712 
     12 C12        20.6584  -26.7080  -42.0072 C.ar      10 UNK        -0.0894 
     13 C13        20.6016  -25.6363  -42.9016 C.ar      10 UNK        -0.0745 
     14 C14        19.4423  -24.8586  -42.9686 C.ar      10 UNK        -0.0972 
     15 C15        21.7889  -25.2996  -43.7903 C.3       10 UNK         0.0209 
     16 S16        21.5032  -25.8434  -45.5049 S.3       10 UNK        -0.2568 
     17 C17        22.6196  -27.2776  -45.6603 C.3       10 UNK        -0.0983 
     18 CA         21.9460  -28.6331  -45.3318 C.3       3 UNK         0.0876 
     19 N          20.7210  -28.8428  -46.1101 N.am      3 UNK        -0.4424 
     20 C          19.9245  -29.9177  -46.0658 C.2       2 UNK         0.4918 
     21 O          20.1536  -30.9340  -45.4075 O.2       2 UNK        -0.4875 
     22 CA         18.5828  -29.7794  -46.7965 C.3       2 UNK         0.0481 
     23 CB         17.9947  -31.1408  -47.2078 C.3       2 UNK        -0.1831 
     24 N          17.6560  -29.1167  -45.8844 N.am      2 UNK        -0.4498 
     25 C          17.5002  -27.7947  -45.7499 C.2       1 UNK         0.5027 
     26 O          18.0143  -26.9785  -46.5169 O.2       1 UNK        -0.4969 
     27 C          22.9756  -29.7718  -45.4871 C.2       3 UNK         0.5005 
     28 O          23.1579  -30.3036  -46.5855 O.2       3 UNK        -0.5279 
     29 N          23.6678  -30.0702  -44.3859 N.am      4 UNK        -0.4463 
     30 CA         24.7841  -31.0085  -44.2912 C.3       4 UNK         0.0283 
     31 CB         24.2572  -32.4178  -43.9585 C.3       4 UNK        -0.1875 
     32 C          25.7308  -30.4394  -43.2263 C.2       4 UNK         0.4949 
     33 O          26.0392  -31.1144  -42.2452 O.2       4 UNK        -0.5039 
     34 N          26.0830  -29.1590  -43.4252 N.am      5 UNK        -0.4663 
     35 CA         26.3789  -28.1406  -42.4084 C.3       5 UNK         0.0242 
     36 CB         27.4147  -28.6095  -41.3613 C.3       5 UNK        -0.1982 
     37 C          25.0659  -27.6255  -41.7800 C.2       5 UNK         0.5017 
     38 O          23.9768  -27.9865  -42.2384 O.2       5 UNK        -0.5012 
     39 N          25.1887  -26.7596  -40.7660 N.am      6 UNK        -0.4439 
     40 CA         24.0747  -26.0849  -40.0862 C.3       6 UNK         0.0297 
     41 CB         24.6162  -24.8268  -39.3857 C.3       6 UNK        -0.2006 
     42 C          23.2958  -26.9693  -39.0898 C.2       6 UNK         0.4892 
     43 O          22.3212  -26.4942  -38.5062 O.2       6 UNK        -0.5089 
     44 N          23.7295  -28.2185  -38.8982 N.am      7 UNK        -0.4243 
     45 CA         23.0975  -29.2293  -38.0566 C.3       7 UNK         0.0196 
     46 CB         23.8353  -29.3033  -36.7088 C.3       7 UNK        -0.2007 
     47 C          23.1571  -30.5705  -38.7957 C.2       7 UNK         0.5020 
     48 O          23.9674  -30.7205  -39.7113 O.2       7 UNK        -0.5147 
     49 N          22.3005  -31.5160  -38.3824 N.am      8 UNK        -0.4734 
     50 CA         22.1288  -32.8593  -38.9639 C.3       8 UNK         0.0238 
     51 CB         23.3965  -33.7181  -38.7607 C.3       8 UNK        -0.1912 
     52 C          21.6513  -32.8366  -40.4328 C.2       8 UNK         0.5038 
     53 O          21.9889  -33.7343  -41.2067 O.2       8 UNK        -0.5046 
     54 N          20.8702  -31.8067  -40.7788 N.am      9 UNK        -0.4200 
     55 CA         20.2241  -31.6088  -42.0810 C.3       9 UNK         0.0839 
     56 C          19.1524  -32.6824  -42.4196 C.2       9 UNK         0.5513 
     57 N          18.8595  -32.8640  -43.6992 N.am      9 UNK        -0.7519 
     58 O          18.5772  -33.3307  -41.5467 O.2       9 UNK        -0.4960 
     59 C59        19.6723  -30.1642  -42.2210 C.3       10 UNK        -0.0876 
     60 S60        18.6607  -29.5945  -40.8079 S.3       10 UNK        -0.2414 
     61 C61        19.6300  -28.1734  -40.2129 C.3       10 UNK         0.0169 
     62 H62        13.5985  -30.1235  -42.8098 H         1 UNK         0.0903 
     63 H63        13.0736  -29.1340  -44.1735 H         1 UNK         0.0903 
     64 H64        13.7228  -30.7513  -44.4554 H         1 UNK         0.0903 
     65 H65        14.5513  -27.5464  -44.6988 H         1 UNK         0.3096 
     66 H66        17.2434  -27.5296  -43.6699 H         1 UNK         0.1121 
     67 H67        17.3018  -25.2299  -44.7774 H         1 UNK         0.0849 
     68 H68        15.6981  -25.5219  -45.3837 H         1 UNK         0.0849 
     69 H69        16.7944  -23.9660  -41.2515 H         1 UNK         0.0865 
     70 H70        17.2629  -23.3943  -42.8308 H         1 UNK         0.0865 
     71 H71        17.5654  -26.4466  -40.6284 H         1 UNK         0.1346 
     72 H72        21.5534  -27.3097  -41.9476 H         1 UNK         0.1412 
     73 H73        19.3976  -24.0322  -43.6651 H         1 UNK         0.1426 
     74 H74        22.7063  -25.7334  -43.3908 H         1 UNK         0.0716 
     75 H75        21.9434  -24.2196  -43.7885 H         1 UNK         0.0716 
     76 H76        23.4958  -27.1164  -45.0295 H         1 UNK         0.0695 
     77 H77        22.9918  -27.2848  -46.6868 H         1 UNK         0.0695 
     78 H78        21.6354  -28.6057  -44.2862 H         1 UNK         0.0983 
     79 H79        20.4088  -28.0414  -46.6410 H         1 UNK         0.3095 
     80 H80        18.7269  -29.1819  -47.6991 H         1 UNK         0.0454 
     81 H81        18.6893  -31.6878  -47.8464 H         1 UNK         0.0851 
     82 H82        17.0680  -31.0160  -47.7679 H         1 UNK         0.0851 
     83 H83        17.7781  -31.7711  -46.3445 H         1 UNK         0.0851 
     84 H84        17.2187  -29.6996  -45.1741 H         1 UNK         0.2976 
     85 H85        23.5197  -29.5136  -43.5469 H         1 UNK         0.3116 
     86 H86        25.3289  -31.0434  -45.2370 H         1 UNK         0.0646 
     87 H87        23.5734  -32.7783  -44.7269 H         1 UNK         0.0847 
     88 H88        23.7261  -32.4322  -43.0057 H         1 UNK         0.0847 
     89 H89        25.0762  -33.1343  -43.8877 H         1 UNK         0.0847 
     90 H90        25.7897  -28.7641  -44.3082 H         1 UNK         0.3040 
     91 H91        26.8121  -27.2982  -42.9503 H         1 UNK         0.1015 
     92 H92        27.8202  -27.7676  -40.7998 H         1 UNK         0.0786 
     93 H93        28.2588  -29.1097  -41.8362 H         1 UNK         0.0786 
     94 H94        26.9802  -29.3009  -40.6379 H         1 UNK         0.0786 
     95 H95        26.1167  -26.5213  -40.4459 H         1 UNK         0.3172 
     96 H96        23.3594  -25.7614  -40.8451 H         1 UNK         0.0595 
     97 H97        25.3343  -25.0772  -38.6039 H         1 UNK         0.0839 
     98 H98        23.8101  -24.2607  -38.9167 H         1 UNK         0.0839 
     99 H99        25.1062  -24.1569  -40.0926 H         1 UNK         0.0839 
    100 H100       24.4737  -28.5733  -39.4852 H         1 UNK         0.2998 
    101 H101       22.0485  -28.9761  -37.8879 H         1 UNK         0.0822 
    102 H102       23.3828  -30.0469  -36.0516 H         1 UNK         0.0787 
    103 H103       23.8007  -28.3467  -36.1870 H         1 UNK         0.0787 
    104 H104       24.8836  -29.5756  -36.8385 H         1 UNK         0.0787 
    105 H105       21.6847  -31.2964  -37.6105 H         1 UNK         0.3055 
    106 H106       21.3225  -33.3348  -38.4027 H         1 UNK         0.1106 
    107 H107       23.7098  -33.7243  -37.7169 H         1 UNK         0.0828 
    108 H108       23.2173  -34.7544  -39.0496 H         1 UNK         0.0828 
    109 H109       24.2321  -33.3562  -39.3607 H         1 UNK         0.0828 
    110 H110       20.6139  -31.1413  -40.0660 H         1 UNK         0.2931 
    111 H111       21.0141  -31.7224  -42.8270 H         1 UNK         0.0412 
    112 H112       19.3220  -32.3018  -44.4088 H         1 UNK         0.3472 
    113 H113       18.1635  -33.5437  -43.9600 H         1 UNK         0.3472 
    114 H114       19.0732  -30.0554  -43.1262 H         1 UNK         0.0970 
    115 H115       20.5155  -29.4887  -42.3533 H         1 UNK         0.0970 
    116 H116       19.2401  -27.8587  -39.2439 H         1 UNK         0.0612 
    117 H117       20.6620  -28.4827  -40.0417 H         1 UNK         0.0612 
@<TRIPOS>BOND
     1    1    2 1    
     2    1   62 1    
     3    1   63 1    
     4    1   64 1    
     5    2    3 2    
     6    2    4 am   BACKBONE|DICT|INTERRES
     7    4    5 1    
     8    4   65 1    
     9    5    6 1    
    10    5   25 1    
    11    5   66 1    
    12    6    7 1    
    13    6   67 1    
    14    6   68 1    
    15    7    8 1    
    16    8    9 1    
    17    8   69 1    
    18    8   70 1    
    19    9   10 ar   
    20    9   14 ar   
    21   10   11 ar   
    22   10   71 1    
    23   11   12 ar   
    24   11   61 1    
    25   12   13 ar   
    26   12   72 1    
    27   13   14 ar   
    28   13   15 1    
    29   14   73 1    
    30   15   16 1    
    31   15   74 1    
    32   15   75 1    
    33   16   17 1    
    34   17   18 1    
    35   17   76 1    
    36   17   77 1    
    37   18   19 1    
    38   18   27 1    
    39   18   78 1    
    40   19   20 am   BACKBONE|DICT|INTERRES
    41   19   79 1    
    42   20   21 2    
    43   20   22 1    
    44   22   23 1    
    45   22   24 1    
    46   22   80 1    
    47   23   81 1    
    48   23   82 1    
    49   23   83 1    
    50   24   25 am   BACKBONE|DICT|INTERRES
    51   24   84 1    
    52   25   26 2    
    53   27   28 2    
    54   27   29 am   BACKBONE|DICT|INTERRES
    55   29   30 1    
    56   29   85 1    
    57   30   31 1    
    58   30   32 1    
    59   30   86 1    
    60   31   87 1    
    61   31   88 1    
    62   31   89 1    
    63   32   33 2    
    64   32   34 am   BACKBONE|DICT|INTERRES
    65   34   35 1    
    66   34   90 1    
    67   35   36 1    
    68   35   37 1    
    69   35   91 1    
    70   36   92 1    
    71   36   93 1    
    72   36   94 1    
    73   37   38 2    
    74   37   39 am   BACKBONE|DICT|INTERRES
    75   39   40 1    
    76   39   95 1    
    77   40   41 1    
    78   40   42 1    
    79   40   96 1    
    80   41   97 1    
    81   41   98 1    
    82   41   99 1    
    83   42   43 2    
    84   42   44 am   BACKBONE|DICT|INTERRES
    85   44   45 1    
    86   44  100 1    
    87   45   46 1    
    88   45   47 1    
    89   45  101 1    
    90   46  102 1    
    91   46  103 1    
    92   46  104 1    
    93   47   48 2    
    94   47   49 am   BACKBONE|DICT|INTERRES
    95   49   50 1    
    96   49  105 1    
    97   50   51 1    
    98   50   52 1    
    99   50  106 1    
   100   51  107 1    
   101   51  108 1    
   102   51  109 1    
   103   52   53 2    
   104   52   54 am   BACKBONE|DICT|INTERRES
   105   54   55 1    
   106   54  110 1    
   107   55   56 1    
   108   55   59 1    
   109   55  111 1    
   110   56   57 am   BACKBONE|DICT|INTERRES
   111   56   58 2    
   112   57  112 1    
   113   57  113 1    
   114   59   60 1    
   115   59  114 1    
   116   59  115 1    
   117   60   61 1    
   118   61  116 1    
   119   61  117 1    
@<TRIPOS>SUBSTRUCTURE
     1 UNK         1 GROUP             0       ****    0 ROOT    
