@<TRIPOS>MOLECULE
3R8
117   119    1
SMALL
USER_CHARGES


@<TRIPOS>ATOM
      1 CA         17.6715  -25.8584  -38.9394 C.3       0 UNK        -0.2013 
      2 C          19.1374  -25.7601  -39.3531 C.2       0 UNK         0.4866 
      3 O          19.9992  -25.6374  -38.4860 O.2       0 UNK        -0.5176 
      4 N          19.4735  -25.8227  -40.6458 N.am      1 UNK        -0.4884 
      5 CA         18.5774  -26.0016  -41.7867 C.3       1 UNK         0.0853 
      6 C6         18.3826  -27.5116  -42.1070 C.3       10 UNK        -0.0849 
      7 S7         16.8485  -27.8570  -43.0380 S.3       10 UNK        -0.2776 
      8 C8         16.9741  -29.6489  -43.3338 C.3       10 UNK         0.0316 
      9 C9         18.2051  -30.0335  -44.1455 C.ar      10 UNK        -0.0863 
     10 C10        19.3225  -30.5646  -43.4963 C.ar      10 UNK        -0.1009 
     11 C11        20.4386  -30.9844  -44.2232 C.ar      10 UNK        -0.0712 
     12 C12        20.4405  -30.8519  -45.6142 C.ar      10 UNK        -0.0894 
     13 C13        19.3374  -30.3056  -46.2794 C.ar      10 UNK        -0.0745 
     14 C14        18.2196  -29.9001  -45.5392 C.ar      10 UNK        -0.0972 
     15 C15        19.3434  -30.1998  -47.8008 C.3       10 UNK         0.0209 
     16 S16        19.6286  -28.5036  -48.4054 S.3       10 UNK        -0.2568 
     17 C17        21.3404  -28.1727  -47.8525 C.3       10 UNK        -0.0983 
     18 CA         21.7023  -26.6564  -47.8308 C.3       3 UNK         0.0876 
     19 N          20.6853  -25.8221  -47.1671 N.am      3 UNK        -0.4424 
     20 C          20.2752  -25.9522  -45.8984 C.2       2 UNK         0.4918 
     21 O          20.8069  -26.7191  -45.0932 O.2       2 UNK        -0.4875 
     22 CA         19.0841  -25.0684  -45.4731 C.3       2 UNK         0.0481 
     23 CB         17.9221  -25.1490  -46.4822 C.3       2 UNK        -0.1831 
     24 N          18.5793  -25.4854  -44.1692 N.am      2 UNK        -0.4498 
     25 C          19.1165  -25.1875  -42.9823 C.2       1 UNK         0.5027 
     26 O          19.9809  -24.3213  -42.8171 O.2       1 UNK        -0.4969 
     27 C          23.1321  -26.4148  -47.2839 C.2       3 UNK         0.5005 
     28 O          24.0232  -27.2288  -47.5338 O.2       3 UNK        -0.5279 
     29 N          23.3218  -25.3040  -46.5500 N.am      4 UNK        -0.4463 
     30 CA         24.5270  -24.9051  -45.8128 C.3       4 UNK         0.0283 
     31 CB         25.6739  -24.5528  -46.7845 C.3       4 UNK        -0.1875 
     32 C          24.9414  -25.9311  -44.7363 C.2       4 UNK         0.4949 
     33 O          26.1358  -26.1675  -44.5448 O.2       4 UNK        -0.5039 
     34 N          23.9537  -26.5268  -44.0553 N.am      5 UNK        -0.4663 
     35 CA         24.1453  -27.5593  -43.0394 C.3       5 UNK         0.0242 
     36 CB         24.0240  -28.9373  -43.7123 C.3       5 UNK        -0.1982 
     37 C          23.1228  -27.3964  -41.9056 C.2       5 UNK         0.5017 
     38 O          22.1264  -26.6874  -42.0619 O.2       5 UNK        -0.5012 
     39 N          23.3948  -28.0592  -40.7761 N.am      6 UNK        -0.4439 
     40 CA         22.5035  -28.1241  -39.6185 C.3       6 UNK         0.0297 
     41 CB         23.3508  -28.2798  -38.3446 C.3       6 UNK        -0.2006 
     42 C          21.5384  -29.3091  -39.7555 C.2       6 UNK         0.4892 
     43 O          21.8957  -30.3192  -40.3629 O.2       6 UNK        -0.5089 
     44 N          20.3677  -29.2051  -39.1112 N.am      7 UNK        -0.4243 
     45 CA         19.3290  -30.2473  -39.0639 C.3       7 UNK         0.0196 
     46 CB         18.0872  -29.6884  -38.3509 C.3       7 UNK        -0.2007 
     47 C          19.7688  -31.5763  -38.4136 C.2       7 UNK         0.5020 
     48 O          19.0960  -32.5912  -38.5932 O.2       7 UNK        -0.5147 
     49 N          20.8963  -31.5573  -37.6913 N.am      8 UNK        -0.4734 
     50 CA         21.5513  -32.7144  -37.0786 C.3       8 UNK         0.0238 
     51 CB         22.6028  -32.2041  -36.0777 C.3       8 UNK        -0.1912 
     52 C          22.1877  -33.7028  -38.0797 C.2       8 UNK         0.5038 
     53 O          22.6787  -34.7424  -37.6368 O.2       8 UNK        -0.5046 
     54 N          22.1897  -33.3844  -39.3845 N.am      9 UNK        -0.4200 
     55 CA         22.7050  -34.2507  -40.4599 C.3       9 UNK         0.0839 
     56 C          21.9918  -35.6281  -40.6245 C.2       9 UNK         0.5513 
     57 N          20.7824  -35.8164  -40.1085 N.am      9 UNK        -0.7519 
     58 O          22.5539  -36.5409  -41.2244 O.2       9 UNK        -0.4960 
     59 C59        22.8180  -33.4933  -41.8112 C.3       10 UNK        -0.0876 
     60 S60        21.2081  -33.0718  -42.5684 S.3       10 UNK        -0.2414 
     61 C61        21.6413  -31.5706  -43.4994 C.3       10 UNK         0.0169 
     62 H62        17.1295  -26.6063  -39.5161 H         1 UNK         0.0903 
     63 H63        17.5919  -26.1365  -37.8885 H         1 UNK         0.0903 
     64 H64        17.1786  -24.8952  -39.0690 H         1 UNK         0.0903 
     65 H65        20.4453  -25.7179  -40.9208 H         1 UNK         0.3096 
     66 H66        17.6100  -25.5526  -41.5546 H         1 UNK         0.1121 
     67 H67        18.3321  -28.0927  -41.1857 H         1 UNK         0.0849 
     68 H68        19.2490  -27.8966  -42.6495 H         1 UNK         0.0849 
     69 H69        16.0775  -29.9816  -43.8587 H         1 UNK         0.0865 
     70 H70        16.9697  -30.1693  -42.3744 H         1 UNK         0.0865 
     71 H71        19.3243  -30.6701  -42.4207 H         1 UNK         0.1346 
     72 H72        21.3025  -31.1745  -46.1819 H         1 UNK         0.1412 
     73 H73        17.3587  -29.4895  -46.0492 H         1 UNK         0.1426 
     74 H74        18.3846  -30.5493  -48.1861 H         1 UNK         0.0716 
     75 H75        20.0985  -30.8604  -48.2299 H         1 UNK         0.0716 
     76 H76        22.0163  -28.7175  -48.5139 H         1 UNK         0.0695 
     77 H77        21.4803  -28.5999  -46.8591 H         1 UNK         0.0695 
     78 H78        21.7303  -26.3173  -48.8675 H         1 UNK         0.0983 
     79 H79        20.2095  -25.1614  -47.7648 H         1 UNK         0.3095 
     80 H80        19.4286  -24.0344  -45.4115 H         1 UNK         0.0454 
     81 H81        17.6154  -26.1810  -46.6607 H         1 UNK         0.0851 
     82 H82        18.1932  -24.7167  -47.4455 H         1 UNK         0.0851 
     83 H83        17.0500  -24.5998  -46.1267 H         1 UNK         0.0851 
     84 H84        17.9071  -26.2429  -44.1807 H         1 UNK         0.2976 
     85 H85        22.5153  -24.7111  -46.4135 H         1 UNK         0.3116 
     86 H86        24.2652  -23.9942  -45.2725 H         1 UNK         0.0646 
     87 H87        26.0351  -25.4309  -47.3208 H         1 UNK         0.0847 
     88 H88        26.5240  -24.1286  -46.2487 H         1 UNK         0.0847 
     89 H89        25.3581  -23.8153  -47.5221 H         1 UNK         0.0847 
     90 H90        22.9861  -26.2745  -44.2280 H         1 UNK         0.3040 
     91 H91        25.1392  -27.4614  -42.5964 H         1 UNK         0.1015 
     92 H92        23.0445  -29.0643  -44.1761 H         1 UNK         0.0786 
     93 H93        24.1638  -29.7452  -42.9935 H         1 UNK         0.0786 
     94 H94        24.7768  -29.0647  -44.4906 H         1 UNK         0.0786 
     95 H95        24.2000  -28.6683  -40.7512 H         1 UNK         0.3172 
     96 H96        21.9302  -27.1990  -39.5441 H         1 UNK         0.0595 
     97 H97        23.9219  -29.2095  -38.3467 H         1 UNK         0.0839 
     98 H98        24.0550  -27.4547  -38.2348 H         1 UNK         0.0839 
     99 H99        22.7224  -28.2843  -37.4530 H         1 UNK         0.0839 
    100 H100       20.1751  -28.3526  -38.6036 H         1 UNK         0.2998 
    101 H101       19.0531  -30.4820  -40.0932 H         1 UNK         0.0822 
    102 H102       17.2992  -30.4404  -38.2871 H         1 UNK         0.0787 
    103 H103       18.3150  -29.3686  -37.3333 H         1 UNK         0.0787 
    104 H104       17.6699  -28.8385  -38.8877 H         1 UNK         0.0787 
    105 H105       21.3803  -30.6755  -37.6125 H         1 UNK         0.3055 
    106 H106       20.7938  -33.2743  -36.5257 H         1 UNK         0.1106 
    107 H107       23.0821  -33.0324  -35.5538 H         1 UNK         0.0828 
    108 H108       23.3897  -31.6351  -36.5745 H         1 UNK         0.0828 
    109 H109       22.1525  -31.5646  -35.3183 H         1 UNK         0.0828 
    110 H110       21.7920  -32.5003  -39.6761 H         1 UNK         0.2931 
    111 H111       23.7273  -34.4949  -40.1644 H         1 UNK         0.0412 
    112 H112       20.3107  -35.0623  -39.6334 H         1 UNK         0.3472 
    113 H113       20.3300  -36.7104  -40.2161 H         1 UNK         0.3472 
    114 H114       23.3942  -32.5781  -41.6651 H         1 UNK         0.0970 
    115 H115       23.3867  -34.0872  -42.5289 H         1 UNK         0.0970 
    116 H116       22.4431  -31.8059  -44.2010 H         1 UNK         0.0612 
    117 H117       22.0330  -30.8212  -42.8156 H         1 UNK         0.0612 
@<TRIPOS>BOND
     1    1    2 1    
     2    1   62 1    
     3    1   63 1    
     4    1   64 1    
     5    2    3 2    
     6    2    4 am   BACKBONE|DICT|INTERRES
     7    4    5 1    
     8    4   65 1    
     9    5    6 1    
    10    5   25 1    
    11    5   66 1    
    12    6    7 1    
    13    6   67 1    
    14    6   68 1    
    15    7    8 1    
    16    8    9 1    
    17    8   69 1    
    18    8   70 1    
    19    9   10 ar   
    20    9   14 ar   
    21   10   11 ar   
    22   10   71 1    
    23   11   12 ar   
    24   11   61 1    
    25   12   13 ar   
    26   12   72 1    
    27   13   14 ar   
    28   13   15 1    
    29   14   73 1    
    30   15   16 1    
    31   15   74 1    
    32   15   75 1    
    33   16   17 1    
    34   17   18 1    
    35   17   76 1    
    36   17   77 1    
    37   18   19 1    
    38   18   27 1    
    39   18   78 1    
    40   19   20 am   BACKBONE|DICT|INTERRES
    41   19   79 1    
    42   20   21 2    
    43   20   22 1    
    44   22   23 1    
    45   22   24 1    
    46   22   80 1    
    47   23   81 1    
    48   23   82 1    
    49   23   83 1    
    50   24   25 am   BACKBONE|DICT|INTERRES
    51   24   84 1    
    52   25   26 2    
    53   27   28 2    
    54   27   29 am   BACKBONE|DICT|INTERRES
    55   29   30 1    
    56   29   85 1    
    57   30   31 1    
    58   30   32 1    
    59   30   86 1    
    60   31   87 1    
    61   31   88 1    
    62   31   89 1    
    63   32   33 2    
    64   32   34 am   BACKBONE|DICT|INTERRES
    65   34   35 1    
    66   34   90 1    
    67   35   36 1    
    68   35   37 1    
    69   35   91 1    
    70   36   92 1    
    71   36   93 1    
    72   36   94 1    
    73   37   38 2    
    74   37   39 am   BACKBONE|DICT|INTERRES
    75   39   40 1    
    76   39   95 1    
    77   40   41 1    
    78   40   42 1    
    79   40   96 1    
    80   41   97 1    
    81   41   98 1    
    82   41   99 1    
    83   42   43 2    
    84   42   44 am   BACKBONE|DICT|INTERRES
    85   44   45 1    
    86   44  100 1    
    87   45   46 1    
    88   45   47 1    
    89   45  101 1    
    90   46  102 1    
    91   46  103 1    
    92   46  104 1    
    93   47   48 2    
    94   47   49 am   BACKBONE|DICT|INTERRES
    95   49   50 1    
    96   49  105 1    
    97   50   51 1    
    98   50   52 1    
    99   50  106 1    
   100   51  107 1    
   101   51  108 1    
   102   51  109 1    
   103   52   53 2    
   104   52   54 am   BACKBONE|DICT|INTERRES
   105   54   55 1    
   106   54  110 1    
   107   55   56 1    
   108   55   59 1    
   109   55  111 1    
   110   56   57 am   BACKBONE|DICT|INTERRES
   111   56   58 2    
   112   57  112 1    
   113   57  113 1    
   114   59   60 1    
   115   59  114 1    
   116   59  115 1    
   117   60   61 1    
   118   61  116 1    
   119   61  117 1    
@<TRIPOS>SUBSTRUCTURE
     1 UNK         1 GROUP             0       ****    0 ROOT    
