@<TRIPOS>MOLECULE
3R8
117   119    1
SMALL
USER_CHARGES


@<TRIPOS>ATOM
      1 CA         17.2906  -22.0256  -41.0257 C.3       0 UNK        -0.2013 
      2 C          17.2285  -22.6679  -42.4034 C.2       0 UNK         0.4866 
      3 O          17.3453  -21.9685  -43.4096 O.2       0 UNK        -0.5176 
      4 N          17.0378  -23.9923  -42.4524 N.am      1 UNK        -0.4884 
      5 CA         17.0207  -24.8131  -43.6696 C.3       1 UNK         0.0853 
      6 C6         16.4587  -26.2342  -43.4042 C.3       10 UNK        -0.0849 
      7 S7         17.1345  -27.0419  -41.9057 S.3       10 UNK        -0.2776 
      8 C8         16.6434  -28.7760  -42.1568 C.3       10 UNK         0.0316 
      9 C9         17.6616  -29.5204  -43.0053 C.ar      10 UNK        -0.0863 
     10 C10        18.7268  -30.1912  -42.3951 C.ar      10 UNK        -0.1009 
     11 C11        19.6808  -30.8561  -43.1696 C.ar      10 UNK        -0.0712 
     12 C12        19.5562  -30.8568  -44.5609 C.ar      10 UNK        -0.0894 
     13 C13        18.5051  -30.1772  -45.1831 C.ar      10 UNK        -0.0745 
     14 C14        17.5495  -29.5284  -44.3986 C.ar      10 UNK        -0.0972 
     15 C15        18.4064  -30.1256  -46.7010 C.3       10 UNK         0.0209 
     16 S16        19.1066  -28.5802  -47.3733 S.3       10 UNK        -0.2568 
     17 C17        20.8940  -28.8620  -47.1364 C.3       10 UNK        -0.0983 
     18 CA         21.6893  -27.5960  -46.7235 C.3       3 UNK         0.0876 
     19 N          21.1355  -26.9271  -45.5366 N.am      3 UNK        -0.4424 
     20 C          21.3043  -25.6265  -45.2640 C.2       2 UNK         0.4918 
     21 O          21.8429  -24.8420  -46.0494 O.2       2 UNK        -0.4875 
     22 CA         20.8596  -25.1345  -43.8717 C.3       2 UNK         0.0481 
     23 CB         21.3114  -23.6863  -43.5916 C.3       2 UNK        -0.1831 
     24 N          19.4237  -25.2533  -43.6007 N.am      2 UNK        -0.4498 
     25 C          18.4008  -24.8320  -44.3602 C.2       1 UNK         0.5027 
     26 O          18.5072  -24.4116  -45.5134 O.2       1 UNK        -0.4969 
     27 C          23.1753  -27.9224  -46.4482 C.2       3 UNK         0.5005 
     28 O          23.5314  -29.0897  -46.2740 O.2       3 UNK        -0.5279 
     29 N          23.9970  -26.8725  -46.2949 N.am      4 UNK        -0.4463 
     30 CA         25.3595  -26.8415  -45.7372 C.3       4 UNK         0.0283 
     31 CB         26.3344  -27.7649  -46.4944 C.3       4 UNK        -0.1875 
     32 C          25.3904  -27.1012  -44.2173 C.2       4 UNK         0.4949 
     33 O          26.0398  -26.3448  -43.4927 O.2       4 UNK        -0.5039 
     34 N          24.6569  -28.1223  -43.7596 N.am      5 UNK        -0.4663 
     35 CA         24.3291  -28.3863  -42.3609 C.3       5 UNK         0.0242 
     36 CB         24.6972  -29.8413  -42.0265 C.3       5 UNK        -0.1982 
     37 C          22.8226  -28.1623  -42.1711 C.2       5 UNK         0.5017 
     38 O          22.0492  -28.4543  -43.0851 O.2       5 UNK        -0.5012 
     39 N          22.4318  -27.6586  -40.9946 N.am      6 UNK        -0.4439 
     40 CA         21.0340  -27.3998  -40.6248 C.3       6 UNK         0.0297 
     41 CB         20.9297  -25.9839  -40.0308 C.3       6 UNK        -0.2006 
     42 C          20.4748  -28.4406  -39.6376 C.2       6 UNK         0.4892 
     43 O          19.2935  -28.3672  -39.2998 O.2       6 UNK        -0.5089 
     44 N          21.3089  -29.3824  -39.1822 N.am      7 UNK        -0.4243 
     45 CA         20.9647  -30.4426  -38.2400 C.3       7 UNK         0.0196 
     46 CB         20.8458  -29.8689  -36.8131 C.3       7 UNK        -0.2007 
     47 C          22.0458  -31.5267  -38.3003 C.2       7 UNK         0.5020 
     48 O          23.1232  -31.2848  -38.8497 O.2       7 UNK        -0.5147 
     49 N          21.7363  -32.6919  -37.7138 N.am      8 UNK        -0.4734 
     50 CA         22.6161  -33.8558  -37.5117 C.3       8 UNK         0.0238 
     51 CB         23.7904  -33.4922  -36.5763 C.3       8 UNK        -0.1912 
     52 C          23.0977  -34.5514  -38.8030 C.2       8 UNK         0.5038 
     53 O          24.0386  -35.3455  -38.7429 O.2       8 UNK        -0.5046 
     54 N          22.4429  -34.2697  -39.9360 N.am      9 UNK        -0.4200 
     55 CA         22.7282  -34.8741  -41.2460 C.3       9 UNK         0.0839 
     56 C          22.1111  -36.2872  -41.4650 C.2       9 UNK         0.5513 
     57 N          21.2853  -36.8029  -40.5617 N.am      9 UNK        -0.7519 
     58 O          22.4028  -36.9357  -42.4669 O.2       9 UNK        -0.4960 
     59 C59        22.4089  -33.8964  -42.4060 C.3       10 UNK        -0.0876 
     60 S60        20.6673  -33.3401  -42.4660 S.3       10 UNK        -0.2414 
     61 C61        20.8773  -31.5350  -42.5234 C.3       10 UNK         0.0169 
     62 H62        16.5054  -21.2770  -40.9248 H         1 UNK         0.0903 
     63 H63        17.1659  -22.7575  -40.2278 H         1 UNK         0.0903 
     64 H64        18.2521  -21.5324  -40.8855 H         1 UNK         0.0903 
     65 H65        16.9442  -24.5148  -41.5918 H         1 UNK         0.3096 
     66 H66        16.3396  -24.3262  -44.3719 H         1 UNK         0.1121 
     67 H67        16.6122  -26.8681  -44.2771 H         1 UNK         0.0849 
     68 H68        15.3769  -26.1711  -43.2768 H         1 UNK         0.0849 
     69 H69        16.5547  -29.2572  -41.1814 H         1 UNK         0.0865 
     70 H70        15.6521  -28.8248  -42.6102 H         1 UNK         0.0865 
     71 H71        18.8198  -30.1826  -41.3183 H         1 UNK         0.1346 
     72 H72        20.2958  -31.3731  -45.1569 H         1 UNK         0.1412 
     73 H73        16.7285  -29.0165  -44.8801 H         1 UNK         0.1426 
     74 H74        18.9116  -30.9820  -47.1506 H         1 UNK         0.0716 
     75 H75        17.3601  -30.1979  -47.0016 H         1 UNK         0.0716 
     76 H76        21.0366  -29.6455  -46.3959 H         1 UNK         0.0695 
     77 H77        21.2914  -29.2632  -48.0705 H         1 UNK         0.0695 
     78 H78        21.6559  -26.9062  -47.5699 H         1 UNK         0.0983 
     79 H79        20.7693  -27.5362  -44.8153 H         1 UNK         0.3095 
     80 H80        21.3637  -25.7734  -43.1487 H         1 UNK         0.0454 
     81 H81        20.8393  -22.9783  -44.2740 H         1 UNK         0.0851 
     82 H82        21.0653  -23.3823  -42.5743 H         1 UNK         0.0851 
     83 H83        22.3910  -23.5821  -43.7071 H         1 UNK         0.0851 
     84 H84        19.1803  -25.6262  -42.6928 H         1 UNK         0.2976 
     85 H85        23.5668  -25.9593  -46.4061 H         1 UNK         0.3116 
     86 H86        25.7065  -25.8176  -45.8859 H         1 UNK         0.0646 
     87 H87        26.1074  -28.8203  -46.3428 H         1 UNK         0.0847 
     88 H88        26.3173  -27.5677  -47.5662 H         1 UNK         0.0847 
     89 H89        27.3578  -27.6069  -46.1517 H         1 UNK         0.0847 
     90 H90        24.1228  -28.6550  -44.4427 H         1 UNK         0.3040 
     91 H91        24.8815  -27.7139  -41.7006 H         1 UNK         0.1015 
     92 H92        24.1576  -30.5500  -42.6564 H         1 UNK         0.0786 
     93 H93        24.4599  -30.0797  -40.9887 H         1 UNK         0.0786 
     94 H94        25.7639  -30.0192  -42.1632 H         1 UNK         0.0786 
     95 H95        23.1300  -27.4380  -40.2976 H         1 UNK         0.3172 
     96 H96        20.3949  -27.4390  -41.5092 H         1 UNK         0.0595 
     97 H97        19.8923  -25.7295  -39.8086 H         1 UNK         0.0839 
     98 H98        21.3045  -25.2304  -40.7227 H         1 UNK         0.0839 
     99 H99        21.4927  -25.8933  -39.1014 H         1 UNK         0.0839 
    100 H100       22.2589  -29.4332  -39.5278 H         1 UNK         0.2998 
    101 H101       20.0140  -30.8875  -38.5416 H         1 UNK         0.0822 
    102 H102       20.6013  -30.6481  -36.0904 H         1 UNK         0.0787 
    103 H103       21.7784  -29.4051  -36.4896 H         1 UNK         0.0787 
    104 H104       20.0595  -29.1169  -36.7468 H         1 UNK         0.0787 
    105 H105       20.8124  -32.7828  -37.3113 H         1 UNK         0.3055 
    106 H106       22.0107  -34.6019  -36.9937 H         1 UNK         0.1106 
    107 H107       23.4364  -33.0292  -35.6551 H         1 UNK         0.0828 
    108 H108       24.3568  -34.3797  -36.2909 H         1 UNK         0.0828 
    109 H109       24.4887  -32.8026  -37.0521 H         1 UNK         0.0828 
    110 H110       21.6715  -33.6204  -39.9042 H         1 UNK         0.2931 
    111 H111       23.8068  -35.0387  -41.2908 H         1 UNK         0.0412 
    112 H112       20.8986  -37.7217  -40.7131 H         1 UNK         0.3472 
    113 H113       21.0373  -36.2802  -39.7373 H         1 UNK         0.3472 
    114 H114       23.0654  -33.0296  -42.3177 H         1 UNK         0.0970 
    115 H115       22.6593  -34.3469  -43.3684 H         1 UNK         0.0970 
    116 H116       21.7681  -31.2826  -43.1007 H         1 UNK         0.0612 
    117 H117       21.0458  -31.1559  -41.5146 H         1 UNK         0.0612 
@<TRIPOS>BOND
     1    1    2 1    
     2    1   62 1    
     3    1   63 1    
     4    1   64 1    
     5    2    3 2    
     6    2    4 am   BACKBONE|DICT|INTERRES
     7    4    5 1    
     8    4   65 1    
     9    5    6 1    
    10    5   25 1    
    11    5   66 1    
    12    6    7 1    
    13    6   67 1    
    14    6   68 1    
    15    7    8 1    
    16    8    9 1    
    17    8   69 1    
    18    8   70 1    
    19    9   10 ar   
    20    9   14 ar   
    21   10   11 ar   
    22   10   71 1    
    23   11   12 ar   
    24   11   61 1    
    25   12   13 ar   
    26   12   72 1    
    27   13   14 ar   
    28   13   15 1    
    29   14   73 1    
    30   15   16 1    
    31   15   74 1    
    32   15   75 1    
    33   16   17 1    
    34   17   18 1    
    35   17   76 1    
    36   17   77 1    
    37   18   19 1    
    38   18   27 1    
    39   18   78 1    
    40   19   20 am   BACKBONE|DICT|INTERRES
    41   19   79 1    
    42   20   21 2    
    43   20   22 1    
    44   22   23 1    
    45   22   24 1    
    46   22   80 1    
    47   23   81 1    
    48   23   82 1    
    49   23   83 1    
    50   24   25 am   BACKBONE|DICT|INTERRES
    51   24   84 1    
    52   25   26 2    
    53   27   28 2    
    54   27   29 am   BACKBONE|DICT|INTERRES
    55   29   30 1    
    56   29   85 1    
    57   30   31 1    
    58   30   32 1    
    59   30   86 1    
    60   31   87 1    
    61   31   88 1    
    62   31   89 1    
    63   32   33 2    
    64   32   34 am   BACKBONE|DICT|INTERRES
    65   34   35 1    
    66   34   90 1    
    67   35   36 1    
    68   35   37 1    
    69   35   91 1    
    70   36   92 1    
    71   36   93 1    
    72   36   94 1    
    73   37   38 2    
    74   37   39 am   BACKBONE|DICT|INTERRES
    75   39   40 1    
    76   39   95 1    
    77   40   41 1    
    78   40   42 1    
    79   40   96 1    
    80   41   97 1    
    81   41   98 1    
    82   41   99 1    
    83   42   43 2    
    84   42   44 am   BACKBONE|DICT|INTERRES
    85   44   45 1    
    86   44  100 1    
    87   45   46 1    
    88   45   47 1    
    89   45  101 1    
    90   46  102 1    
    91   46  103 1    
    92   46  104 1    
    93   47   48 2    
    94   47   49 am   BACKBONE|DICT|INTERRES
    95   49   50 1    
    96   49  105 1    
    97   50   51 1    
    98   50   52 1    
    99   50  106 1    
   100   51  107 1    
   101   51  108 1    
   102   51  109 1    
   103   52   53 2    
   104   52   54 am   BACKBONE|DICT|INTERRES
   105   54   55 1    
   106   54  110 1    
   107   55   56 1    
   108   55   59 1    
   109   55  111 1    
   110   56   57 am   BACKBONE|DICT|INTERRES
   111   56   58 2    
   112   57  112 1    
   113   57  113 1    
   114   59   60 1    
   115   59  114 1    
   116   59  115 1    
   117   60   61 1    
   118   61  116 1    
   119   61  117 1    
@<TRIPOS>SUBSTRUCTURE
     1 UNK         1 GROUP             0       ****    0 ROOT    
