@<TRIPOS>MOLECULE
3R8
117   119    1
SMALL
USER_CHARGES


@<TRIPOS>ATOM
      1 CA         16.4471  -23.9099  -47.0815 C.3       0 UNK        -0.2013 
      2 C          16.5939  -25.2319  -46.3428 C.2       0 UNK         0.4866 
      3 O          15.9343  -26.2079  -46.7014 O.2       0 UNK        -0.5176 
      4 N          17.4553  -25.2684  -45.3210 N.am      1 UNK        -0.4884 
      5 CA         17.7635  -26.4498  -44.5164 C.3       1 UNK         0.0853 
      6 C6         17.2165  -26.3238  -43.0711 C.3       10 UNK        -0.0849 
      7 S7         15.4109  -26.5415  -42.9261 S.3       10 UNK        -0.2776 
      8 C8         15.1198  -28.2333  -43.5623 C.3       10 UNK         0.0316 
      9 C9         16.1636  -29.2615  -43.1298 C.ar      10 UNK        -0.0863 
     10 C10        16.7623  -30.0876  -44.0880 C.ar      10 UNK        -0.1009 
     11 C11        17.7188  -31.0384  -43.7192 C.ar      10 UNK        -0.0712 
     12 C12        18.0914  -31.1370  -42.3729 C.ar      10 UNK        -0.0894 
     13 C13        17.4912  -30.3320  -41.4011 C.ar      10 UNK        -0.0745 
     14 C14        16.5185  -29.4048  -41.7837 C.ar      10 UNK        -0.0972 
     15 C15        17.8605  -30.5061  -39.9344 C.3       10 UNK         0.0209 
     16 S16        19.6219  -30.1760  -39.6103 S.3       10 UNK        -0.2568 
     17 C17        19.6760  -28.3531  -39.5754 C.3       10 UNK        -0.0983 
     18 CA         20.8631  -27.8081  -40.4056 C.3       3 UNK         0.0876 
     19 N          20.6852  -28.0735  -41.8385 N.am      3 UNK        -0.4424 
     20 C          21.6115  -27.9013  -42.7921 C.2       2 UNK         0.4918 
     21 O          22.7441  -27.4739  -42.5785 O.2       2 UNK        -0.4875 
     22 CA         21.1775  -28.1932  -44.2357 C.3       2 UNK         0.0481 
     23 CB         21.4342  -29.6682  -44.5655 C.3       2 UNK        -0.1831 
     24 N          19.7679  -27.8590  -44.4695 N.am      2 UNK        -0.4498 
     25 C          19.2880  -26.6062  -44.4602 C.2       1 UNK         0.5027 
     26 O          19.9934  -25.6030  -44.3284 O.2       1 UNK        -0.4969 
     27 C          21.1609  -26.3281  -40.0634 C.2       3 UNK         0.5005 
     28 O          21.5696  -26.0463  -38.9360 O.2       3 UNK        -0.5279 
     29 N          20.9788  -25.4084  -41.0235 N.am      4 UNK        -0.4463 
     30 CA         21.3858  -24.0070  -40.9092 C.3       4 UNK         0.0283 
     31 CB         20.6022  -23.1707  -41.9338 C.3       4 UNK        -0.1875 
     32 C          22.9023  -23.7992  -41.0987 C.2       4 UNK         0.4949 
     33 O          23.4142  -22.7720  -40.6527 O.2       4 UNK        -0.5039 
     34 N          23.5869  -24.7426  -41.7637 N.am      5 UNK        -0.4663 
     35 CA         25.0119  -24.6571  -42.1041 C.3       5 UNK         0.0242 
     36 CB         25.1564  -24.6094  -43.6343 C.3       5 UNK        -0.1982 
     37 C          25.8319  -25.8233  -41.5306 C.2       5 UNK         0.5017 
     38 O          26.9734  -25.6069  -41.1218 O.2       5 UNK        -0.5012 
     39 N          25.2543  -27.0289  -41.5184 N.am      6 UNK        -0.4439 
     40 CA         25.8576  -28.2674  -41.0353 C.3       6 UNK         0.0297 
     41 CB         26.4873  -29.0290  -42.2209 C.3       6 UNK        -0.2006 
     42 C          24.7816  -29.0510  -40.2670 C.2       6 UNK         0.4892 
     43 O          24.1627  -28.4769  -39.3707 O.2       6 UNK        -0.5089 
     44 N          24.5675  -30.3249  -40.6162 N.am      7 UNK        -0.4243 
     45 CA         23.5583  -31.2228  -40.0580 C.3       7 UNK         0.0196 
     46 CB         23.9021  -31.5912  -38.5990 C.3       7 UNK        -0.2007 
     47 C          23.4889  -32.4853  -40.9281 C.2       7 UNK         0.5020 
     48 O          24.3842  -32.7117  -41.7450 O.2       7 UNK        -0.5147 
     49 N          22.4411  -33.2928  -40.7104 N.am      8 UNK        -0.4734 
     50 CA         22.2190  -34.6467  -41.2509 C.3       8 UNK         0.0238 
     51 CB         23.3298  -35.6099  -40.7782 C.3       8 UNK        -0.1912 
     52 C          21.9857  -34.7424  -42.7742 C.2       8 UNK         0.5038 
     53 O          21.9609  -35.8553  -43.3040 O.2       8 UNK        -0.5046 
     54 N          21.7742  -33.6000  -43.4391 N.am      9 UNK        -0.4200 
     55 CA         21.4884  -33.4669  -44.8788 C.3       9 UNK         0.0839 
     56 C          22.6744  -33.9022  -45.7948 C.2       9 UNK         0.5513 
     57 N          22.4476  -34.0860  -47.0891 N.am      9 UNK        -0.7519 
     58 O          23.8175  -34.0247  -45.3606 O.2       9 UNK        -0.4960 
     59 C59        20.1149  -34.0826  -45.2978 C.3       10 UNK        -0.0876 
     60 S60        18.7285  -33.6154  -44.2050 S.3       10 UNK        -0.2414 
     61 C61        18.3478  -31.9293  -44.7906 C.3       10 UNK         0.0169 
     62 H62        15.4147  -23.5652  -47.0304 H         1 UNK         0.0903 
     63 H63        17.0846  -23.1331  -46.6594 H         1 UNK         0.0903 
     64 H64        16.7135  -24.0345  -48.1307 H         1 UNK         0.0903 
     65 H65        18.0241  -24.4589  -45.1083 H         1 UNK         0.3096 
     66 H66        17.3608  -27.3449  -44.9926 H         1 UNK         0.1121 
     67 H67        17.6897  -27.0425  -42.4008 H         1 UNK         0.0849 
     68 H68        17.4683  -25.3451  -42.6573 H         1 UNK         0.0849 
     69 H69        14.1377  -28.5685  -43.2264 H         1 UNK         0.0865 
     70 H70        15.0618  -28.1797  -44.6507 H         1 UNK         0.0865 
     71 H71        16.4765  -29.9964  -45.1275 H         1 UNK         0.1346 
     72 H72        18.8394  -31.8552  -42.0674 H         1 UNK         0.1412 
     73 H73        16.0415  -28.7843  -41.0370 H         1 UNK         0.1426 
     74 H74        17.6417  -31.5341  -39.6423 H         1 UNK         0.0716 
     75 H75        17.2483  -29.8710  -39.2922 H         1 UNK         0.0716 
     76 H76        19.7623  -28.0594  -38.5274 H         1 UNK         0.0695 
     77 H77        18.7326  -27.9366  -39.9334 H         1 UNK         0.0695 
     78 H78        21.7529  -28.3559  -40.0974 H         1 UNK         0.0983 
     79 H79        19.7891  -28.4546  -42.1025 H         1 UNK         0.3095 
     80 H80        21.7891  -27.5817  -44.9028 H         1 UNK         0.0454 
     81 H81        22.4934  -29.9096  -44.4634 H         1 UNK         0.0851 
     82 H82        20.8862  -30.3289  -43.8932 H         1 UNK         0.0851 
     83 H83        21.1486  -29.9021  -45.5910 H         1 UNK         0.0851 
     84 H84        19.1280  -28.6331  -44.5787 H         1 UNK         0.2976 
     85 H85        20.6414  -25.7080  -41.9280 H         1 UNK         0.3116 
     86 H86        21.1245  -23.6479  -39.9114 H         1 UNK         0.0646 
     87 H87        20.8272  -22.1092  -41.8223 H         1 UNK         0.0847 
     88 H88        19.5260  -23.2878  -41.8066 H         1 UNK         0.0847 
     89 H89        20.8526  -23.4479  -42.9585 H         1 UNK         0.0847 
     90 H90        23.0960  -25.5739  -42.0730 H         1 UNK         0.3040 
     91 H91        25.4462  -23.7410  -41.6980 H         1 UNK         0.1015 
     92 H92        24.6546  -23.7360  -44.0507 H         1 UNK         0.0786 
     93 H93        24.7330  -25.4960  -44.1081 H         1 UNK         0.0786 
     94 H94        26.2057  -24.5505  -43.9274 H         1 UNK         0.0786 
     95 H95        24.3001  -27.1276  -41.8629 H         1 UNK         0.3172 
     96 H96        26.6442  -28.0391  -40.3136 H         1 UNK         0.0595 
     97 H97        26.9839  -29.9421  -41.8904 H         1 UNK         0.0839 
     98 H98        27.2446  -28.4209  -42.7158 H         1 UNK         0.0839 
     99 H99        25.7438  -29.3004  -42.9716 H         1 UNK         0.0839 
    100 H100       25.1017  -30.7393  -41.3713 H         1 UNK         0.2998 
    101 H101       22.5888  -30.7235  -40.0962 H         1 UNK         0.0822 
    102 H102       24.8827  -32.0630  -38.5262 H         1 UNK         0.0787 
    103 H103       23.9044  -30.7155  -37.9504 H         1 UNK         0.0787 
    104 H104       23.1735  -32.2877  -38.1825 H         1 UNK         0.0787 
    105 H105       21.7493  -32.9872  -40.0384 H         1 UNK         0.3055 
    106 H106       21.2853  -34.9907  -40.8028 H         1 UNK         0.1106 
    107 H107       24.2900  -35.3777  -41.2398 H         1 UNK         0.0828 
    108 H108       23.4581  -35.5693  -39.6966 H         1 UNK         0.0828 
    109 H109       23.0910  -36.6430  -41.0336 H         1 UNK         0.0828 
    110 H110       21.8556  -32.7394  -42.9211 H         1 UNK         0.2931 
    111 H111       21.4184  -32.3939  -45.0412 H         1 UNK         0.0412 
    112 H112       23.2183  -34.3478  -47.6843 H         1 UNK         0.3472 
    113 H113       21.5301  -33.9668  -47.4871 H         1 UNK         0.3472 
    114 H114       19.8509  -33.7921  -46.3155 H         1 UNK         0.0970 
    115 H115       20.1800  -35.1720  -45.3033 H         1 UNK         0.0970 
    116 H116       19.2533  -31.4484  -45.1540 H         1 UNK         0.0612 
    117 H117       17.6817  -32.0159  -45.6503 H         1 UNK         0.0612 
@<TRIPOS>BOND
     1    1    2 1    
     2    1   62 1    
     3    1   63 1    
     4    1   64 1    
     5    2    3 2    
     6    2    4 am   BACKBONE|DICT|INTERRES
     7    4    5 1    
     8    4   65 1    
     9    5    6 1    
    10    5   25 1    
    11    5   66 1    
    12    6    7 1    
    13    6   67 1    
    14    6   68 1    
    15    7    8 1    
    16    8    9 1    
    17    8   69 1    
    18    8   70 1    
    19    9   10 ar   
    20    9   14 ar   
    21   10   11 ar   
    22   10   71 1    
    23   11   12 ar   
    24   11   61 1    
    25   12   13 ar   
    26   12   72 1    
    27   13   14 ar   
    28   13   15 1    
    29   14   73 1    
    30   15   16 1    
    31   15   74 1    
    32   15   75 1    
    33   16   17 1    
    34   17   18 1    
    35   17   76 1    
    36   17   77 1    
    37   18   19 1    
    38   18   27 1    
    39   18   78 1    
    40   19   20 am   BACKBONE|DICT|INTERRES
    41   19   79 1    
    42   20   21 2    
    43   20   22 1    
    44   22   23 1    
    45   22   24 1    
    46   22   80 1    
    47   23   81 1    
    48   23   82 1    
    49   23   83 1    
    50   24   25 am   BACKBONE|DICT|INTERRES
    51   24   84 1    
    52   25   26 2    
    53   27   28 2    
    54   27   29 am   BACKBONE|DICT|INTERRES
    55   29   30 1    
    56   29   85 1    
    57   30   31 1    
    58   30   32 1    
    59   30   86 1    
    60   31   87 1    
    61   31   88 1    
    62   31   89 1    
    63   32   33 2    
    64   32   34 am   BACKBONE|DICT|INTERRES
    65   34   35 1    
    66   34   90 1    
    67   35   36 1    
    68   35   37 1    
    69   35   91 1    
    70   36   92 1    
    71   36   93 1    
    72   36   94 1    
    73   37   38 2    
    74   37   39 am   BACKBONE|DICT|INTERRES
    75   39   40 1    
    76   39   95 1    
    77   40   41 1    
    78   40   42 1    
    79   40   96 1    
    80   41   97 1    
    81   41   98 1    
    82   41   99 1    
    83   42   43 2    
    84   42   44 am   BACKBONE|DICT|INTERRES
    85   44   45 1    
    86   44  100 1    
    87   45   46 1    
    88   45   47 1    
    89   45  101 1    
    90   46  102 1    
    91   46  103 1    
    92   46  104 1    
    93   47   48 2    
    94   47   49 am   BACKBONE|DICT|INTERRES
    95   49   50 1    
    96   49  105 1    
    97   50   51 1    
    98   50   52 1    
    99   50  106 1    
   100   51  107 1    
   101   51  108 1    
   102   51  109 1    
   103   52   53 2    
   104   52   54 am   BACKBONE|DICT|INTERRES
   105   54   55 1    
   106   54  110 1    
   107   55   56 1    
   108   55   59 1    
   109   55  111 1    
   110   56   57 am   BACKBONE|DICT|INTERRES
   111   56   58 2    
   112   57  112 1    
   113   57  113 1    
   114   59   60 1    
   115   59  114 1    
   116   59  115 1    
   117   60   61 1    
   118   61  116 1    
   119   61  117 1    
@<TRIPOS>SUBSTRUCTURE
     1 UNK         1 GROUP             0       ****    0 ROOT    
