@<TRIPOS>MOLECULE
3R8
117   119    1
SMALL
USER_CHARGES


@<TRIPOS>ATOM
      1 CA         15.3688  -28.1798  -38.1925 C.3       0 UNK        -0.2013 
      2 C          15.9304  -27.3725  -39.3530 C.2       0 UNK         0.4866 
      3 O          16.3717  -26.2406  -39.1551 O.2       0 UNK        -0.5176 
      4 N          15.9245  -27.9468  -40.5625 N.am      1 UNK        -0.4884 
      5 CA         16.4866  -27.3453  -41.7737 C.3       1 UNK         0.0853 
      6 C6         15.8733  -27.9813  -43.0449 C.3       10 UNK        -0.0849 
      7 S7         16.2866  -27.0520  -44.5612 S.3       10 UNK        -0.2776 
      8 C8         16.1982  -28.3547  -45.8311 C.3       10 UNK         0.0316 
      9 C9         17.3501  -29.3475  -45.7356 C.ar      10 UNK        -0.0863 
     10 C10        17.1415  -30.6211  -45.1961 C.ar      10 UNK        -0.1009 
     11 C11        18.1806  -31.5555  -45.1478 C.ar      10 UNK        -0.0712 
     12 C12        19.4390  -31.2026  -45.6475 C.ar      10 UNK        -0.0894 
     13 C13        19.6631  -29.9326  -46.1870 C.ar      10 UNK        -0.0745 
     14 C14        18.6139  -29.0090  -46.2296 C.ar      10 UNK        -0.0972 
     15 C15        21.0308  -29.5834  -46.7556 C.3       10 UNK         0.0209 
     16 S16        22.1150  -28.8392  -45.5001 S.3       10 UNK        -0.2568 
     17 C17        21.7474  -27.0657  -45.7288 C.3       10 UNK        -0.0983 
     18 CA         22.3327  -26.1467  -44.6221 C.3       3 UNK         0.0876 
     19 N          21.7295  -26.4068  -43.3194 N.am      3 UNK        -0.4424 
     20 C          20.5829  -25.8754  -42.8960 C.2       2 UNK         0.4918 
     21 O          19.8939  -25.0968  -43.5601 O.2       2 UNK        -0.4875 
     22 CA         20.1563  -26.2366  -41.4681 C.3       2 UNK         0.0481 
     23 CB         20.6257  -25.1590  -40.4766 C.3       2 UNK        -0.1831 
     24 N          18.7027  -26.3605  -41.3917 N.am      2 UNK        -0.4498 
     25 C          18.0239  -27.4602  -41.7388 C.2       1 UNK         0.5027 
     26 O          18.5580  -28.5420  -41.9855 O.2       1 UNK        -0.4969 
     27 C          23.8664  -26.2080  -44.4921 C.2       3 UNK         0.5005 
     28 O          24.3899  -26.3481  -43.3831 O.2       3 UNK        -0.5279 
     29 N          24.5684  -26.1097  -45.6292 N.am      4 UNK        -0.4463 
     30 CA         26.0281  -26.2162  -45.7119 C.3       4 UNK         0.0283 
     31 CB         26.4903  -25.7797  -47.1117 C.3       4 UNK        -0.1875 
     32 C          26.5644  -27.6228  -45.3849 C.2       4 UNK         0.4949 
     33 O          27.7169  -27.7381  -44.9672 O.2       4 UNK        -0.5039 
     34 N          25.7388  -28.6612  -45.5861 N.am      5 UNK        -0.4663 
     35 CA         26.0920  -30.0526  -45.2982 C.3       5 UNK         0.0242 
     36 CB         25.1623  -31.0030  -46.0708 C.3       5 UNK        -0.1982 
     37 C          26.0687  -30.3699  -43.7945 C.2       5 UNK         0.5017 
     38 O          26.9588  -31.0801  -43.3249 O.2       5 UNK        -0.5012 
     39 N          25.0706  -29.8459  -43.0694 N.am      6 UNK        -0.4439 
     40 CA         24.8783  -30.0515  -41.6352 C.3       6 UNK         0.0297 
     41 CB         24.4493  -31.5050  -41.3486 C.3       6 UNK        -0.2006 
     42 C          23.8151  -29.0853  -41.1030 C.2       6 UNK         0.4892 
     43 O          22.9097  -28.6916  -41.8434 O.2       6 UNK        -0.5089 
     44 N          23.9139  -28.7704  -39.8059 N.am      7 UNK        -0.4243 
     45 CA         22.8738  -28.0775  -39.0480 C.3       7 UNK         0.0196 
     46 CB         23.4829  -27.4665  -37.7765 C.3       7 UNK        -0.2007 
     47 C          21.7554  -29.0687  -38.6943 C.2       7 UNK         0.5020 
     48 O          22.0546  -30.1808  -38.2539 O.2       7 UNK        -0.5147 
     49 N          20.4973  -28.6603  -38.9115 N.am      8 UNK        -0.4734 
     50 CA         19.2648  -29.4367  -38.6975 C.3       8 UNK         0.0238 
     51 CB         18.9858  -29.5851  -37.1870 C.3       8 UNK        -0.1912 
     52 C          19.2250  -30.7916  -39.4408 C.2       8 UNK         0.5038 
     53 O          18.5582  -31.7184  -38.9772 O.2       8 UNK        -0.5046 
     54 N          19.9521  -30.8873  -40.5636 N.am      9 UNK        -0.4200 
     55 CA         20.2022  -32.1161  -41.3316 C.3       9 UNK         0.0839 
     56 C          21.0461  -33.1863  -40.5629 C.2       9 UNK         0.5513 
     57 N          21.7497  -32.8370  -39.4910 N.am      9 UNK        -0.7519 
     58 O          21.0914  -34.3513  -40.9480 O.2       9 UNK        -0.4960 
     59 C59        18.8983  -32.6780  -41.9722 C.3       10 UNK        -0.0876 
     60 S60        19.2042  -33.6067  -43.5146 S.3       10 UNK        -0.2414 
     61 C61        17.9087  -32.9627  -44.6238 C.3       10 UNK         0.0169 
     62 H62        14.4609  -27.7103  -37.8148 H         1 UNK         0.0903 
     63 H63        15.1281  -29.2020  -38.4841 H         1 UNK         0.0903 
     64 H64        16.0928  -28.2221  -37.3793 H         1 UNK         0.0903 
     65 H65        15.5682  -28.8867  -40.6653 H         1 UNK         0.3096 
     66 H66        16.2188  -26.2858  -41.7790 H         1 UNK         0.1121 
     67 H67        16.1845  -29.0222  -43.1400 H         1 UNK         0.0849 
     68 H68        14.7853  -27.9996  -42.9633 H         1 UNK         0.0849 
     69 H69        15.2373  -28.8667  -45.7574 H         1 UNK         0.0865 
     70 H70        16.2118  -27.8845  -46.8156 H         1 UNK         0.0865 
     71 H71        16.1605  -30.8930  -44.8311 H         1 UNK         0.1346 
     72 H72        20.2448  -31.9234  -45.6291 H         1 UNK         0.1412 
     73 H73        18.7747  -28.0292  -46.6574 H         1 UNK         0.1426 
     74 H74        20.9304  -28.9132  -47.6107 H         1 UNK         0.0716 
     75 H75        21.5123  -30.4853  -47.1366 H         1 UNK         0.0716 
     76 H76        22.1035  -26.7611  -46.7140 H         1 UNK         0.0695 
     77 H77        20.6650  -26.9387  -45.7604 H         1 UNK         0.0695 
     78 H78        22.1130  -25.1122  -44.8959 H         1 UNK         0.0983 
     79 H79        22.2594  -27.0425  -42.7263 H         1 UNK         0.3095 
     80 H80        20.6170  -27.1883  -41.2018 H         1 UNK         0.0454 
     81 H81        21.7108  -25.0500  -40.5011 H         1 UNK         0.0851 
     82 H82        20.1996  -24.1829  -40.7124 H         1 UNK         0.0851 
     83 H83        20.3455  -25.4046  -39.4524 H         1 UNK         0.0851 
     84 H84        18.1886  -25.5131  -41.1951 H         1 UNK         0.2976 
     85 H85        24.0738  -25.9868  -46.5013 H         1 UNK         0.3116 
     86 H86        26.4571  -25.5262  -44.9820 H         1 UNK         0.0646 
     87 H87        27.5775  -25.8202  -47.1930 H         1 UNK         0.0847 
     88 H88        26.1907  -24.7543  -47.3287 H         1 UNK         0.0847 
     89 H89        26.0825  -26.4233  -47.8922 H         1 UNK         0.0847 
     90 H90        24.8036  -28.4818  -45.9236 H         1 UNK         0.3040 
     91 H91        27.1108  -30.2246  -45.6540 H         1 UNK         0.1015 
     92 H92        25.1740  -30.7915  -47.1401 H         1 UNK         0.0786 
     93 H93        24.1310  -30.9380  -45.7249 H         1 UNK         0.0786 
     94 H94        25.4783  -32.0392  -45.9428 H         1 UNK         0.0786 
     95 H95        24.3850  -29.2415  -43.5067 H         1 UNK         0.3172 
     96 H96        25.8217  -29.8418  -41.1268 H         1 UNK         0.0595 
     97 H97        25.2209  -32.2211  -41.6298 H         1 UNK         0.0839 
     98 H98        23.5389  -31.7660  -41.8892 H         1 UNK         0.0839 
     99 H99        24.2523  -31.6547  -40.2863 H         1 UNK         0.0839 
    100 H100       24.6610  -29.1800  -39.2638 H         1 UNK         0.2998 
    101 H101       22.4735  -27.2685  -39.6599 H         1 UNK         0.0822 
    102 H102       24.2769  -26.7593  -38.0174 H         1 UNK         0.0787 
    103 H103       22.7283  -26.9242  -37.2052 H         1 UNK         0.0787 
    104 H104       23.9014  -28.2309  -37.1200 H         1 UNK         0.0787 
    105 H105       20.3556  -27.7320  -39.2827 H         1 UNK         0.3055 
    106 H106       18.4540  -28.8480  -39.1238 H         1 UNK         0.1106 
    107 H107       19.7367  -30.2070  -36.6985 H         1 UNK         0.0828 
    108 H108       18.9759  -28.6162  -36.6880 H         1 UNK         0.0828 
    109 H109       18.0145  -30.0480  -37.0080 H         1 UNK         0.0828 
    110 H110       20.4333  -30.0616  -40.8909 H         1 UNK         0.2931 
    111 H111       20.8481  -31.7841  -42.1455 H         1 UNK         0.0412 
    112 H112       22.2891  -33.5401  -39.0125 H         1 UNK         0.3472 
    113 H113       21.7411  -31.8849  -39.1376 H         1 UNK         0.3472 
    114 H114       18.2224  -31.8534  -42.2055 H         1 UNK         0.0970 
    115 H115       18.3591  -33.3146  -41.2686 H         1 UNK         0.0970 
    116 H116       16.9499  -33.0081  -44.1048 H         1 UNK         0.0612 
    117 H117       17.8261  -33.6336  -45.4796 H         1 UNK         0.0612 
@<TRIPOS>BOND
     1    1    2 1    
     2    1   62 1    
     3    1   63 1    
     4    1   64 1    
     5    2    3 2    
     6    2    4 am   BACKBONE|DICT|INTERRES
     7    4    5 1    
     8    4   65 1    
     9    5    6 1    
    10    5   25 1    
    11    5   66 1    
    12    6    7 1    
    13    6   67 1    
    14    6   68 1    
    15    7    8 1    
    16    8    9 1    
    17    8   69 1    
    18    8   70 1    
    19    9   10 ar   
    20    9   14 ar   
    21   10   11 ar   
    22   10   71 1    
    23   11   12 ar   
    24   11   61 1    
    25   12   13 ar   
    26   12   72 1    
    27   13   14 ar   
    28   13   15 1    
    29   14   73 1    
    30   15   16 1    
    31   15   74 1    
    32   15   75 1    
    33   16   17 1    
    34   17   18 1    
    35   17   76 1    
    36   17   77 1    
    37   18   19 1    
    38   18   27 1    
    39   18   78 1    
    40   19   20 am   BACKBONE|DICT|INTERRES
    41   19   79 1    
    42   20   21 2    
    43   20   22 1    
    44   22   23 1    
    45   22   24 1    
    46   22   80 1    
    47   23   81 1    
    48   23   82 1    
    49   23   83 1    
    50   24   25 am   BACKBONE|DICT|INTERRES
    51   24   84 1    
    52   25   26 2    
    53   27   28 2    
    54   27   29 am   BACKBONE|DICT|INTERRES
    55   29   30 1    
    56   29   85 1    
    57   30   31 1    
    58   30   32 1    
    59   30   86 1    
    60   31   87 1    
    61   31   88 1    
    62   31   89 1    
    63   32   33 2    
    64   32   34 am   BACKBONE|DICT|INTERRES
    65   34   35 1    
    66   34   90 1    
    67   35   36 1    
    68   35   37 1    
    69   35   91 1    
    70   36   92 1    
    71   36   93 1    
    72   36   94 1    
    73   37   38 2    
    74   37   39 am   BACKBONE|DICT|INTERRES
    75   39   40 1    
    76   39   95 1    
    77   40   41 1    
    78   40   42 1    
    79   40   96 1    
    80   41   97 1    
    81   41   98 1    
    82   41   99 1    
    83   42   43 2    
    84   42   44 am   BACKBONE|DICT|INTERRES
    85   44   45 1    
    86   44  100 1    
    87   45   46 1    
    88   45   47 1    
    89   45  101 1    
    90   46  102 1    
    91   46  103 1    
    92   46  104 1    
    93   47   48 2    
    94   47   49 am   BACKBONE|DICT|INTERRES
    95   49   50 1    
    96   49  105 1    
    97   50   51 1    
    98   50   52 1    
    99   50  106 1    
   100   51  107 1    
   101   51  108 1    
   102   51  109 1    
   103   52   53 2    
   104   52   54 am   BACKBONE|DICT|INTERRES
   105   54   55 1    
   106   54  110 1    
   107   55   56 1    
   108   55   59 1    
   109   55  111 1    
   110   56   57 am   BACKBONE|DICT|INTERRES
   111   56   58 2    
   112   57  112 1    
   113   57  113 1    
   114   59   60 1    
   115   59  114 1    
   116   59  115 1    
   117   60   61 1    
   118   61  116 1    
   119   61  117 1    
@<TRIPOS>SUBSTRUCTURE
     1 UNK         1 GROUP             0       ****    0 ROOT    
