@<TRIPOS>MOLECULE
3R8
117   119    1
SMALL
USER_CHARGES


@<TRIPOS>ATOM
      1 CA         14.7919  -24.0573  -40.3369 C.3       0 UNK        -0.2013 
      2 C          15.2428  -24.2959  -41.7701 C.2       0 UNK         0.4866 
      3 O          15.0528  -23.4300  -42.6250 O.2       0 UNK        -0.5176 
      4 N          15.8298  -25.4674  -42.0419 N.am      1 UNK        -0.4884 
      5 CA         16.4002  -25.8470  -43.3372 C.3       1 UNK         0.0853 
      6 C6         16.6259  -27.3798  -43.4557 C.3       10 UNK        -0.0849 
      7 S7         17.3386  -28.1808  -41.9702 S.3       10 UNK        -0.2776 
      8 C8         17.3625  -29.9366  -42.4609 C.3       10 UNK         0.0316 
      9 C9         18.5208  -30.2316  -43.4007 C.ar      10 UNK        -0.0863 
     10 C10        19.7608  -30.6269  -42.8912 C.ar      10 UNK        -0.1009 
     11 C11        20.8446  -30.8414  -43.7481 C.ar      10 UNK        -0.0712 
     12 C12        20.6809  -30.6551  -45.1239 C.ar      10 UNK        -0.0894 
     13 C13        19.4464  -30.2576  -45.6425 C.ar      10 UNK        -0.0745 
     14 C14        18.3632  -30.0773  -44.7795 C.ar      10 UNK        -0.0972 
     15 C15        19.2771  -29.9880  -47.1277 C.3       10 UNK         0.0209 
     16 S16        19.0326  -28.2109  -47.4494 S.3       10 UNK        -0.2568 
     17 C17        20.7423  -27.5593  -47.4994 C.3       10 UNK        -0.0983 
     18 CA         21.1331  -26.5861  -46.3466 C.3       3 UNK         0.0876 
     19 N          20.0396  -25.6722  -45.9970 N.am      3 UNK        -0.4424 
     20 C          20.1720  -24.4044  -45.5902 C.2       2 UNK         0.4918 
     21 O          21.2572  -23.8471  -45.4297 O.2       2 UNK        -0.4875 
     22 CA         18.8740  -23.6292  -45.3055 C.3       2 UNK         0.0481 
     23 CB         18.4401  -22.8433  -46.5530 C.3       2 UNK        -0.1831 
     24 N          17.7660  -24.4828  -44.8601 N.am      2 UNK        -0.4498 
     25 C          17.6791  -25.0352  -43.6408 C.2       1 UNK         0.5027 
     26 O          18.5532  -24.9194  -42.7794 O.2       1 UNK        -0.4969 
     27 C          21.7713  -27.2884  -45.1245 C.2       3 UNK         0.5005 
     28 O          22.5901  -28.1891  -45.3171 O.2       3 UNK        -0.5279 
     29 N          21.4395  -26.8498  -43.8991 N.am      4 UNK        -0.4463 
     30 CA         21.9033  -27.3516  -42.5965 C.3       4 UNK         0.0283 
     31 CB         21.0286  -26.7183  -41.4993 C.3       4 UNK        -0.1875 
     32 C          23.4125  -27.1692  -42.3047 C.2       4 UNK         0.4949 
     33 O          23.7843  -26.7514  -41.2067 O.2       4 UNK        -0.5039 
     34 N          24.2701  -27.4980  -43.2774 N.am      5 UNK        -0.4663 
     35 CA         25.7322  -27.4208  -43.1934 C.3       5 UNK         0.0242 
     36 CB         26.3245  -27.5779  -44.6028 C.3       5 UNK        -0.1982 
     37 C          26.3406  -28.4574  -42.2332 C.2       5 UNK         0.5017 
     38 O          27.3895  -28.1929  -41.6455 O.2       5 UNK        -0.5012 
     39 N          25.6586  -29.5988  -42.0776 N.am      6 UNK        -0.4439 
     40 CA         25.9811  -30.6676  -41.1311 C.3       6 UNK         0.0297 
     41 CB         26.2153  -31.9801  -41.9011 C.3       6 UNK        -0.2006 
     42 C          24.8695  -30.7850  -40.0740 C.2       6 UNK         0.4892 
     43 O          24.4643  -31.8961  -39.7245 O.2       6 UNK        -0.5089 
     44 N          24.3881  -29.6268  -39.5951 N.am      7 UNK        -0.4243 
     45 CA         23.3300  -29.4500  -38.5966 C.3       7 UNK         0.0196 
     46 CB         23.8270  -29.8830  -37.1977 C.3       7 UNK        -0.2007 
     47 C          22.0210  -30.1259  -39.0417 C.2       7 UNK         0.5020 
     48 O          21.4266  -29.6862  -40.0228 O.2       7 UNK        -0.5147 
     49 N          21.5995  -31.1806  -38.3351 N.am      8 UNK        -0.4734 
     50 CA         20.3965  -31.9557  -38.6436 C.3       8 UNK         0.0238 
     51 CB         19.9361  -32.6793  -37.3663 C.3       8 UNK        -0.1912 
     52 C          20.5751  -32.9609  -39.7977 C.2       8 UNK         0.5038 
     53 O          19.5695  -33.5109  -40.2478 O.2       8 UNK        -0.5046 
     54 N          21.8201  -33.2119  -40.2363 N.am      9 UNK        -0.4200 
     55 CA         22.1918  -34.2322  -41.2368 C.3       9 UNK         0.0839 
     56 C          21.9524  -35.7050  -40.7731 C.2       9 UNK         0.5513 
     57 N          21.7841  -35.9744  -39.4835 N.am      9 UNK        -0.7519 
     58 O          21.9606  -36.6290  -41.5826 O.2       9 UNK        -0.4960 
     59 C59        21.6229  -33.9225  -42.6599 C.3       10 UNK        -0.0876 
     60 S60        22.7440  -32.8749  -43.6428 S.3       10 UNK        -0.2414 
     61 C61        22.2115  -31.1999  -43.1847 C.3       10 UNK         0.0169 
     62 H62        13.7171  -23.8800  -40.3059 H         1 UNK         0.0903 
     63 H63        15.0140  -24.9081  -39.6927 H         1 UNK         0.0903 
     64 H64        15.2942  -23.1814  -39.9268 H         1 UNK         0.0903 
     65 H65        15.9958  -26.1337  -41.2998 H         1 UNK         0.3096 
     66 H66        15.6615  -25.5767  -44.0956 H         1 UNK         0.1121 
     67 H67        17.2508  -27.6028  -44.3213 H         1 UNK         0.0849 
     68 H68        15.6673  -27.8617  -43.6540 H         1 UNK         0.0849 
     69 H69        16.4124  -30.2089  -42.9231 H         1 UNK         0.0865 
     70 H70        17.4506  -30.5515  -41.5637 H         1 UNK         0.0865 
     71 H71        19.8892  -30.7376  -41.8238 H         1 UNK         0.1346 
     72 H72        21.5281  -30.7854  -45.7833 H         1 UNK         0.1412 
     73 H73        17.4075  -29.7722  -45.1826 H         1 UNK         0.1426 
     74 H74        18.4037  -30.5328  -47.4887 H         1 UNK         0.0716 
     75 H75        20.1274  -30.3608  -47.7007 H         1 UNK         0.0716 
     76 H76        20.8231  -27.0160  -48.4420 H         1 UNK         0.0695 
     77 H77        21.4530  -28.3816  -47.5968 H         1 UNK         0.0695 
     78 H78        21.9484  -25.9750  -46.7409 H         1 UNK         0.0983 
     79 H79        19.1112  -26.0551  -46.1038 H         1 UNK         0.3095 
     80 H80        19.0883  -22.9088  -44.5130 H         1 UNK         0.0454 
     81 H81        18.1948  -23.5045  -47.3850 H         1 UNK         0.0851 
     82 H82        19.2358  -22.1776  -46.8908 H         1 UNK         0.0851 
     83 H83        17.5681  -22.2220  -46.3480 H         1 UNK         0.0851 
     84 H84        17.0045  -24.6089  -45.5122 H         1 UNK         0.2976 
     85 H85        20.7809  -26.0852  -43.8534 H         1 UNK         0.3116 
     86 H86        21.7186  -28.4250  -42.5764 H         1 UNK         0.0646 
     87 H87        19.9783  -26.9665  -41.6425 H         1 UNK         0.0847 
     88 H88        21.1194  -25.6317  -41.4870 H         1 UNK         0.0847 
     89 H89        21.3035  -27.0804  -40.5084 H         1 UNK         0.0847 
     90 H90        23.8643  -27.8307  -44.1526 H         1 UNK         0.3040 
     91 H91        25.9970  -26.4307  -42.8155 H         1 UNK         0.1015 
     92 H92        27.4129  -27.5054  -44.5801 H         1 UNK         0.0786 
     93 H93        25.9627  -26.7983  -45.2736 H         1 UNK         0.0786 
     94 H94        26.0696  -28.5430  -45.0427 H         1 UNK         0.0786 
     95 H95        24.7982  -29.7006  -42.5959 H         1 UNK         0.3172 
     96 H96        26.8987  -30.4327  -40.5882 H         1 UNK         0.0595 
     97 H97        25.3191  -32.3048  -42.4276 H         1 UNK         0.0839 
     98 H98        26.5051  -32.7852  -41.2246 H         1 UNK         0.0839 
     99 H99        27.0143  -31.8719  -42.6346 H         1 UNK         0.0839 
    100 H100       24.7492  -28.7695  -39.9924 H         1 UNK         0.2998 
    101 H101       23.1183  -28.3801  -38.5569 H         1 UNK         0.0822 
    102 H102       24.7003  -29.3022  -36.9004 H         1 UNK         0.0787 
    103 H103       23.0625  -29.7158  -36.4377 H         1 UNK         0.0787 
    104 H104       24.1099  -30.9357  -37.1627 H         1 UNK         0.0787 
    105 H105       22.1616  -31.4921  -37.5558 H         1 UNK         0.3055 
    106 H106       19.6059  -31.2649  -38.9465 H         1 UNK         0.1106 
    107 H107       19.0185  -33.2423  -37.5436 H         1 UNK         0.0828 
    108 H108       19.7270  -31.9723  -36.5633 H         1 UNK         0.0828 
    109 H109       20.6861  -33.3847  -37.0069 H         1 UNK         0.0828 
    110 H110       22.5994  -32.7080  -39.8248 H         1 UNK         0.2931 
    111 H111       23.2793  -34.1733  -41.2955 H         1 UNK         0.0412 
    112 H112       21.8005  -35.2352  -38.8001 H         1 UNK         0.3472 
    113 H113       21.6453  -36.9298  -39.1929 H         1 UNK         0.3472 
    114 H114       21.4881  -34.8308  -43.2483 H         1 UNK         0.0970 
    115 H115       20.6319  -33.4710  -42.6178 H         1 UNK         0.0970 
    116 H116       22.9437  -30.4880  -43.5670 H         1 UNK         0.0612 
    117 H117       22.2298  -31.1035  -42.0996 H         1 UNK         0.0612 
@<TRIPOS>BOND
     1    1    2 1    
     2    1   62 1    
     3    1   63 1    
     4    1   64 1    
     5    2    3 2    
     6    2    4 am   BACKBONE|DICT|INTERRES
     7    4    5 1    
     8    4   65 1    
     9    5    6 1    
    10    5   25 1    
    11    5   66 1    
    12    6    7 1    
    13    6   67 1    
    14    6   68 1    
    15    7    8 1    
    16    8    9 1    
    17    8   69 1    
    18    8   70 1    
    19    9   10 ar   
    20    9   14 ar   
    21   10   11 ar   
    22   10   71 1    
    23   11   12 ar   
    24   11   61 1    
    25   12   13 ar   
    26   12   72 1    
    27   13   14 ar   
    28   13   15 1    
    29   14   73 1    
    30   15   16 1    
    31   15   74 1    
    32   15   75 1    
    33   16   17 1    
    34   17   18 1    
    35   17   76 1    
    36   17   77 1    
    37   18   19 1    
    38   18   27 1    
    39   18   78 1    
    40   19   20 am   BACKBONE|DICT|INTERRES
    41   19   79 1    
    42   20   21 2    
    43   20   22 1    
    44   22   23 1    
    45   22   24 1    
    46   22   80 1    
    47   23   81 1    
    48   23   82 1    
    49   23   83 1    
    50   24   25 am   BACKBONE|DICT|INTERRES
    51   24   84 1    
    52   25   26 2    
    53   27   28 2    
    54   27   29 am   BACKBONE|DICT|INTERRES
    55   29   30 1    
    56   29   85 1    
    57   30   31 1    
    58   30   32 1    
    59   30   86 1    
    60   31   87 1    
    61   31   88 1    
    62   31   89 1    
    63   32   33 2    
    64   32   34 am   BACKBONE|DICT|INTERRES
    65   34   35 1    
    66   34   90 1    
    67   35   36 1    
    68   35   37 1    
    69   35   91 1    
    70   36   92 1    
    71   36   93 1    
    72   36   94 1    
    73   37   38 2    
    74   37   39 am   BACKBONE|DICT|INTERRES
    75   39   40 1    
    76   39   95 1    
    77   40   41 1    
    78   40   42 1    
    79   40   96 1    
    80   41   97 1    
    81   41   98 1    
    82   41   99 1    
    83   42   43 2    
    84   42   44 am   BACKBONE|DICT|INTERRES
    85   44   45 1    
    86   44  100 1    
    87   45   46 1    
    88   45   47 1    
    89   45  101 1    
    90   46  102 1    
    91   46  103 1    
    92   46  104 1    
    93   47   48 2    
    94   47   49 am   BACKBONE|DICT|INTERRES
    95   49   50 1    
    96   49  105 1    
    97   50   51 1    
    98   50   52 1    
    99   50  106 1    
   100   51  107 1    
   101   51  108 1    
   102   51  109 1    
   103   52   53 2    
   104   52   54 am   BACKBONE|DICT|INTERRES
   105   54   55 1    
   106   54  110 1    
   107   55   56 1    
   108   55   59 1    
   109   55  111 1    
   110   56   57 am   BACKBONE|DICT|INTERRES
   111   56   58 2    
   112   57  112 1    
   113   57  113 1    
   114   59   60 1    
   115   59  114 1    
   116   59  115 1    
   117   60   61 1    
   118   61  116 1    
   119   61  117 1    
@<TRIPOS>SUBSTRUCTURE
     1 UNK         1 GROUP             0       ****    0 ROOT    
