@<TRIPOS>MOLECULE
3R8
117   119    1
SMALL
USER_CHARGES


@<TRIPOS>ATOM
      1 CA         15.6320  -23.2218  -44.0750 C.3       0 UNK        -0.2013 
      2 C          16.2606  -23.8636  -42.8419 C.2       0 UNK         0.4866 
      3 O          15.8559  -23.5450  -41.7253 O.2       0 UNK        -0.5176 
      4 N          17.2476  -24.7568  -42.9769 N.am      1 UNK        -0.4884 
      5 CA         17.8968  -25.2036  -44.2110 C.3       1 UNK         0.0853 
      6 C6         17.5019  -26.6580  -44.5767 C.3       10 UNK        -0.0849 
      7 S7         15.8487  -26.7818  -45.3368 S.3       10 UNK        -0.2776 
      8 C8         15.2177  -28.3615  -44.6627 C.3       10 UNK         0.0316 
      9 C9         16.2036  -29.5255  -44.7638 C.ar      10 UNK        -0.0863 
     10 C10        16.3793  -30.3752  -43.6651 C.ar      10 UNK        -0.1009 
     11 C11        17.3163  -31.4114  -43.7101 C.ar      10 UNK        -0.0712 
     12 C12        18.0668  -31.6114  -44.8693 C.ar      10 UNK        -0.0894 
     13 C13        17.9338  -30.7441  -45.9565 C.ar      10 UNK        -0.0745 
     14 C14        16.9720  -29.7309  -45.9175 C.ar      10 UNK        -0.0972 
     15 C15        18.9336  -30.8198  -47.1021 C.3       10 UNK         0.0209 
     16 S16        20.2926  -29.6050  -46.8988 S.3       10 UNK        -0.2568 
     17 C17        20.6965  -29.7577  -45.1202 C.3       10 UNK        -0.0983 
     18 CA         21.7600  -28.7692  -44.5859 C.3       3 UNK         0.0876 
     19 N          21.4888  -27.3919  -45.0047 N.am      3 UNK        -0.4424 
     20 C          22.2242  -26.3148  -44.6962 C.2       2 UNK         0.4918 
     21 O          23.2850  -26.3613  -44.0756 O.2       2 UNK        -0.4875 
     22 CA         21.6395  -24.9475  -45.0956 C.3       2 UNK         0.0481 
     23 CB         22.1495  -24.5315  -46.4837 C.3       2 UNK        -0.1831 
     24 N          20.1708  -24.9199  -45.0790 N.am      2 UNK        -0.4498 
     25 C          19.4163  -25.1289  -43.9892 C.2       1 UNK         0.5027 
     26 O          19.8825  -25.3357  -42.8644 O.2       1 UNK        -0.4969 
     27 C          21.8182  -28.8934  -43.0480 C.2       3 UNK         0.5005 
     28 O          22.7370  -29.5153  -42.5172 O.2       3 UNK        -0.5279 
     29 N          20.8388  -28.2818  -42.3644 N.am      4 UNK        -0.4463 
     30 CA         20.7183  -28.2760  -40.9071 C.3       4 UNK         0.0283 
     31 CB         19.3021  -27.8391  -40.5010 C.3       4 UNK        -0.1875 
     32 C          21.7819  -27.3910  -40.2445 C.2       4 UNK         0.4949 
     33 O          22.3066  -27.7702  -39.1988 O.2       4 UNK        -0.5039 
     34 N          22.1262  -26.2637  -40.8853 N.am      5 UNK        -0.4663 
     35 CA         23.2315  -25.3879  -40.4779 C.3       5 UNK         0.0242 
     36 CB         23.2021  -24.0950  -41.3080 C.3       5 UNK        -0.1982 
     37 C          24.6044  -26.0796  -40.5815 C.2       5 UNK         0.5017 
     38 O          25.4498  -25.8835  -39.7084 O.2       5 UNK        -0.5012 
     39 N          24.7797  -26.9098  -41.6192 N.am      6 UNK        -0.4439 
     40 CA         25.9379  -27.7856  -41.8210 C.3       6 UNK         0.0297 
     41 CB         26.0090  -28.1736  -43.3079 C.3       6 UNK        -0.2006 
     42 C          25.9247  -29.0508  -40.9366 C.2       6 UNK         0.4892 
     43 O          26.9257  -29.7681  -40.9193 O.2       6 UNK        -0.5089 
     44 N          24.8064  -29.3102  -40.2404 N.am      7 UNK        -0.4243 
     45 CA         24.5153  -30.4767  -39.3974 C.3       7 UNK         0.0196 
     46 CB         25.4539  -30.5266  -38.1731 C.3       7 UNK        -0.2007 
     47 C          24.4727  -31.8043  -40.1813 C.2       7 UNK         0.5020 
     48 O          24.8013  -32.8562  -39.6302 O.2       7 UNK        -0.5147 
     49 N          24.0422  -31.7463  -41.4489 N.am      8 UNK        -0.4734 
     50 CA         23.9175  -32.9015  -42.3433 C.3       8 UNK         0.0238 
     51 CB         23.8926  -32.4087  -43.7996 C.3       8 UNK        -0.1912 
     52 C          22.6836  -33.7727  -42.0459 C.2       8 UNK         0.5038 
     53 O          22.6393  -34.9175  -42.4982 O.2       8 UNK        -0.5046 
     54 N          21.7122  -33.2266  -41.3017 N.am      9 UNK        -0.4200 
     55 CA         20.4805  -33.9126  -40.8755 C.3       9 UNK         0.0839 
     56 C          20.6944  -35.0338  -39.8160 C.2       9 UNK         0.5513 
     57 N          21.8566  -35.1431  -39.1821 N.am      9 UNK        -0.7519 
     58 O          19.7849  -35.8207  -39.5668 O.2       9 UNK        -0.4960 
     59 C59        19.3909  -32.9148  -40.3970 C.3       10 UNK        -0.0876 
     60 S60        19.0490  -31.5945  -41.6059 S.3       10 UNK        -0.2414 
     61 C61        17.5996  -32.2587  -42.4817 C.3       10 UNK         0.0169 
     62 H62        16.3464  -22.5697  -44.5763 H         1 UNK         0.0903 
     63 H63        15.2848  -23.9748  -44.7804 H         1 UNK         0.0903 
     64 H64        14.7710  -22.6162  -43.7928 H         1 UNK         0.0903 
     65 H65        17.7009  -25.1028  -42.1414 H         1 UNK         0.3096 
     66 H66        17.6597  -24.5395  -45.0436 H         1 UNK         0.1121 
     67 H67        17.5513  -27.2981  -43.6933 H         1 UNK         0.0849 
     68 H68        18.1994  -27.0889  -45.2982 H         1 UNK         0.0849 
     69 H69        14.3021  -28.6296  -45.1912 H         1 UNK         0.0865 
     70 H70        14.9335  -28.1932  -43.6227 H         1 UNK         0.0865 
     71 H71        15.8142  -30.2092  -42.7580 H         1 UNK         0.1346 
     72 H72        18.8267  -32.3809  -44.8843 H         1 UNK         0.1412 
     73 H73        16.8763  -29.0563  -46.7572 H         1 UNK         0.1426 
     74 H74        18.4277  -30.6379  -48.0514 H         1 UNK         0.0716 
     75 H75        19.3602  -31.8218  -47.1684 H         1 UNK         0.0716 
     76 H76        20.9968  -30.7881  -44.9223 H         1 UNK         0.0695 
     77 H77        19.7729  -29.5926  -44.5647 H         1 UNK         0.0695 
     78 H78        22.7367  -29.0509  -44.9846 H         1 UNK         0.0983 
     79 H79        20.6611  -27.2624  -45.5662 H         1 UNK         0.3095 
     80 H80        21.9919  -24.2124  -44.3696 H         1 UNK         0.0454 
     81 H81        21.8107  -25.2151  -47.2631 H         1 UNK         0.0851 
     82 H82        23.2402  -24.5227  -46.5107 H         1 UNK         0.0851 
     83 H83        21.8142  -23.5281  -46.7463 H         1 UNK         0.0851 
     84 H84        19.7163  -24.7606  -45.9675 H         1 UNK         0.2976 
     85 H85        20.1553  -27.7423  -42.8745 H         1 UNK         0.3116 
     86 H86        20.8704  -29.2979  -40.5529 H         1 UNK         0.0646 
     87 H87        18.5445  -28.4838  -40.9473 H         1 UNK         0.0847 
     88 H88        19.0894  -26.8125  -40.7988 H         1 UNK         0.0847 
     89 H89        19.1762  -27.8950  -39.4190 H         1 UNK         0.0847 
     90 H90        21.6080  -26.0035  -41.7169 H         1 UNK         0.3040 
     91 H91        23.0751  -25.1238  -39.4295 H         1 UNK         0.1015 
     92 H92        23.9611  -23.3936  -40.9591 H         1 UNK         0.0786 
     93 H93        22.2368  -23.5940  -41.2312 H         1 UNK         0.0786 
     94 H94        23.3987  -24.2852  -42.3628 H         1 UNK         0.0786 
     95 H95        24.0575  -26.9441  -42.3330 H         1 UNK         0.3172 
     96 H96        26.8412  -27.2247  -41.5726 H         1 UNK         0.0595 
     97 H97        25.1358  -28.7495  -43.6161 H         1 UNK         0.0839 
     98 H98        26.8899  -28.7833  -43.5132 H         1 UNK         0.0839 
     99 H99        26.0699  -27.2920  -43.9462 H         1 UNK         0.0839 
    100 H100       24.0410  -28.6552  -40.3368 H         1 UNK         0.2998 
    101 H101       23.5022  -30.3243  -39.0227 H         1 UNK         0.0822 
    102 H102       25.4519  -29.5791  -37.6342 H         1 UNK         0.0787 
    103 H103       25.1388  -31.2984  -37.4699 H         1 UNK         0.0787 
    104 H104       26.4824  -30.7493  -38.4587 H         1 UNK         0.0787 
    105 H105       23.7282  -30.8489  -41.8203 H         1 UNK         0.3055 
    106 H106       24.7985  -33.5340  -42.2123 H         1 UNK         0.1106 
    107 H107       23.8767  -33.2483  -44.4958 H         1 UNK         0.0828 
    108 H108       24.7739  -31.8107  -44.0323 H         1 UNK         0.0828 
    109 H109       23.0114  -31.8012  -44.0037 H         1 UNK         0.0828 
    110 H110       21.8246  -32.2727  -40.9943 H         1 UNK         0.2931 
    111 H111       20.0842  -34.4150  -41.7602 H         1 UNK         0.0412 
    112 H112       22.6138  -34.5074  -39.3823 H         1 UNK         0.3472 
    113 H113       21.9801  -35.8757  -38.5007 H         1 UNK         0.3472 
    114 H114       18.4594  -33.4381  -40.1721 H         1 UNK         0.0970 
    115 H115       19.6994  -32.4393  -39.4641 H         1 UNK         0.0970 
    116 H116       16.7390  -32.2722  -41.8113 H         1 UNK         0.0612 
    117 H117       17.7892  -33.2918  -42.7774 H         1 UNK         0.0612 
@<TRIPOS>BOND
     1    1    2 1    
     2    1   62 1    
     3    1   63 1    
     4    1   64 1    
     5    2    3 2    
     6    2    4 am   BACKBONE|DICT|INTERRES
     7    4    5 1    
     8    4   65 1    
     9    5    6 1    
    10    5   25 1    
    11    5   66 1    
    12    6    7 1    
    13    6   67 1    
    14    6   68 1    
    15    7    8 1    
    16    8    9 1    
    17    8   69 1    
    18    8   70 1    
    19    9   10 ar   
    20    9   14 ar   
    21   10   11 ar   
    22   10   71 1    
    23   11   12 ar   
    24   11   61 1    
    25   12   13 ar   
    26   12   72 1    
    27   13   14 ar   
    28   13   15 1    
    29   14   73 1    
    30   15   16 1    
    31   15   74 1    
    32   15   75 1    
    33   16   17 1    
    34   17   18 1    
    35   17   76 1    
    36   17   77 1    
    37   18   19 1    
    38   18   27 1    
    39   18   78 1    
    40   19   20 am   BACKBONE|DICT|INTERRES
    41   19   79 1    
    42   20   21 2    
    43   20   22 1    
    44   22   23 1    
    45   22   24 1    
    46   22   80 1    
    47   23   81 1    
    48   23   82 1    
    49   23   83 1    
    50   24   25 am   BACKBONE|DICT|INTERRES
    51   24   84 1    
    52   25   26 2    
    53   27   28 2    
    54   27   29 am   BACKBONE|DICT|INTERRES
    55   29   30 1    
    56   29   85 1    
    57   30   31 1    
    58   30   32 1    
    59   30   86 1    
    60   31   87 1    
    61   31   88 1    
    62   31   89 1    
    63   32   33 2    
    64   32   34 am   BACKBONE|DICT|INTERRES
    65   34   35 1    
    66   34   90 1    
    67   35   36 1    
    68   35   37 1    
    69   35   91 1    
    70   36   92 1    
    71   36   93 1    
    72   36   94 1    
    73   37   38 2    
    74   37   39 am   BACKBONE|DICT|INTERRES
    75   39   40 1    
    76   39   95 1    
    77   40   41 1    
    78   40   42 1    
    79   40   96 1    
    80   41   97 1    
    81   41   98 1    
    82   41   99 1    
    83   42   43 2    
    84   42   44 am   BACKBONE|DICT|INTERRES
    85   44   45 1    
    86   44  100 1    
    87   45   46 1    
    88   45   47 1    
    89   45  101 1    
    90   46  102 1    
    91   46  103 1    
    92   46  104 1    
    93   47   48 2    
    94   47   49 am   BACKBONE|DICT|INTERRES
    95   49   50 1    
    96   49  105 1    
    97   50   51 1    
    98   50   52 1    
    99   50  106 1    
   100   51  107 1    
   101   51  108 1    
   102   51  109 1    
   103   52   53 2    
   104   52   54 am   BACKBONE|DICT|INTERRES
   105   54   55 1    
   106   54  110 1    
   107   55   56 1    
   108   55   59 1    
   109   55  111 1    
   110   56   57 am   BACKBONE|DICT|INTERRES
   111   56   58 2    
   112   57  112 1    
   113   57  113 1    
   114   59   60 1    
   115   59  114 1    
   116   59  115 1    
   117   60   61 1    
   118   61  116 1    
   119   61  117 1    
@<TRIPOS>SUBSTRUCTURE
     1 UNK         1 GROUP             0       ****    0 ROOT    
