@<TRIPOS>MOLECULE
3R8
117   119    1
SMALL
USER_CHARGES


@<TRIPOS>ATOM
      1 CA         18.6351  -24.6643  -38.9726 C.3       0 UNK        -0.2013 
      2 C          18.2570  -24.8205  -40.4380 C.2       0 UNK         0.4866 
      3 O          17.5014  -24.0050  -40.9684 O.2       0 UNK        -0.5176 
      4 N          18.7715  -25.8664  -41.0919 N.am      1 UNK        -0.4884 
      5 CA         18.5847  -26.1474  -42.5176 C.3       1 UNK         0.0853 
      6 C6         18.8857  -27.6358  -42.8365 C.3       10 UNK        -0.0849 
      7 S7         17.7662  -28.7813  -41.9596 S.3       10 UNK        -0.2776 
      8 C8         16.6679  -29.3528  -43.2965 C.3       10 UNK         0.0316 
      9 C9         17.3024  -30.4525  -44.1397 C.ar      10 UNK        -0.0863 
     10 C10        17.1886  -31.7907  -43.7470 C.ar      10 UNK        -0.1009 
     11 C11        17.7106  -32.8107  -44.5476 C.ar      10 UNK        -0.0712 
     12 C12        18.3885  -32.4802  -45.7247 C.ar      10 UNK        -0.0894 
     13 C13        18.5245  -31.1482  -46.1280 C.ar      10 UNK        -0.0745 
     14 C14        17.9572  -30.1408  -45.3362 C.ar      10 UNK        -0.0972 
     15 C15        19.2394  -30.8546  -47.4500 C.3       10 UNK         0.0209 
     16 S16        19.9569  -29.1822  -47.6127 S.3       10 UNK        -0.2568 
     17 C17        21.2512  -29.2265  -46.3299 C.3       10 UNK        -0.0983 
     18 CA         21.9765  -27.8671  -46.1593 C.3       3 UNK         0.0876 
     19 N          21.0249  -26.7956  -45.8703 N.am      3 UNK        -0.4424 
     20 C          21.2269  -25.4858  -46.0545 C.2       2 UNK         0.4918 
     21 O          22.2656  -25.0060  -46.5093 O.2       2 UNK        -0.4875 
     22 CA         20.0515  -24.5547  -45.6905 C.3       2 UNK         0.0481 
     23 CB         19.2339  -24.2124  -46.9464 C.3       2 UNK        -0.1831 
     24 N          19.1643  -25.1469  -44.6812 N.am      2 UNK        -0.4498 
     25 C          19.4767  -25.2283  -43.3801 C.2       1 UNK         0.5027 
     26 O          20.4497  -24.6553  -42.8848 O.2       1 UNK        -0.4969 
     27 C          23.0361  -27.9815  -45.0456 C.2       3 UNK         0.5005 
     28 O          22.7508  -27.6606  -43.8875 O.2       3 UNK        -0.5279 
     29 N          24.2125  -28.5140  -45.4129 N.am      4 UNK        -0.4463 
     30 CA         25.3363  -28.8715  -44.5370 C.3       4 UNK         0.0283 
     31 CB         24.9715  -30.1241  -43.7036 C.3       4 UNK        -0.1875 
     32 C          25.8302  -27.6796  -43.6898 C.2       4 UNK         0.4949 
     33 O          25.9159  -26.5635  -44.2044 O.2       4 UNK        -0.5039 
     34 N          26.1260  -27.9270  -42.4084 N.am      5 UNK        -0.4663 
     35 CA         26.4570  -26.9169  -41.4016 C.3       5 UNK         0.0242 
     36 CB         27.6275  -27.4344  -40.5437 C.3       5 UNK        -0.1982 
     37 C          25.2121  -26.5776  -40.5596 C.2       5 UNK         0.5017 
     38 O          25.3010  -26.5042  -39.3334 O.2       5 UNK        -0.5012 
     39 N          24.0575  -26.4364  -41.2271 N.am      6 UNK        -0.4439 
     40 CA         22.7109  -26.1561  -40.7099 C.3       6 UNK         0.0297 
     41 CB         22.6537  -24.8285  -39.9311 C.3       6 UNK        -0.2006 
     42 C          22.0650  -27.3022  -39.9138 C.2       6 UNK         0.4892 
     43 O          20.8523  -27.4867  -40.0139 O.2       6 UNK        -0.5089 
     44 N          22.8615  -28.0810  -39.1749 N.am      7 UNK        -0.4243 
     45 CA         22.4463  -29.2840  -38.4506 C.3       7 UNK         0.0196 
     46 CB         23.3916  -29.4875  -37.2517 C.3       7 UNK        -0.2007 
     47 C          22.3861  -30.5171  -39.3766 C.2       7 UNK         0.5020 
     48 O          22.9345  -31.5686  -39.0399 O.2       7 UNK        -0.5147 
     49 N          21.7416  -30.3715  -40.5416 N.am      8 UNK        -0.4734 
     50 CA         21.5439  -31.4456  -41.5153 C.3       8 UNK         0.0238 
     51 CB         21.0946  -30.8519  -42.8587 C.3       8 UNK        -0.1912 
     52 C          20.5086  -32.4587  -41.0077 C.2       8 UNK         0.5038 
     53 O          19.4782  -32.0537  -40.4641 O.2       8 UNK        -0.5046 
     54 N          20.8007  -33.7489  -41.2113 N.am      9 UNK        -0.4200 
     55 CA         19.9398  -34.8906  -40.8560 C.3       9 UNK         0.0839 
     56 C          19.6933  -35.0798  -39.3266 C.2       9 UNK         0.5513 
     57 N          20.4946  -34.4866  -38.4491 N.am      9 UNK        -0.7519 
     58 O          18.7866  -35.8049  -38.9248 O.2       9 UNK        -0.4960 
     59 C59        18.6294  -34.9285  -41.6942 C.3       10 UNK        -0.0876 
     60 S60        18.9671  -35.0542  -43.4837 S.3       10 UNK        -0.2414 
     61 C61        17.4857  -34.2740  -44.1919 C.3       10 UNK         0.0169 
     62 H62        17.7396  -24.6595  -38.3518 H         1 UNK         0.0903 
     63 H63        19.2793  -25.4749  -38.6312 H         1 UNK         0.0903 
     64 H64        19.1627  -23.7234  -38.8193 H         1 UNK         0.0903 
     65 H65        19.4204  -26.4911  -40.6159 H         1 UNK         0.3096 
     66 H66        17.5440  -25.9369  -42.7748 H         1 UNK         0.1121 
     67 H67        19.9128  -27.8840  -42.5603 H         1 UNK         0.0849 
     68 H68        18.8153  -27.8286  -43.9057 H         1 UNK         0.0849 
     69 H69        15.7460  -29.7275  -42.8492 H         1 UNK         0.0865 
     70 H70        16.3724  -28.5080  -43.9204 H         1 UNK         0.0865 
     71 H71        16.6659  -32.0386  -42.8332 H         1 UNK         0.1346 
     72 H72        18.7911  -33.2714  -46.3427 H         1 UNK         0.1412 
     73 H73        18.0128  -29.1109  -45.6560 H         1 UNK         0.1426 
     74 H74        18.5258  -30.9996  -48.2620 H         1 UNK         0.0716 
     75 H75        20.0374  -31.5819  -47.6085 H         1 UNK         0.0716 
     76 H76        21.9609  -30.0133  -46.5932 H         1 UNK         0.0695 
     77 H77        20.7890  -29.5308  -45.3899 H         1 UNK         0.0695 
     78 H78        22.4858  -27.6226  -47.0943 H         1 UNK         0.0983 
     79 H79        20.1433  -27.0913  -45.4879 H         1 UNK         0.3095 
     80 H80        20.4693  -23.6261  -45.2957 H         1 UNK         0.0454 
     81 H81        18.7909  -25.1010  -47.3979 H         1 UNK         0.0851 
     82 H82        19.8632  -23.7430  -47.7039 H         1 UNK         0.0851 
     83 H83        18.4293  -23.5131  -46.7185 H         1 UNK         0.0851 
     84 H84        18.3234  -25.5923  -45.0207 H         1 UNK         0.2976 
     85 H85        24.3575  -28.7115  -46.3936 H         1 UNK         0.3116 
     86 H86        26.1644  -29.1396  -45.1947 H         1 UNK         0.0646 
     87 H87        24.2111  -29.9083  -42.9518 H         1 UNK         0.0847 
     88 H88        25.8438  -30.5312  -43.1910 H         1 UNK         0.0847 
     89 H89        24.5847  -30.9201  -44.3401 H         1 UNK         0.0847 
     90 H90        26.0087  -28.8711  -42.0684 H         1 UNK         0.3040 
     91 H91        26.7781  -25.9906  -41.8835 H         1 UNK         0.1015 
     92 H92        27.3587  -28.3371  -39.9936 H         1 UNK         0.0786 
     93 H93        27.9388  -26.6864  -39.8131 H         1 UNK         0.0786 
     94 H94        28.4979  -27.6633  -41.1590 H         1 UNK         0.0786 
     95 H95        24.0834  -26.5972  -42.2279 H         1 UNK         0.3172 
     96 H96        22.1002  -26.0406  -41.6033 H         1 UNK         0.0595 
     97 H97        23.2209  -24.8728  -39.0011 H         1 UNK         0.0839 
     98 H98        21.6247  -24.5781  -39.6718 H         1 UNK         0.0839 
     99 H99        23.0441  -24.0037  -40.5270 H         1 UNK         0.0839 
    100 H100       23.8431  -27.8284  -39.1293 H         1 UNK         0.2998 
    101 H101       21.4386  -29.1322  -38.0576 H         1 UNK         0.0822 
    102 H102       23.0844  -30.3444  -36.6505 H         1 UNK         0.0787 
    103 H103       24.4186  -29.6640  -37.5741 H         1 UNK         0.0787 
    104 H104       23.3914  -28.6174  -36.5949 H         1 UNK         0.0787 
    105 H105       21.2596  -29.4967  -40.7112 H         1 UNK         0.3055 
    106 H106       22.5020  -31.9491  -41.6635 H         1 UNK         0.1106 
    107 H107       20.1115  -30.3878  -42.7853 H         1 UNK         0.0828 
    108 H108       21.7959  -30.1003  -43.2157 H         1 UNK         0.0828 
    109 H109       21.0244  -31.6255  -43.6247 H         1 UNK         0.0828 
    110 H110       21.6744  -33.9903  -41.6554 H         1 UNK         0.2931 
    111 H111       20.5170  -35.7729  -41.1353 H         1 UNK         0.0412 
    112 H112       20.3360  -34.6250  -37.4633 H         1 UNK         0.3472 
    113 H113       21.2421  -33.8856  -38.7614 H         1 UNK         0.3472 
    114 H114       18.0170  -35.7893  -41.4202 H         1 UNK         0.0970 
    115 H115       18.0205  -34.0459  -41.4924 H         1 UNK         0.0970 
    116 H116       17.2106  -34.8198  -45.0957 H         1 UNK         0.0612 
    117 H117       16.6409  -34.3841  -43.5102 H         1 UNK         0.0612 
@<TRIPOS>BOND
     1    1    2 1    
     2    1   62 1    
     3    1   63 1    
     4    1   64 1    
     5    2    3 2    
     6    2    4 am   BACKBONE|DICT|INTERRES
     7    4    5 1    
     8    4   65 1    
     9    5    6 1    
    10    5   25 1    
    11    5   66 1    
    12    6    7 1    
    13    6   67 1    
    14    6   68 1    
    15    7    8 1    
    16    8    9 1    
    17    8   69 1    
    18    8   70 1    
    19    9   10 ar   
    20    9   14 ar   
    21   10   11 ar   
    22   10   71 1    
    23   11   12 ar   
    24   11   61 1    
    25   12   13 ar   
    26   12   72 1    
    27   13   14 ar   
    28   13   15 1    
    29   14   73 1    
    30   15   16 1    
    31   15   74 1    
    32   15   75 1    
    33   16   17 1    
    34   17   18 1    
    35   17   76 1    
    36   17   77 1    
    37   18   19 1    
    38   18   27 1    
    39   18   78 1    
    40   19   20 am   BACKBONE|DICT|INTERRES
    41   19   79 1    
    42   20   21 2    
    43   20   22 1    
    44   22   23 1    
    45   22   24 1    
    46   22   80 1    
    47   23   81 1    
    48   23   82 1    
    49   23   83 1    
    50   24   25 am   BACKBONE|DICT|INTERRES
    51   24   84 1    
    52   25   26 2    
    53   27   28 2    
    54   27   29 am   BACKBONE|DICT|INTERRES
    55   29   30 1    
    56   29   85 1    
    57   30   31 1    
    58   30   32 1    
    59   30   86 1    
    60   31   87 1    
    61   31   88 1    
    62   31   89 1    
    63   32   33 2    
    64   32   34 am   BACKBONE|DICT|INTERRES
    65   34   35 1    
    66   34   90 1    
    67   35   36 1    
    68   35   37 1    
    69   35   91 1    
    70   36   92 1    
    71   36   93 1    
    72   36   94 1    
    73   37   38 2    
    74   37   39 am   BACKBONE|DICT|INTERRES
    75   39   40 1    
    76   39   95 1    
    77   40   41 1    
    78   40   42 1    
    79   40   96 1    
    80   41   97 1    
    81   41   98 1    
    82   41   99 1    
    83   42   43 2    
    84   42   44 am   BACKBONE|DICT|INTERRES
    85   44   45 1    
    86   44  100 1    
    87   45   46 1    
    88   45   47 1    
    89   45  101 1    
    90   46  102 1    
    91   46  103 1    
    92   46  104 1    
    93   47   48 2    
    94   47   49 am   BACKBONE|DICT|INTERRES
    95   49   50 1    
    96   49  105 1    
    97   50   51 1    
    98   50   52 1    
    99   50  106 1    
   100   51  107 1    
   101   51  108 1    
   102   51  109 1    
   103   52   53 2    
   104   52   54 am   BACKBONE|DICT|INTERRES
   105   54   55 1    
   106   54  110 1    
   107   55   56 1    
   108   55   59 1    
   109   55  111 1    
   110   56   57 am   BACKBONE|DICT|INTERRES
   111   56   58 2    
   112   57  112 1    
   113   57  113 1    
   114   59   60 1    
   115   59  114 1    
   116   59  115 1    
   117   60   61 1    
   118   61  116 1    
   119   61  117 1    
@<TRIPOS>SUBSTRUCTURE
     1 UNK         1 GROUP             0       ****    0 ROOT    
