@<TRIPOS>MOLECULE
3R8
117   119    1
SMALL
USER_CHARGES


@<TRIPOS>ATOM
      1 CA         11.9449  -25.6575  -44.1834 C.3       0 UNK        -0.2013 
      2 C          13.3508  -25.3077  -44.6484 C.2       0 UNK         0.4866 
      3 O          13.7033  -24.1288  -44.6921 O.2       0 UNK        -0.5176 
      4 N          14.1456  -26.3232  -45.0060 N.am      1 UNK        -0.4884 
      5 CA         15.5471  -26.2067  -45.4147 C.3       1 UNK         0.0853 
      6 C6         15.9111  -27.2549  -46.5044 C.3       10 UNK        -0.0849 
      7 S7         15.4981  -28.9925  -46.0865 S.3       10 UNK        -0.2776 
      8 C8         16.7748  -29.9214  -46.9930 C.3       10 UNK         0.0316 
      9 C9         18.1546  -29.8030  -46.3574 C.ar      10 UNK        -0.0863 
     10 C10        18.5352  -30.6644  -45.3225 C.ar      10 UNK        -0.1009 
     11 C11        19.8298  -30.6125  -44.7860 C.ar      10 UNK        -0.0712 
     12 C12        20.7366  -29.6760  -45.2953 C.ar      10 UNK        -0.0894 
     13 C13        20.3680  -28.8088  -46.3280 C.ar      10 UNK        -0.0745 
     14 C14        19.0770  -28.8786  -46.8537 C.ar      10 UNK        -0.0972 
     15 C15        21.3750  -27.8377  -46.9284 C.3       10 UNK         0.0209 
     16 S16        21.2664  -26.1836  -46.1770 S.3       10 UNK        -0.2568 
     17 C17        22.1687  -26.4361  -44.6124 C.3       10 UNK        -0.0983 
     18 CA         21.2984  -26.1797  -43.3584 C.3       3 UNK         0.0876 
     19 N          20.0475  -26.9543  -43.3699 N.am      3 UNK        -0.4424 
     20 C          19.0543  -26.8188  -42.4804 C.2       2 UNK         0.4918 
     21 O          19.0779  -26.0227  -41.5405 O.2       2 UNK        -0.4875 
     22 CA         17.8377  -27.7379  -42.6864 C.3       2 UNK         0.0481 
     23 CB         16.9373  -27.8184  -41.4361 C.3       2 UNK        -0.1831 
     24 N          17.0434  -27.3927  -43.8666 N.am      2 UNK        -0.4498 
     25 C          16.4476  -26.2278  -44.1593 C.2       1 UNK         0.5027 
     26 O          16.5536  -25.2075  -43.4772 O.2       1 UNK        -0.4969 
     27 C          22.1467  -26.4097  -42.0882 C.2       3 UNK         0.5005 
     28 O          22.8552  -25.4961  -41.6616 O.2       3 UNK        -0.5279 
     29 N          22.0597  -27.6235  -41.5199 N.am      4 UNK        -0.4463 
     30 CA         22.6828  -28.1199  -40.2840 C.3       4 UNK         0.0283 
     31 CB         22.2469  -27.2910  -39.0611 C.3       4 UNK        -0.1875 
     32 C          24.2142  -28.2527  -40.3361 C.2       4 UNK         0.4949 
     33 O          24.7297  -29.3147  -39.9823 O.2       4 UNK        -0.5039 
     34 N          24.9061  -27.1938  -40.7740 N.am      5 UNK        -0.4663 
     35 CA         26.3628  -27.0680  -40.8733 C.3       5 UNK         0.0242 
     36 CB         26.7053  -25.6745  -41.4280 C.3       5 UNK        -0.1982 
     37 C          26.9882  -28.1816  -41.7308 C.2       5 UNK         0.5017 
     38 O          26.8811  -28.1371  -42.9576 O.2       5 UNK        -0.5012 
     39 N          27.5793  -29.1771  -41.0523 N.am      6 UNK        -0.4439 
     40 CA         28.1457  -30.4192  -41.5974 C.3       6 UNK         0.0297 
     41 CB         29.3770  -30.1215  -42.4801 C.3       6 UNK        -0.2006 
     42 C          27.1116  -31.3218  -42.3076 C.2       6 UNK         0.4892 
     43 O          27.5008  -32.1505  -43.1326 O.2       6 UNK        -0.5089 
     44 N          25.8240  -31.1534  -41.9757 N.am      7 UNK        -0.4243 
     45 CA         24.6964  -31.8659  -42.5820 C.3       7 UNK         0.0196 
     46 CB         23.9330  -30.8944  -43.4949 C.3       7 UNK        -0.2007 
     47 C          23.7674  -32.5023  -41.5330 C.2       7 UNK         0.5020 
     48 O          23.0602  -33.4510  -41.8680 O.2       7 UNK        -0.5147 
     49 N          23.7943  -31.9974  -40.2894 N.am      8 UNK        -0.4734 
     50 CA         23.1617  -32.5416  -39.0771 C.3       8 UNK         0.0238 
     51 CB         23.6945  -33.9574  -38.7663 C.3       8 UNK        -0.1912 
     52 C          21.6209  -32.4792  -39.0210 C.2       8 UNK         0.5038 
     53 O          21.0428  -33.0264  -38.0799 O.2       8 UNK        -0.5046 
     54 N          20.9775  -31.8000  -39.9795 N.am      9 UNK        -0.4200 
     55 CA         19.5383  -31.4854  -39.9460 C.3       9 UNK         0.0839 
     56 C          19.1723  -30.4922  -38.8080 C.2       9 UNK         0.5513 
     57 N          17.9418  -30.5423  -38.3170 N.am      9 UNK        -0.7519 
     58 O          19.9724  -29.6544  -38.4001 O.2       9 UNK        -0.4960 
     59 C59        19.0258  -30.9563  -41.3090 C.3       10 UNK        -0.0876 
     60 S60        19.0417  -32.2420  -42.5981 S.3       10 UNK        -0.2414 
     61 C61        20.3167  -31.6165  -43.7389 C.3       10 UNK         0.0169 
     62 H62        11.2069  -25.1741  -44.8231 H         1 UNK         0.0903 
     63 H63        11.7619  -26.7317  -44.2073 H         1 UNK         0.0903 
     64 H64        11.7905  -25.3102  -43.1622 H         1 UNK         0.0903 
     65 H65        13.8014  -27.2718  -44.9439 H         1 UNK         0.3096 
     66 H66        15.6981  -25.2239  -45.8680 H         1 UNK         0.1121 
     67 H67        15.3739  -27.0105  -47.4222 H         1 UNK         0.0849 
     68 H68        16.9653  -27.1620  -46.7616 H         1 UNK         0.0849 
     69 H69        16.4820  -30.9720  -47.0275 H         1 UNK         0.0865 
     70 H70        16.7991  -29.5858  -48.0312 H         1 UNK         0.0865 
     71 H71        17.8291  -31.4011  -44.9652 H         1 UNK         0.1346 
     72 H72        21.7478  -29.6472  -44.9163 H         1 UNK         0.1412 
     73 H73        18.8029  -28.2290  -47.6739 H         1 UNK         0.1426 
     74 H74        21.1932  -27.7421  -48.0000 H         1 UNK         0.0716 
     75 H75        22.3908  -28.2251  -46.8342 H         1 UNK         0.0716 
     76 H76        23.0230  -25.7560  -44.6197 H         1 UNK         0.0695 
     77 H77        22.5932  -27.4408  -44.5889 H         1 UNK         0.0695 
     78 H78        21.0146  -25.1248  -43.3576 H         1 UNK         0.0983 
     79 H79        19.9239  -27.5851  -44.1504 H         1 UNK         0.3095 
     80 H80        18.2248  -28.7369  -42.8810 H         1 UNK         0.0454 
     81 H81        17.5109  -28.1200  -40.5587 H         1 UNK         0.0851 
     82 H82        16.1392  -28.5486  -41.5688 H         1 UNK         0.0851 
     83 H83        16.4760  -26.8575  -41.2053 H         1 UNK         0.0851 
     84 H84        16.8758  -28.1549  -44.5139 H         1 UNK         0.2976 
     85 H85        21.4605  -28.2854  -41.9888 H         1 UNK         0.3116 
     86 H86        22.2877  -29.1269  -40.1432 H         1 UNK         0.0646 
     87 H87        22.6015  -27.7485  -38.1366 H         1 UNK         0.0847 
     88 H88        21.1607  -27.2279  -38.9935 H         1 UNK         0.0847 
     89 H89        22.6382  -26.2738  -39.0910 H         1 UNK         0.0847 
     90 H90        24.3563  -26.3916  -41.0754 H         1 UNK         0.3040 
     91 H91        26.7696  -27.1339  -39.8620 H         1 UNK         0.1015 
     92 H92        26.3415  -24.8853  -40.7698 H         1 UNK         0.0786 
     93 H93        26.2681  -25.5139  -42.4146 H         1 UNK         0.0786 
     94 H94        27.7843  -25.5456  -41.5234 H         1 UNK         0.0786 
     95 H95        27.5653  -29.1234  -40.0423 H         1 UNK         0.3172 
     96 H96        28.4932  -30.9912  -40.7360 H         1 UNK         0.0595 
     97 H97        29.0995  -29.6154  -43.4053 H         1 UNK         0.0839 
     98 H98        29.8929  -31.0416  -42.7574 H         1 UNK         0.0839 
     99 H99        30.0989  -29.4940  -41.9575 H         1 UNK         0.0839 
    100 H100       25.5997  -30.4459  -41.2831 H         1 UNK         0.2998 
    101 H101       25.0672  -32.6866  -43.1997 H         1 UNK         0.0822 
    102 H102       23.4118  -30.1243  -42.9257 H         1 UNK         0.0787 
    103 H103       24.6068  -30.3938  -44.1909 H         1 UNK         0.0787 
    104 H104       23.2019  -31.4337  -44.0962 H         1 UNK         0.0787 
    105 H105       24.3357  -31.1520  -40.1297 H         1 UNK         0.3055 
    106 H106       23.4950  -31.8911  -38.2666 H         1 UNK         0.1106 
    107 H107       23.3478  -34.6905  -39.4951 H         1 UNK         0.0828 
    108 H108       24.7842  -33.9792  -38.7595 H         1 UNK         0.0828 
    109 H109       23.3616  -34.2970  -37.7847 H         1 UNK         0.0828 
    110 H110       21.5196  -31.4032  -40.7289 H         1 UNK         0.2931 
    111 H111       19.0136  -32.4193  -39.7322 H         1 UNK         0.0412 
    112 H112       17.2749  -31.2244  -38.6437 H         1 UNK         0.3472 
    113 H113       17.6809  -29.8975  -37.5872 H         1 UNK         0.3472 
    114 H114       17.9912  -30.6186  -41.2251 H         1 UNK         0.0970 
    115 H115       19.6065  -30.0890  -41.6237 H         1 UNK         0.0970 
    116 H116       20.7489  -32.4692  -44.2637 H         1 UNK         0.0612 
    117 H117       21.1179  -31.1838  -43.1416 H         1 UNK         0.0612 
@<TRIPOS>BOND
     1    1    2 1    
     2    1   62 1    
     3    1   63 1    
     4    1   64 1    
     5    2    3 2    
     6    2    4 am   BACKBONE|DICT|INTERRES
     7    4    5 1    
     8    4   65 1    
     9    5    6 1    
    10    5   25 1    
    11    5   66 1    
    12    6    7 1    
    13    6   67 1    
    14    6   68 1    
    15    7    8 1    
    16    8    9 1    
    17    8   69 1    
    18    8   70 1    
    19    9   10 ar   
    20    9   14 ar   
    21   10   11 ar   
    22   10   71 1    
    23   11   12 ar   
    24   11   61 1    
    25   12   13 ar   
    26   12   72 1    
    27   13   14 ar   
    28   13   15 1    
    29   14   73 1    
    30   15   16 1    
    31   15   74 1    
    32   15   75 1    
    33   16   17 1    
    34   17   18 1    
    35   17   76 1    
    36   17   77 1    
    37   18   19 1    
    38   18   27 1    
    39   18   78 1    
    40   19   20 am   BACKBONE|DICT|INTERRES
    41   19   79 1    
    42   20   21 2    
    43   20   22 1    
    44   22   23 1    
    45   22   24 1    
    46   22   80 1    
    47   23   81 1    
    48   23   82 1    
    49   23   83 1    
    50   24   25 am   BACKBONE|DICT|INTERRES
    51   24   84 1    
    52   25   26 2    
    53   27   28 2    
    54   27   29 am   BACKBONE|DICT|INTERRES
    55   29   30 1    
    56   29   85 1    
    57   30   31 1    
    58   30   32 1    
    59   30   86 1    
    60   31   87 1    
    61   31   88 1    
    62   31   89 1    
    63   32   33 2    
    64   32   34 am   BACKBONE|DICT|INTERRES
    65   34   35 1    
    66   34   90 1    
    67   35   36 1    
    68   35   37 1    
    69   35   91 1    
    70   36   92 1    
    71   36   93 1    
    72   36   94 1    
    73   37   38 2    
    74   37   39 am   BACKBONE|DICT|INTERRES
    75   39   40 1    
    76   39   95 1    
    77   40   41 1    
    78   40   42 1    
    79   40   96 1    
    80   41   97 1    
    81   41   98 1    
    82   41   99 1    
    83   42   43 2    
    84   42   44 am   BACKBONE|DICT|INTERRES
    85   44   45 1    
    86   44  100 1    
    87   45   46 1    
    88   45   47 1    
    89   45  101 1    
    90   46  102 1    
    91   46  103 1    
    92   46  104 1    
    93   47   48 2    
    94   47   49 am   BACKBONE|DICT|INTERRES
    95   49   50 1    
    96   49  105 1    
    97   50   51 1    
    98   50   52 1    
    99   50  106 1    
   100   51  107 1    
   101   51  108 1    
   102   51  109 1    
   103   52   53 2    
   104   52   54 am   BACKBONE|DICT|INTERRES
   105   54   55 1    
   106   54  110 1    
   107   55   56 1    
   108   55   59 1    
   109   55  111 1    
   110   56   57 am   BACKBONE|DICT|INTERRES
   111   56   58 2    
   112   57  112 1    
   113   57  113 1    
   114   59   60 1    
   115   59  114 1    
   116   59  115 1    
   117   60   61 1    
   118   61  116 1    
   119   61  117 1    
@<TRIPOS>SUBSTRUCTURE
     1 UNK         1 GROUP             0       ****    0 ROOT    
