@<TRIPOS>MOLECULE
3R8
117   119    1
SMALL
USER_CHARGES


@<TRIPOS>ATOM
      1 CA         19.6016  -22.8153  -43.2672 C.3       0 UNK        -0.2013 
      2 C          19.6409  -23.7745  -44.4476 C.2       0 UNK         0.4866 
      3 O          20.5200  -23.6546  -45.3001 O.2       0 UNK        -0.5176 
      4 N          18.6880  -24.7168  -44.5056 N.am      1 UNK        -0.4884 
      5 CA         18.5676  -25.7428  -45.5513 C.3       1 UNK         0.0853 
      6 C6         17.2314  -26.5156  -45.4086 C.3       10 UNK        -0.0849 
      7 S7         16.8767  -27.6331  -46.8067 S.3       10 UNK        -0.2776 
      8 C8         15.6322  -28.7423  -46.0738 C.3       10 UNK         0.0316 
      9 C9         16.2356  -29.7376  -45.0896 C.ar      10 UNK        -0.0863 
     10 C10        16.8888  -30.8810  -45.5591 C.ar      10 UNK        -0.1009 
     11 C11        17.3801  -31.8387  -44.6659 C.ar      10 UNK        -0.0712 
     12 C12        17.2316  -31.6373  -43.2896 C.ar      10 UNK        -0.0894 
     13 C13        16.5806  -30.4977  -42.8074 C.ar      10 UNK        -0.0745 
     14 C14        16.0866  -29.5518  -43.7117 C.ar      10 UNK        -0.0972 
     15 C15        16.3402  -30.3163  -41.3157 C.3       10 UNK         0.0209 
     16 S16        17.3783  -29.0041  -40.6036 S.3       10 UNK        -0.2568 
     17 C17        18.9220  -29.8970  -40.1920 C.3       10 UNK        -0.0983 
     18 CA         20.2199  -29.1364  -40.5674 C.3       3 UNK         0.0876 
     19 N          20.2953  -28.8561  -42.0055 N.am      3 UNK        -0.4424 
     20 C          21.3626  -28.3395  -42.6313 C.2       2 UNK         0.4918 
     21 O          22.3880  -27.9756  -42.0587 O.2       2 UNK        -0.4875 
     22 CA         21.2334  -28.1332  -44.1399 C.3       2 UNK         0.0481 
     23 CB         21.1027  -29.4792  -44.8788 C.3       2 UNK        -0.1831 
     24 N          20.0945  -27.2561  -44.3941 N.am      2 UNK        -0.4498 
     25 C          19.7878  -26.6887  -45.5663 C.2       1 UNK         0.5027 
     26 O          20.4261  -26.8546  -46.6074 O.2       1 UNK        -0.4969 
     27 C          20.4403  -27.8749  -39.7018 C.2       3 UNK         0.5005 
     28 O          21.2689  -27.8899  -38.7909 O.2       3 UNK        -0.5279 
     29 N          19.7485  -26.7821  -40.0559 N.am      4 UNK        -0.4463 
     30 CA         19.8560  -25.4646  -39.4209 C.3       4 UNK         0.0283 
     31 CB         18.6852  -24.5864  -39.8892 C.3       4 UNK        -0.1875 
     32 C          21.2011  -24.7582  -39.6755 C.2       4 UNK         0.4949 
     33 O          21.5692  -23.8727  -38.9046 O.2       4 UNK        -0.5039 
     34 N          21.9170  -25.1699  -40.7308 N.am      5 UNK        -0.4663 
     35 CA         23.2754  -24.7233  -41.0506 C.3       5 UNK         0.0242 
     36 CB         23.4480  -24.7140  -42.5806 C.3       5 UNK        -0.1982 
     37 C          24.3558  -25.5941  -40.3759 C.2       5 UNK         0.5017 
     38 O          25.5412  -25.3281  -40.5769 O.2       5 UNK        -0.5012 
     39 N          23.9389  -26.6134  -39.6057 N.am      6 UNK        -0.4439 
     40 CA         24.7586  -27.6128  -38.9115 C.3       6 UNK         0.0297 
     41 CB         25.6620  -26.9560  -37.8453 C.3       6 UNK        -0.2006 
     42 C          25.5302  -28.5519  -39.8609 C.2       6 UNK         0.4892 
     43 O          26.5656  -29.0939  -39.4684 O.2       6 UNK        -0.5089 
     44 N          25.0088  -28.7525  -41.0782 N.am      7 UNK        -0.4243 
     45 CA         25.5049  -29.7333  -42.0407 C.3       7 UNK         0.0196 
     46 CB         25.2832  -29.1951  -43.4644 C.3       7 UNK        -0.2007 
     47 C          24.7697  -31.0678  -41.8483 C.2       7 UNK         0.5020 
     48 O          23.6483  -31.0914  -41.3332 O.2       7 UNK        -0.5147 
     49 N          25.4035  -32.1596  -42.2926 N.am      8 UNK        -0.4734 
     50 CA         24.8041  -33.4957  -42.3238 C.3       8 UNK         0.0238 
     51 CB         25.8980  -34.5389  -42.6049 C.3       8 UNK        -0.1912 
     52 C          23.6947  -33.5723  -43.3861 C.2       8 UNK         0.5038 
     53 O          23.8672  -33.0311  -44.4813 O.2       8 UNK        -0.5046 
     54 N          22.5922  -34.2469  -43.0506 N.am      9 UNK        -0.4200 
     55 CA         21.4160  -34.4162  -43.9081 C.3       9 UNK         0.0839 
     56 C          20.5951  -35.6538  -43.4649 C.2       9 UNK         0.5513 
     57 N          19.7911  -36.2163  -44.3554 N.am      9 UNK        -0.7519 
     58 O          20.6694  -36.0984  -42.3203 O.2       9 UNK        -0.4960 
     59 C59        20.5572  -33.1202  -43.9719 C.3       10 UNK        -0.0876 
     60 S60        19.7701  -32.8950  -45.6016 S.3       10 UNK        -0.2414 
     61 C61        18.0118  -33.1169  -45.1985 C.3       10 UNK         0.0169 
     62 H62        19.8106  -21.7993  -43.6014 H         1 UNK         0.0903 
     63 H63        18.6268  -22.8103  -42.7805 H         1 UNK         0.0903 
     64 H64        20.3557  -23.0918  -42.5307 H         1 UNK         0.0903 
     65 H65        17.9773  -24.7369  -43.7880 H         1 UNK         0.3096 
     66 H66        18.5552  -25.2216  -46.5116 H         1 UNK         0.1121 
     67 H67        17.2179  -27.0818  -44.4766 H         1 UNK         0.0849 
     68 H68        16.4022  -25.8093  -45.3422 H         1 UNK         0.0849 
     69 H69        14.8523  -28.1477  -45.5952 H         1 UNK         0.0865 
     70 H70        15.1381  -29.2903  -46.8776 H         1 UNK         0.0865 
     71 H71        16.9936  -31.0381  -46.6242 H         1 UNK         0.1346 
     72 H72        17.5904  -32.3841  -42.5950 H         1 UNK         0.1412 
     73 H73        15.5641  -28.6815  -43.3381 H         1 UNK         0.1426 
     74 H74        16.4973  -31.2494  -40.7723 H         1 UNK         0.0716 
     75 H75        15.2937  -30.0514  -41.1580 H         1 UNK         0.0716 
     76 H76        18.9115  -30.1277  -39.1251 H         1 UNK         0.0695 
     77 H77        18.9193  -30.8631  -40.6990 H         1 UNK         0.0695 
     78 H78        21.0572  -29.8029  -40.3451 H         1 UNK         0.0983 
     79 H79        19.4890  -29.1302  -42.5484 H         1 UNK         0.3095 
     80 H80        22.1381  -27.6296  -44.4868 H         1 UNK         0.0454 
     81 H81        20.1674  -29.9865  -44.6401 H         1 UNK         0.0851 
     82 H82        21.1386  -29.3507  -45.9601 H         1 UNK         0.0851 
     83 H83        21.9228  -30.1480  -44.6146 H         1 UNK         0.0851 
     84 H84        19.5354  -27.0112  -43.5905 H         1 UNK         0.2976 
     85 H85        19.0568  -26.8837  -40.7845 H         1 UNK         0.3116 
     86 H86        19.7657  -25.6043  -38.3415 H         1 UNK         0.0646 
     87 H87        18.7393  -23.5905  -39.4467 H         1 UNK         0.0847 
     88 H88        17.7268  -25.0159  -39.5966 H         1 UNK         0.0847 
     89 H89        18.6807  -24.4637  -40.9714 H         1 UNK         0.0847 
     90 H90        21.5630  -25.9376  -41.2841 H         1 UNK         0.3040 
     91 H91        23.4169  -23.7021  -40.6893 H         1 UNK         0.1015 
     92 H92        22.6941  -24.0927  -43.0639 H         1 UNK         0.0786 
     93 H93        23.3794  -25.7154  -43.0054 H         1 UNK         0.0786 
     94 H94        24.4223  -24.3116  -42.8607 H         1 UNK         0.0786 
     95 H95        22.9393  -26.7606  -39.5204 H         1 UNK         0.3172 
     96 H96        24.0503  -28.2524  -38.3832 H         1 UNK         0.0595 
     97 H97        25.0888  -26.3055  -37.1849 H         1 UNK         0.0839 
     98 H98        26.4573  -26.3621  -38.2962 H         1 UNK         0.0839 
     99 H99        26.1390  -27.7107  -37.2188 H         1 UNK         0.0839 
    100 H100       24.1084  -28.3358  -41.3007 H         1 UNK         0.2998 
    101 H101       26.5752  -29.8915  -41.8909 H         1 UNK         0.0822 
    102 H102       25.7589  -28.2236  -43.5999 H         1 UNK         0.0787 
    103 H103       25.7061  -29.8712  -44.2084 H         1 UNK         0.0787 
    104 H104       24.2240  -29.0840  -43.6956 H         1 UNK         0.0787 
    105 H105       26.3021  -32.0556  -42.7418 H         1 UNK         0.3055 
    106 H106       24.3712  -33.6992  -41.3413 H         1 UNK         0.1106 
    107 H107       25.4833  -35.5479  -42.6080 H         1 UNK         0.0828 
    108 H108       26.3701  -34.3787  -43.5752 H         1 UNK         0.0828 
    109 H109       26.6775  -34.5133  -41.8431 H         1 UNK         0.0828 
    110 H110       22.5250  -34.7103  -42.1536 H         1 UNK         0.2931 
    111 H111       21.7999  -34.6437  -44.9053 H         1 UNK         0.0412 
    112 H112       19.7202  -35.8474  -45.2914 H         1 UNK         0.3472 
    113 H113       19.2451  -37.0206  -44.0881 H         1 UNK         0.3472 
    114 H114       19.8192  -33.0894  -43.1694 H         1 UNK         0.0970 
    115 H115       21.1820  -32.2422  -43.8113 H         1 UNK         0.0970 
    116 H116       17.4874  -33.4291  -46.1028 H         1 UNK         0.0612 
    117 H117       17.8922  -33.9343  -44.4858 H         1 UNK         0.0612 
@<TRIPOS>BOND
     1    1    2 1    
     2    1   62 1    
     3    1   63 1    
     4    1   64 1    
     5    2    3 2    
     6    2    4 am   BACKBONE|DICT|INTERRES
     7    4    5 1    
     8    4   65 1    
     9    5    6 1    
    10    5   25 1    
    11    5   66 1    
    12    6    7 1    
    13    6   67 1    
    14    6   68 1    
    15    7    8 1    
    16    8    9 1    
    17    8   69 1    
    18    8   70 1    
    19    9   10 ar   
    20    9   14 ar   
    21   10   11 ar   
    22   10   71 1    
    23   11   12 ar   
    24   11   61 1    
    25   12   13 ar   
    26   12   72 1    
    27   13   14 ar   
    28   13   15 1    
    29   14   73 1    
    30   15   16 1    
    31   15   74 1    
    32   15   75 1    
    33   16   17 1    
    34   17   18 1    
    35   17   76 1    
    36   17   77 1    
    37   18   19 1    
    38   18   27 1    
    39   18   78 1    
    40   19   20 am   BACKBONE|DICT|INTERRES
    41   19   79 1    
    42   20   21 2    
    43   20   22 1    
    44   22   23 1    
    45   22   24 1    
    46   22   80 1    
    47   23   81 1    
    48   23   82 1    
    49   23   83 1    
    50   24   25 am   BACKBONE|DICT|INTERRES
    51   24   84 1    
    52   25   26 2    
    53   27   28 2    
    54   27   29 am   BACKBONE|DICT|INTERRES
    55   29   30 1    
    56   29   85 1    
    57   30   31 1    
    58   30   32 1    
    59   30   86 1    
    60   31   87 1    
    61   31   88 1    
    62   31   89 1    
    63   32   33 2    
    64   32   34 am   BACKBONE|DICT|INTERRES
    65   34   35 1    
    66   34   90 1    
    67   35   36 1    
    68   35   37 1    
    69   35   91 1    
    70   36   92 1    
    71   36   93 1    
    72   36   94 1    
    73   37   38 2    
    74   37   39 am   BACKBONE|DICT|INTERRES
    75   39   40 1    
    76   39   95 1    
    77   40   41 1    
    78   40   42 1    
    79   40   96 1    
    80   41   97 1    
    81   41   98 1    
    82   41   99 1    
    83   42   43 2    
    84   42   44 am   BACKBONE|DICT|INTERRES
    85   44   45 1    
    86   44  100 1    
    87   45   46 1    
    88   45   47 1    
    89   45  101 1    
    90   46  102 1    
    91   46  103 1    
    92   46  104 1    
    93   47   48 2    
    94   47   49 am   BACKBONE|DICT|INTERRES
    95   49   50 1    
    96   49  105 1    
    97   50   51 1    
    98   50   52 1    
    99   50  106 1    
   100   51  107 1    
   101   51  108 1    
   102   51  109 1    
   103   52   53 2    
   104   52   54 am   BACKBONE|DICT|INTERRES
   105   54   55 1    
   106   54  110 1    
   107   55   56 1    
   108   55   59 1    
   109   55  111 1    
   110   56   57 am   BACKBONE|DICT|INTERRES
   111   56   58 2    
   112   57  112 1    
   113   57  113 1    
   114   59   60 1    
   115   59  114 1    
   116   59  115 1    
   117   60   61 1    
   118   61  116 1    
   119   61  117 1    
@<TRIPOS>SUBSTRUCTURE
     1 UNK         1 GROUP             0       ****    0 ROOT    
