@<TRIPOS>MOLECULE
3R8
117   119    1
SMALL
USER_CHARGES


@<TRIPOS>ATOM
      1 CA         14.8769  -26.9086  -39.6635 C.3       0 UNK        -0.2013 
      2 C          15.0752  -26.5137  -41.1194 C.2       0 UNK         0.4866 
      3 O          14.6471  -25.4313  -41.5225 O.2       0 UNK        -0.5176 
      4 N          15.7123  -27.3849  -41.9099 N.am      1 UNK        -0.4884 
      5 CA         16.0696  -27.1347  -43.3094 C.3       1 UNK         0.0853 
      6 C6         16.0715  -28.4560  -44.1297 C.3       10 UNK        -0.0849 
      7 S7         15.8133  -28.1756  -45.9210 S.3       10 UNK        -0.2776 
      8 C8         16.0665  -29.8324  -46.6345 C.3       10 UNK         0.0316 
      9 C9         17.4763  -30.3675  -46.4158 C.ar      10 UNK        -0.0863 
     10 C10        17.7132  -31.2845  -45.3882 C.ar      10 UNK        -0.1009 
     11 C11        18.9891  -31.8150  -45.1892 C.ar      10 UNK        -0.0712 
     12 C12        20.0305  -31.4382  -46.0406 C.ar      10 UNK        -0.0894 
     13 C13        19.8153  -30.5123  -47.0665 C.ar      10 UNK        -0.0745 
     14 C14        18.5328  -29.9796  -47.2506 C.ar      10 UNK        -0.0972 
     15 C15        20.9667  -30.1266  -47.9910 C.3       10 UNK         0.0209 
     16 S16        21.7322  -28.5203  -47.5813 S.3       10 UNK        -0.2568 
     17 C17        22.4089  -28.8079  -45.9047 C.3       10 UNK        -0.0983 
     18 CA         22.6048  -27.5082  -45.0670 C.3       3 UNK         0.0876 
     19 N          21.4627  -26.5730  -45.1180 N.am      3 UNK        -0.4424 
     20 C          20.1780  -26.8598  -44.8663 C.2       2 UNK         0.4918 
     21 O          19.7951  -27.9664  -44.4853 O.2       2 UNK        -0.4875 
     22 CA         19.1727  -25.7038  -45.0480 C.3       2 UNK         0.0481 
     23 CB         19.1239  -25.2480  -46.5174 C.3       2 UNK        -0.1831 
     24 N          17.8230  -26.0991  -44.6488 N.am      2 UNK        -0.4498 
     25 C          17.4227  -26.3915  -43.4056 C.2       1 UNK         0.5027 
     26 O          18.0859  -26.1362  -42.3953 O.2       1 UNK        -0.4969 
     27 C          23.0433  -27.8590  -43.6237 C.2       3 UNK         0.5005 
     28 O          24.1338  -28.4028  -43.4358 O.2       3 UNK        -0.5279 
     29 N          22.1997  -27.5324  -42.6320 N.am      4 UNK        -0.4463 
     30 CA         22.2864  -27.9028  -41.2198 C.3       4 UNK         0.0283 
     31 CB         21.1069  -27.2763  -40.4623 C.3       4 UNK        -0.1875 
     32 C          23.6083  -27.5587  -40.5232 C.2       4 UNK         0.4949 
     33 O          24.0144  -28.3040  -39.6319 O.2       4 UNK        -0.5039 
     34 N          24.2854  -26.4967  -40.9786 N.am      5 UNK        -0.4663 
     35 CA         25.6070  -26.0635  -40.5113 C.3       5 UNK         0.0242 
     36 CB         26.0132  -24.7919  -41.2739 C.3       5 UNK        -0.1982 
     37 C          26.7138  -27.1321  -40.6219 C.2       5 UNK         0.5017 
     38 O          27.7031  -27.0354  -39.8946 O.2       5 UNK        -0.5012 
     39 N          26.5286  -28.1277  -41.5004 N.am      6 UNK        -0.4439 
     40 CA         27.4195  -29.2760  -41.6589 C.3       6 UNK         0.0297 
     41 CB         28.3361  -29.0371  -42.8747 C.3       6 UNK        -0.2006 
     42 C          26.6350  -30.5975  -41.7622 C.2       6 UNK         0.4892 
     43 O          27.1553  -31.5483  -42.3495 O.2       6 UNK        -0.5089 
     44 N          25.4096  -30.6552  -41.2133 N.am      7 UNK        -0.4243 
     45 CA         24.5278  -31.8236  -41.3505 C.3       7 UNK         0.0196 
     46 CB         23.8221  -31.7794  -42.7190 C.3       7 UNK        -0.2007 
     47 C          23.5072  -32.0194  -40.2143 C.2       7 UNK         0.5020 
     48 O          22.9638  -33.1187  -40.1101 O.2       7 UNK        -0.5147 
     49 N          23.2475  -30.9911  -39.3895 N.am      8 UNK        -0.4734 
     50 CA         22.2846  -30.9756  -38.2730 C.3       8 UNK         0.0238 
     51 CB         22.7068  -31.9592  -37.1599 C.3       8 UNK        -0.1912 
     52 C          20.8079  -31.1500  -38.6976 C.2       8 UNK         0.5038 
     53 O          19.9935  -31.6259  -37.9054 O.2       8 UNK        -0.5046 
     54 N          20.4859  -30.7346  -39.9283 N.am      9 UNK        -0.4200 
     55 CA         19.1540  -30.7851  -40.5596 C.3       9 UNK         0.0839 
     56 C          18.1222  -29.7392  -40.0356 C.2       9 UNK         0.5513 
     57 N          18.4076  -28.9793  -38.9860 N.am      9 UNK        -0.7519 
     58 O          17.0363  -29.6107  -40.5966 O.2       9 UNK        -0.4960 
     59 C59        19.2720  -30.7293  -42.1063 C.3       10 UNK        -0.0876 
     60 S60        20.3109  -32.0741  -42.7711 S.3       10 UNK        -0.2414 
     61 C61        19.2439  -32.7960  -44.0549 C.3       10 UNK         0.0169 
     62 H62        13.8300  -26.7974  -39.3827 H         1 UNK         0.0903 
     63 H63        15.1656  -27.9432  -39.4794 H         1 UNK         0.0903 
     64 H64        15.4742  -26.2668  -39.0166 H         1 UNK         0.0903 
     65 H65        16.1092  -28.2270  -41.4974 H         1 UNK         0.3096 
     66 H66        15.3127  -26.4724  -43.7365 H         1 UNK         0.1121 
     67 H67        16.9995  -29.0071  -43.9655 H         1 UNK         0.0849 
     68 H68        15.2676  -29.1113  -43.7900 H         1 UNK         0.0849 
     69 H69        15.3270  -30.5174  -46.2166 H         1 UNK         0.0865 
     70 H70        15.8603  -29.7875  -47.7049 H         1 UNK         0.0865 
     71 H71        16.9017  -31.5830  -44.7386 H         1 UNK         0.1346 
     72 H72        21.0166  -31.8553  -45.8889 H         1 UNK         0.1412 
     73 H73        18.3566  -29.2686  -48.0461 H         1 UNK         0.1426 
     74 H74        20.6015  -30.0843  -49.0180 H         1 UNK         0.0716 
     75 H75        21.7390  -30.8973  -47.9793 H         1 UNK         0.0716 
     76 H76        21.7501  -29.4907  -45.3694 H         1 UNK         0.0695 
     77 H77        23.3588  -29.3349  -46.0107 H         1 UNK         0.0695 
     78 H78        23.4435  -26.9651  -45.5053 H         1 UNK         0.0983 
     79 H79        21.6952  -25.6324  -45.4040 H         1 UNK         0.3095 
     80 H80        19.4893  -24.8674  -44.4221 H         1 UNK         0.0454 
     81 H81        18.8583  -26.0705  -47.1835 H         1 UNK         0.0851 
     82 H82        18.3943  -24.4510  -46.6623 H         1 UNK         0.0851 
     83 H83        20.0875  -24.8608  -46.8494 H         1 UNK         0.0851 
     84 H84        17.2254  -26.4237  -45.3983 H         1 UNK         0.2976 
     85 H85        21.3264  -27.1131  -42.9192 H         1 UNK         0.3116 
     86 H86        22.1835  -28.9867  -41.1886 H         1 UNK         0.0646 
     87 H87        20.1507  -27.5756  -40.8918 H         1 UNK         0.0847 
     88 H88        21.1493  -26.1866  -40.4812 H         1 UNK         0.0847 
     89 H89        21.1033  -27.5827  -39.4155 H         1 UNK         0.0847 
     90 H90        23.8738  -25.9641  -41.7313 H         1 UNK         0.3040 
     91 H91        25.5118  -25.8155  -39.4519 H         1 UNK         0.1015 
     92 H92        25.2916  -23.9889  -41.1223 H         1 UNK         0.0786 
     93 H93        26.0954  -24.9743  -42.3463 H         1 UNK         0.0786 
     94 H94        26.9810  -24.4226  -40.9313 H         1 UNK         0.0786 
     95 H95        25.6938  -28.1254  -42.0819 H         1 UNK         0.3172 
     96 H96        28.0508  -29.3813  -40.7743 H         1 UNK         0.0595 
     97 H97        29.0612  -29.8438  -42.9894 H         1 UNK         0.0839 
     98 H98        28.9019  -28.1114  -42.7688 H         1 UNK         0.0839 
     99 H99        27.7629  -28.9762  -43.8007 H         1 UNK         0.0839 
    100 H100       25.0607  -29.8500  -40.7101 H         1 UNK         0.2998 
    101 H101       25.1486  -32.7222  -41.3253 H         1 UNK         0.0822 
    102 H102       24.5364  -31.7277  -43.5406 H         1 UNK         0.0787 
    103 H103       23.2211  -32.6755  -42.8767 H         1 UNK         0.0787 
    104 H104       23.1593  -30.9178  -42.8007 H         1 UNK         0.0787 
    105 H105       23.7244  -30.1037  -39.5251 H         1 UNK         0.3055 
    106 H106       22.3441  -29.9714  -37.8495 H         1 UNK         0.1106 
    107 H107       22.5995  -32.9981  -37.4728 H         1 UNK         0.0828 
    108 H108       23.7440  -31.8026  -36.8639 H         1 UNK         0.0828 
    109 H109       22.0946  -31.8269  -36.2669 H         1 UNK         0.0828 
    110 H110       21.2304  -30.3994  -40.5171 H         1 UNK         0.2931 
    111 H111       18.7229  -31.7554  -40.3065 H         1 UNK         0.0412 
    112 H112       19.2684  -29.1092  -38.4819 H         1 UNK         0.3472 
    113 H113       17.7286  -28.3109  -38.6605 H         1 UNK         0.3472 
    114 H114       18.2841  -30.7909  -42.5649 H         1 UNK         0.0970 
    115 H115       19.6919  -29.7751  -42.4299 H         1 UNK         0.0970 
    116 H116       19.7275  -33.6885  -44.4542 H         1 UNK         0.0612 
    117 H117       18.3088  -33.1281  -43.6012 H         1 UNK         0.0612 
@<TRIPOS>BOND
     1    1    2 1    
     2    1   62 1    
     3    1   63 1    
     4    1   64 1    
     5    2    3 2    
     6    2    4 am   BACKBONE|DICT|INTERRES
     7    4    5 1    
     8    4   65 1    
     9    5    6 1    
    10    5   25 1    
    11    5   66 1    
    12    6    7 1    
    13    6   67 1    
    14    6   68 1    
    15    7    8 1    
    16    8    9 1    
    17    8   69 1    
    18    8   70 1    
    19    9   10 ar   
    20    9   14 ar   
    21   10   11 ar   
    22   10   71 1    
    23   11   12 ar   
    24   11   61 1    
    25   12   13 ar   
    26   12   72 1    
    27   13   14 ar   
    28   13   15 1    
    29   14   73 1    
    30   15   16 1    
    31   15   74 1    
    32   15   75 1    
    33   16   17 1    
    34   17   18 1    
    35   17   76 1    
    36   17   77 1    
    37   18   19 1    
    38   18   27 1    
    39   18   78 1    
    40   19   20 am   BACKBONE|DICT|INTERRES
    41   19   79 1    
    42   20   21 2    
    43   20   22 1    
    44   22   23 1    
    45   22   24 1    
    46   22   80 1    
    47   23   81 1    
    48   23   82 1    
    49   23   83 1    
    50   24   25 am   BACKBONE|DICT|INTERRES
    51   24   84 1    
    52   25   26 2    
    53   27   28 2    
    54   27   29 am   BACKBONE|DICT|INTERRES
    55   29   30 1    
    56   29   85 1    
    57   30   31 1    
    58   30   32 1    
    59   30   86 1    
    60   31   87 1    
    61   31   88 1    
    62   31   89 1    
    63   32   33 2    
    64   32   34 am   BACKBONE|DICT|INTERRES
    65   34   35 1    
    66   34   90 1    
    67   35   36 1    
    68   35   37 1    
    69   35   91 1    
    70   36   92 1    
    71   36   93 1    
    72   36   94 1    
    73   37   38 2    
    74   37   39 am   BACKBONE|DICT|INTERRES
    75   39   40 1    
    76   39   95 1    
    77   40   41 1    
    78   40   42 1    
    79   40   96 1    
    80   41   97 1    
    81   41   98 1    
    82   41   99 1    
    83   42   43 2    
    84   42   44 am   BACKBONE|DICT|INTERRES
    85   44   45 1    
    86   44  100 1    
    87   45   46 1    
    88   45   47 1    
    89   45  101 1    
    90   46  102 1    
    91   46  103 1    
    92   46  104 1    
    93   47   48 2    
    94   47   49 am   BACKBONE|DICT|INTERRES
    95   49   50 1    
    96   49  105 1    
    97   50   51 1    
    98   50   52 1    
    99   50  106 1    
   100   51  107 1    
   101   51  108 1    
   102   51  109 1    
   103   52   53 2    
   104   52   54 am   BACKBONE|DICT|INTERRES
   105   54   55 1    
   106   54  110 1    
   107   55   56 1    
   108   55   59 1    
   109   55  111 1    
   110   56   57 am   BACKBONE|DICT|INTERRES
   111   56   58 2    
   112   57  112 1    
   113   57  113 1    
   114   59   60 1    
   115   59  114 1    
   116   59  115 1    
   117   60   61 1    
   118   61  116 1    
   119   61  117 1    
@<TRIPOS>SUBSTRUCTURE
     1 UNK         1 GROUP             0       ****    0 ROOT    
