@<TRIPOS>MOLECULE
3R8
117   119    1
SMALL
USER_CHARGES


@<TRIPOS>ATOM
      1 CA         14.6559  -25.0780  -43.6768 C.3       0 UNK        -0.2013 
      2 C          15.8876  -25.9450  -43.8895 C.2       0 UNK         0.4866 
      3 O          16.9710  -25.4175  -44.1355 O.2       0 UNK        -0.5176 
      4 N          15.7308  -27.2712  -43.7852 N.am      1 UNK        -0.4884 
      5 CA         16.7942  -28.2685  -43.9872 C.3       1 UNK         0.0853 
      6 C6         16.2136  -29.6340  -44.4337 C.3       10 UNK        -0.0849 
      7 S7         15.6299  -29.5231  -46.1618 S.3       10 UNK        -0.2776 
      8 C8         16.8053  -30.5772  -47.0849 C.3       10 UNK         0.0316 
      9 C9         18.2625  -30.4091  -46.6623 C.ar      10 UNK        -0.0863 
     10 C10        18.9651  -31.5066  -46.1563 C.ar      10 UNK        -0.1009 
     11 C11        20.2983  -31.3778  -45.7606 C.ar      10 UNK        -0.0712 
     12 C12        20.9301  -30.1338  -45.8558 C.ar      10 UNK        -0.0894 
     13 C13        20.2423  -29.0283  -46.3660 C.ar      10 UNK        -0.0745 
     14 C14        18.9132  -29.1761  -46.7816 C.ar      10 UNK        -0.0972 
     15 C15        20.9369  -27.6804  -46.4992 C.3       10 UNK         0.0209 
     16 S16        20.4545  -26.5303  -45.1737 S.3       10 UNK        -0.2568 
     17 C17        21.8031  -26.7228  -43.9582 C.3       10 UNK        -0.0983 
     18 CA         21.3977  -26.1182  -42.5908 C.3       3 UNK         0.0876 
     19 N          20.3546  -26.9182  -41.9475 N.am      3 UNK        -0.4424 
     20 C          19.5573  -26.5125  -40.9532 C.2       2 UNK         0.4918 
     21 O          19.6608  -25.4204  -40.3924 O.2       2 UNK        -0.4875 
     22 CA         18.4208  -27.4812  -40.5678 C.3       2 UNK         0.0481 
     23 CB         17.6271  -27.0108  -39.3358 C.3       2 UNK        -0.1831 
     24 N          17.4984  -27.6709  -41.6909 N.am      2 UNK        -0.4498 
     25 C          17.7520  -28.4048  -42.7850 C.2       1 UNK         0.5027 
     26 O          18.7410  -29.1304  -42.8874 O.2       1 UNK        -0.4969 
     27 C          22.6152  -25.8802  -41.6756 C.2       3 UNK         0.5005 
     28 O          23.2819  -24.8543  -41.8236 O.2       3 UNK        -0.5279 
     29 N          22.8787  -26.8113  -40.7459 N.am      4 UNK        -0.4463 
     30 CA         23.9051  -26.8098  -39.6928 C.3       4 UNK         0.0283 
     31 CB         23.7671  -25.5976  -38.7516 C.3       4 UNK        -0.1875 
     32 C          25.3357  -26.9517  -40.2328 C.2       4 UNK         0.4949 
     33 O          26.0350  -27.8881  -39.8478 O.2       4 UNK        -0.5039 
     34 N          25.7245  -26.0725  -41.1644 N.am      5 UNK        -0.4663 
     35 CA         26.9842  -26.1347  -41.9149 C.3       5 UNK         0.0242 
     36 CB         27.1646  -24.8289  -42.7048 C.3       5 UNK        -0.1982 
     37 C          27.0584  -27.3514  -42.8566 C.2       5 UNK         0.5017 
     38 O          28.1560  -27.8225  -43.1536 O.2       5 UNK        -0.5012 
     39 N          25.8864  -27.8468  -43.2733 N.am      6 UNK        -0.4439 
     40 CA         25.6898  -29.0843  -44.0267 C.3       6 UNK         0.0297 
     41 CB         25.0170  -28.7515  -45.3720 C.3       6 UNK        -0.2006 
     42 C          24.8791  -30.1009  -43.1977 C.2       6 UNK         0.4892 
     43 O          24.1511  -30.8995  -43.7841 O.2       6 UNK        -0.5089 
     44 N          25.0364  -30.0518  -41.8633 N.am      7 UNK        -0.4243 
     45 CA         24.3587  -30.8369  -40.8210 C.3       7 UNK         0.0196 
     46 CB         24.4974  -32.3554  -41.0669 C.3       7 UNK        -0.2007 
     47 C          22.8958  -30.4134  -40.5808 C.2       7 UNK         0.5020 
     48 O          22.3560  -29.5600  -41.2883 O.2       7 UNK        -0.5147 
     49 N          22.2955  -30.9784  -39.5240 N.am      8 UNK        -0.4734 
     50 CA         20.9086  -30.7150  -39.1205 C.3       8 UNK         0.0238 
     51 CB         20.7422  -31.0365  -37.6265 C.3       8 UNK        -0.1912 
     52 C          19.8795  -31.4945  -39.9584 C.2       8 UNK         0.5038 
     53 O          18.7524  -31.0235  -40.1062 O.2       8 UNK        -0.5046 
     54 N          20.2906  -32.6568  -40.4847 N.am      9 UNK        -0.4200 
     55 CA         19.5503  -33.5008  -41.4386 C.3       9 UNK         0.0839 
     56 C          18.1555  -33.9667  -40.9169 C.2       9 UNK         0.5513 
     57 N          17.1793  -34.2053  -41.7842 N.am      9 UNK        -0.7519 
     58 O          17.9679  -34.1832  -39.7211 O.2       9 UNK        -0.4960 
     59 C59        19.5464  -32.8809  -42.8677 C.3       10 UNK        -0.0876 
     60 S60        21.2488  -32.5802  -43.4517 S.3       10 UNK        -0.2414 
     61 C61        21.0640  -32.5912  -45.2571 C.3       10 UNK         0.0169 
     62 H62        14.4546  -24.4884  -44.5709 H         1 UNK         0.0903 
     63 H63        13.7696  -25.6730  -43.4572 H         1 UNK         0.0903 
     64 H64        14.8184  -24.3917  -42.8461 H         1 UNK         0.0903 
     65 H65        14.8134  -27.6473  -43.5898 H         1 UNK         0.3096 
     66 H66        17.4372  -27.9026  -44.7908 H         1 UNK         0.1121 
     67 H67        16.9483  -30.4362  -44.3484 H         1 UNK         0.0849 
     68 H68        15.3824  -29.9308  -43.7922 H         1 UNK         0.0849 
     69 H69        16.4913  -31.6158  -46.9701 H         1 UNK         0.0865 
     70 H70        16.7170  -30.3533  -48.1488 H         1 UNK         0.0865 
     71 H71        18.4762  -32.4677  -46.0741 H         1 UNK         0.1346 
     72 H72        21.9587  -30.0339  -45.5355 H         1 UNK         0.1412 
     73 H73        18.3777  -28.3249  -47.1799 H         1 UNK         0.1426 
     74 H74        22.0210  -27.7980  -46.5178 H         1 UNK         0.0716 
     75 H75        20.6677  -27.2349  -47.4580 H         1 UNK         0.0716 
     76 H76        22.0553  -27.7803  -43.8535 H         1 UNK         0.0695 
     77 H77        22.6857  -26.2241  -44.3637 H         1 UNK         0.0695 
     78 H78        20.9746  -25.1277  -42.7748 H         1 UNK         0.0983 
     79 H79        20.1581  -27.8230  -42.3666 H         1 UNK         0.3095 
     80 H80        18.8807  -28.4374  -40.3207 H         1 UNK         0.0454 
     81 H81        17.1258  -26.0589  -39.5146 H         1 UNK         0.0851 
     82 H82        16.8704  -27.7417  -39.0505 H         1 UNK         0.0851 
     83 H83        18.2855  -26.8769  -38.4765 H         1 UNK         0.0851 
     84 H84        16.6833  -27.0758  -41.7123 H         1 UNK         0.2976 
     85 H85        22.3501  -27.6782  -40.8180 H         1 UNK         0.3116 
     86 H86        23.7068  -27.7016  -39.0960 H         1 UNK         0.0646 
     87 H87        24.4691  -25.6710  -37.9200 H         1 UNK         0.0847 
     88 H88        22.7653  -25.5405  -38.3260 H         1 UNK         0.0847 
     89 H89        23.9678  -24.6539  -39.2594 H         1 UNK         0.0847 
     90 H90        25.0471  -25.3640  -41.4410 H         1 UNK         0.3040 
     91 H91        27.8033  -26.2247  -41.1979 H         1 UNK         0.1015 
     92 H92        27.1889  -23.9645  -42.0410 H         1 UNK         0.0786 
     93 H93        26.3585  -24.6771  -43.4240 H         1 UNK         0.0786 
     94 H94        28.1029  -24.8352  -43.2615 H         1 UNK         0.0786 
     95 H95        25.0486  -27.3827  -42.9536 H         1 UNK         0.3172 
     96 H96        26.6516  -29.5555  -44.2383 H         1 UNK         0.0595 
     97 H97        24.9135  -29.6431  -45.9918 H         1 UNK         0.0839 
     98 H98        25.6041  -28.0309  -45.9415 H         1 UNK         0.0839 
     99 H99        24.0206  -28.3355  -45.2302 H         1 UNK         0.0839 
    100 H100       25.6568  -29.3387  -41.5002 H         1 UNK         0.2998 
    101 H101       24.8962  -30.6032  -39.9004 H         1 UNK         0.0822 
    102 H102       25.5307  -32.6291  -41.2801 H         1 UNK         0.0787 
    103 H103       24.1895  -32.9306  -40.1936 H         1 UNK         0.0787 
    104 H104       23.8845  -32.6901  -41.9040 H         1 UNK         0.0787 
    105 H105       22.8143  -31.6390  -38.9626 H         1 UNK         0.3055 
    106 H106       20.7022  -29.6517  -39.2609 H         1 UNK         0.1106 
    107 H107       19.7251  -30.8231  -37.2941 H         1 UNK         0.0828 
    108 H108       20.9398  -32.0876  -37.4128 H         1 UNK         0.0828 
    109 H109       21.4139  -30.4353  -37.0134 H         1 UNK         0.0828 
    110 H110       21.2313  -32.9569  -40.2825 H         1 UNK         0.2931 
    111 H111       20.1272  -34.4246  -41.4973 H         1 UNK         0.0412 
    112 H112       16.2903  -34.5309  -41.4372 H         1 UNK         0.3472 
    113 H113       17.3071  -34.0648  -42.7730 H         1 UNK         0.3472 
    114 H114       18.9946  -31.9388  -42.8839 H         1 UNK         0.0970 
    115 H115       19.0598  -33.5469  -43.5808 H         1 UNK         0.0970 
    116 H116       20.5814  -33.5184  -45.5696 H         1 UNK         0.0612 
    117 H117       22.0587  -32.5985  -45.7054 H         1 UNK         0.0612 
@<TRIPOS>BOND
     1    1    2 1    
     2    1   62 1    
     3    1   63 1    
     4    1   64 1    
     5    2    3 2    
     6    2    4 am   BACKBONE|DICT|INTERRES
     7    4    5 1    
     8    4   65 1    
     9    5    6 1    
    10    5   25 1    
    11    5   66 1    
    12    6    7 1    
    13    6   67 1    
    14    6   68 1    
    15    7    8 1    
    16    8    9 1    
    17    8   69 1    
    18    8   70 1    
    19    9   10 ar   
    20    9   14 ar   
    21   10   11 ar   
    22   10   71 1    
    23   11   12 ar   
    24   11   61 1    
    25   12   13 ar   
    26   12   72 1    
    27   13   14 ar   
    28   13   15 1    
    29   14   73 1    
    30   15   16 1    
    31   15   74 1    
    32   15   75 1    
    33   16   17 1    
    34   17   18 1    
    35   17   76 1    
    36   17   77 1    
    37   18   19 1    
    38   18   27 1    
    39   18   78 1    
    40   19   20 am   BACKBONE|DICT|INTERRES
    41   19   79 1    
    42   20   21 2    
    43   20   22 1    
    44   22   23 1    
    45   22   24 1    
    46   22   80 1    
    47   23   81 1    
    48   23   82 1    
    49   23   83 1    
    50   24   25 am   BACKBONE|DICT|INTERRES
    51   24   84 1    
    52   25   26 2    
    53   27   28 2    
    54   27   29 am   BACKBONE|DICT|INTERRES
    55   29   30 1    
    56   29   85 1    
    57   30   31 1    
    58   30   32 1    
    59   30   86 1    
    60   31   87 1    
    61   31   88 1    
    62   31   89 1    
    63   32   33 2    
    64   32   34 am   BACKBONE|DICT|INTERRES
    65   34   35 1    
    66   34   90 1    
    67   35   36 1    
    68   35   37 1    
    69   35   91 1    
    70   36   92 1    
    71   36   93 1    
    72   36   94 1    
    73   37   38 2    
    74   37   39 am   BACKBONE|DICT|INTERRES
    75   39   40 1    
    76   39   95 1    
    77   40   41 1    
    78   40   42 1    
    79   40   96 1    
    80   41   97 1    
    81   41   98 1    
    82   41   99 1    
    83   42   43 2    
    84   42   44 am   BACKBONE|DICT|INTERRES
    85   44   45 1    
    86   44  100 1    
    87   45   46 1    
    88   45   47 1    
    89   45  101 1    
    90   46  102 1    
    91   46  103 1    
    92   46  104 1    
    93   47   48 2    
    94   47   49 am   BACKBONE|DICT|INTERRES
    95   49   50 1    
    96   49  105 1    
    97   50   51 1    
    98   50   52 1    
    99   50  106 1    
   100   51  107 1    
   101   51  108 1    
   102   51  109 1    
   103   52   53 2    
   104   52   54 am   BACKBONE|DICT|INTERRES
   105   54   55 1    
   106   54  110 1    
   107   55   56 1    
   108   55   59 1    
   109   55  111 1    
   110   56   57 am   BACKBONE|DICT|INTERRES
   111   56   58 2    
   112   57  112 1    
   113   57  113 1    
   114   59   60 1    
   115   59  114 1    
   116   59  115 1    
   117   60   61 1    
   118   61  116 1    
   119   61  117 1    
@<TRIPOS>SUBSTRUCTURE
     1 UNK         1 GROUP             0       ****    0 ROOT    
