@<TRIPOS>MOLECULE
3R8
117   119    1
SMALL
USER_CHARGES


@<TRIPOS>ATOM
      1 CA         16.3320  -22.8964  -45.5524 C.3       0 UNK        -0.2013 
      2 C          16.6605  -24.3181  -45.1232 C.2       0 UNK         0.4866 
      3 O          17.7989  -24.7594  -45.2960 O.2       0 UNK        -0.5176 
      4 N          15.6718  -25.0363  -44.5689 N.am      1 UNK        -0.4884 
      5 CA         15.8031  -26.4095  -44.0709 C.3       1 UNK         0.0853 
      6 C6         14.4364  -27.0611  -43.7443 C.3       10 UNK        -0.0849 
      7 S7         13.6614  -27.7045  -45.2650 S.3       10 UNK        -0.2776 
      8 C8         14.1297  -29.4699  -45.2014 C.3       10 UNK         0.0316 
      9 C9         15.6376  -29.6785  -45.0965 C.ar      10 UNK        -0.0863 
     10 C10        16.2101  -30.0781  -43.8841 C.ar      10 UNK        -0.1009 
     11 C11        17.5912  -30.2647  -43.7777 C.ar      10 UNK        -0.0712 
     12 C12        18.4043  -30.0548  -44.8944 C.ar      10 UNK        -0.0894 
     13 C13        17.8460  -29.6569  -46.1117 C.ar      10 UNK        -0.0745 
     14 C14        16.4618  -29.4733  -46.2082 C.ar      10 UNK        -0.0972 
     15 C15        18.7326  -29.4462  -47.3296 C.3       10 UNK         0.0209 
     16 S16        19.3454  -27.7359  -47.4324 S.3       10 UNK        -0.2568 
     17 C17        20.9554  -27.8304  -46.5747 C.3       10 UNK        -0.0983 
     18 CA         21.2018  -26.5665  -45.7063 C.3       3 UNK         0.0876 
     19 N          20.3110  -26.4915  -44.5443 N.am      3 UNK        -0.4424 
     20 C          20.3544  -27.2342  -43.4234 C.2       2 UNK         0.4918 
     21 O          21.1958  -28.1020  -43.1893 O.2       2 UNK        -0.4875 
     22 CA         19.2215  -26.9999  -42.4182 C.3       2 UNK         0.0481 
     23 CB         19.5079  -25.7214  -41.6036 C.3       2 UNK        -0.1831 
     24 N          17.9942  -26.9191  -43.2029 N.am      2 UNK        -0.4498 
     25 C          16.7791  -26.4720  -42.8820 C.2       1 UNK         0.5027 
     26 O          16.4255  -26.0974  -41.7626 O.2       1 UNK        -0.4969 
     27 C          22.6741  -26.3589  -45.2939 C.2       3 UNK         0.5005 
     28 O          23.0916  -25.2113  -45.1278 O.2       3 UNK        -0.5279 
     29 N          23.4253  -27.4553  -45.1124 N.am      4 UNK        -0.4463 
     30 CA         24.8028  -27.4490  -44.6105 C.3       4 UNK         0.0283 
     31 CB         25.4210  -28.8431  -44.8059 C.3       4 UNK        -0.1875 
     32 C          24.9149  -27.0212  -43.1353 C.2       4 UNK         0.4949 
     33 O          25.9640  -26.5105  -42.7418 O.2       4 UNK        -0.5039 
     34 N          23.8485  -27.2482  -42.3510 N.am      5 UNK        -0.4663 
     35 CA         23.6523  -26.9337  -40.9277 C.3       5 UNK         0.0242 
     36 CB         23.7155  -25.4157  -40.6721 C.3       5 UNK        -0.1982 
     37 C          24.5765  -27.7057  -39.9706 C.2       5 UNK         0.5017 
     38 O          24.0809  -28.3815  -39.0689 O.2       5 UNK        -0.5012 
     39 N          25.8931  -27.6342  -40.2041 N.am      6 UNK        -0.4439 
     40 CA         26.9483  -28.3106  -39.4399 C.3       6 UNK         0.0297 
     41 CB         28.3182  -27.8154  -39.9300 C.3       6 UNK        -0.2006 
     42 C          26.8783  -29.8481  -39.5029 C.2       6 UNK         0.4892 
     43 O          27.3871  -30.5140  -38.6012 O.2       6 UNK        -0.5089 
     44 N          26.2286  -30.3787  -40.5481 N.am      7 UNK        -0.4243 
     45 CA         25.9170  -31.7983  -40.7207 C.3       7 UNK         0.0196 
     46 CB         25.5472  -32.0431  -42.1938 C.3       7 UNK        -0.2007 
     47 C          24.7879  -32.2997  -39.7982 C.2       7 UNK         0.5020 
     48 O          24.5774  -33.5108  -39.7294 O.2       7 UNK        -0.5147 
     49 N          24.0515  -31.3813  -39.1475 N.am      8 UNK        -0.4734 
     50 CA         22.9149  -31.6260  -38.2444 C.3       8 UNK         0.0238 
     51 CB         23.3967  -32.2983  -36.9413 C.3       8 UNK        -0.1912 
     52 C          21.7484  -32.3884  -38.9078 C.2       8 UNK         0.5038 
     53 O          21.0129  -33.1035  -38.2250 O.2       8 UNK        -0.5046 
     54 N          21.6138  -32.2271  -40.2314 N.am      9 UNK        -0.4200 
     55 CA         20.6895  -32.9596  -41.1087 C.3       9 UNK         0.0839 
     56 C          21.0232  -34.4755  -41.2821 C.2       9 UNK         0.5513 
     57 N          22.2134  -34.9414  -40.9186 N.am      9 UNK        -0.7519 
     58 O          20.2044  -35.2436  -41.7799 O.2       9 UNK        -0.4960 
     59 C59        19.1953  -32.6791  -40.7647 C.3       10 UNK        -0.0876 
     60 S60        18.1673  -32.4904  -42.2586 S.3       10 UNK        -0.2414 
     61 C61        18.2083  -30.6846  -42.4548 C.3       10 UNK         0.0169 
     62 H62        16.5106  -22.7777  -46.6207 H         1 UNK         0.0903 
     63 H63        15.2925  -22.6382  -45.3513 H         1 UNK         0.0903 
     64 H64        16.9670  -22.1887  -45.0201 H         1 UNK         0.0903 
     65 H65        14.7620  -24.6144  -44.4481 H         1 UNK         0.3096 
     66 H66        16.2576  -26.9808  -44.8830 H         1 UNK         0.1121 
     67 H67        13.7648  -26.3448  -43.2682 H         1 UNK         0.0849 
     68 H68        14.5374  -27.8836  -43.0336 H         1 UNK         0.0849 
     69 H69        13.6170  -29.9443  -44.3629 H         1 UNK         0.0865 
     70 H70        13.7587  -29.9661  -46.0994 H         1 UNK         0.0865 
     71 H71        15.5829  -30.2442  -43.0187 H         1 UNK         0.1346 
     72 H72        19.4725  -30.2035  -44.8140 H         1 UNK         0.1412 
     73 H73        16.0244  -29.1632  -47.1478 H         1 UNK         0.1426 
     74 H74        19.5683  -30.1476  -47.3244 H         1 UNK         0.0716 
     75 H75        18.1660  -29.6646  -48.2361 H         1 UNK         0.0716 
     76 H76        21.7214  -27.9266  -47.3466 H         1 UNK         0.0695 
     77 H77        21.0062  -28.7372  -45.9710 H         1 UNK         0.0695 
     78 H78        20.9576  -25.6984  -46.3217 H         1 UNK         0.0983 
     79 H79        19.5763  -25.7959  -44.6272 H         1 UNK         0.3095 
     80 H80        19.1554  -27.8578  -41.7476 H         1 UNK         0.0454 
     81 H81        18.7964  -25.5962  -40.7881 H         1 UNK         0.0851 
     82 H82        20.4991  -25.7610  -41.1503 H         1 UNK         0.0851 
     83 H83        19.4678  -24.8254  -42.2241 H         1 UNK         0.0851 
     84 H84        18.1228  -27.2130  -44.1634 H         1 UNK         0.2976 
     85 H85        22.9891  -28.3581  -45.2346 H         1 UNK         0.3116 
     86 H86        25.3766  -26.7338  -45.2039 H         1 UNK         0.0646 
     87 H87        25.4354  -29.1270  -45.8583 H         1 UNK         0.0847 
     88 H88        26.4534  -28.8661  -44.4534 H         1 UNK         0.0847 
     89 H89        24.8728  -29.6104  -44.2584 H         1 UNK         0.0847 
     90 H90        23.0407  -27.6825  -42.7912 H         1 UNK         0.3040 
     91 H91        22.6356  -27.2574  -40.6972 H         1 UNK         0.1015 
     92 H92        24.7055  -25.0052  -40.8725 H         1 UNK         0.0786 
     93 H93        23.4738  -25.1857  -39.6335 H         1 UNK         0.0786 
     94 H94        23.0009  -24.8805  -41.2976 H         1 UNK         0.0786 
     95 H95        26.1795  -27.0919  -41.0180 H         1 UNK         0.3172 
     96 H96        26.8329  -28.0230  -38.3929 H         1 UNK         0.0595 
     97 H97        28.4780  -28.0480  -40.9838 H         1 UNK         0.0839 
     98 H98        29.1278  -28.2811  -39.3661 H         1 UNK         0.0839 
     99 H99        28.4183  -26.7369  -39.8058 H         1 UNK         0.0839 
    100 H100       25.8612  -29.7449  -41.2419 H         1 UNK         0.2998 
    101 H101       26.8113  -32.3797  -40.4863 H         1 UNK         0.0822 
    102 H102       25.3548  -33.1012  -42.3782 H         1 UNK         0.0787 
    103 H103       24.6495  -31.4950  -42.4826 H         1 UNK         0.0787 
    104 H104       26.3548  -31.7431  -42.8620 H         1 UNK         0.0787 
    105 H105       24.2898  -30.4015  -39.2675 H         1 UNK         0.3055 
    106 H106       22.5174  -30.6441  -37.9814 H         1 UNK         0.1106 
    107 H107       22.5918  -32.3556  -36.2075 H         1 UNK         0.0828 
    108 H108       23.7487  -33.3154  -37.1171 H         1 UNK         0.0828 
    109 H109       24.2104  -31.7362  -36.4830 H         1 UNK         0.0828 
    110 H110       22.2753  -31.6255  -40.6989 H         1 UNK         0.2931 
    111 H111       20.8914  -32.5296  -42.0906 H         1 UNK         0.0412 
    112 H112       22.4135  -35.9206  -41.0472 H         1 UNK         0.3472 
    113 H113       22.9144  -34.3389  -40.5006 H         1 UNK         0.3472 
    114 H114       18.7791  -33.4711  -40.1393 H         1 UNK         0.0970 
    115 H115       19.0975  -31.7685  -40.1716 H         1 UNK         0.0970 
    116 H116       17.6757  -30.2142  -41.6267 H         1 UNK         0.0612 
    117 H117       19.2417  -30.3381  -42.3970 H         1 UNK         0.0612 
@<TRIPOS>BOND
     1    1    2 1    
     2    1   62 1    
     3    1   63 1    
     4    1   64 1    
     5    2    3 2    
     6    2    4 am   BACKBONE|DICT|INTERRES
     7    4    5 1    
     8    4   65 1    
     9    5    6 1    
    10    5   25 1    
    11    5   66 1    
    12    6    7 1    
    13    6   67 1    
    14    6   68 1    
    15    7    8 1    
    16    8    9 1    
    17    8   69 1    
    18    8   70 1    
    19    9   10 ar   
    20    9   14 ar   
    21   10   11 ar   
    22   10   71 1    
    23   11   12 ar   
    24   11   61 1    
    25   12   13 ar   
    26   12   72 1    
    27   13   14 ar   
    28   13   15 1    
    29   14   73 1    
    30   15   16 1    
    31   15   74 1    
    32   15   75 1    
    33   16   17 1    
    34   17   18 1    
    35   17   76 1    
    36   17   77 1    
    37   18   19 1    
    38   18   27 1    
    39   18   78 1    
    40   19   20 am   BACKBONE|DICT|INTERRES
    41   19   79 1    
    42   20   21 2    
    43   20   22 1    
    44   22   23 1    
    45   22   24 1    
    46   22   80 1    
    47   23   81 1    
    48   23   82 1    
    49   23   83 1    
    50   24   25 am   BACKBONE|DICT|INTERRES
    51   24   84 1    
    52   25   26 2    
    53   27   28 2    
    54   27   29 am   BACKBONE|DICT|INTERRES
    55   29   30 1    
    56   29   85 1    
    57   30   31 1    
    58   30   32 1    
    59   30   86 1    
    60   31   87 1    
    61   31   88 1    
    62   31   89 1    
    63   32   33 2    
    64   32   34 am   BACKBONE|DICT|INTERRES
    65   34   35 1    
    66   34   90 1    
    67   35   36 1    
    68   35   37 1    
    69   35   91 1    
    70   36   92 1    
    71   36   93 1    
    72   36   94 1    
    73   37   38 2    
    74   37   39 am   BACKBONE|DICT|INTERRES
    75   39   40 1    
    76   39   95 1    
    77   40   41 1    
    78   40   42 1    
    79   40   96 1    
    80   41   97 1    
    81   41   98 1    
    82   41   99 1    
    83   42   43 2    
    84   42   44 am   BACKBONE|DICT|INTERRES
    85   44   45 1    
    86   44  100 1    
    87   45   46 1    
    88   45   47 1    
    89   45  101 1    
    90   46  102 1    
    91   46  103 1    
    92   46  104 1    
    93   47   48 2    
    94   47   49 am   BACKBONE|DICT|INTERRES
    95   49   50 1    
    96   49  105 1    
    97   50   51 1    
    98   50   52 1    
    99   50  106 1    
   100   51  107 1    
   101   51  108 1    
   102   51  109 1    
   103   52   53 2    
   104   52   54 am   BACKBONE|DICT|INTERRES
   105   54   55 1    
   106   54  110 1    
   107   55   56 1    
   108   55   59 1    
   109   55  111 1    
   110   56   57 am   BACKBONE|DICT|INTERRES
   111   56   58 2    
   112   57  112 1    
   113   57  113 1    
   114   59   60 1    
   115   59  114 1    
   116   59  115 1    
   117   60   61 1    
   118   61  116 1    
   119   61  117 1    
@<TRIPOS>SUBSTRUCTURE
     1 UNK         1 GROUP             0       ****    0 ROOT    
