@<TRIPOS>MOLECULE
3R8
117   119    1
SMALL
USER_CHARGES


@<TRIPOS>ATOM
      1 CA         18.6962  -25.4905  -49.3643 C.3       0 UNK        -0.2013 
      2 C          17.2483  -25.5593  -48.8846 C.2       0 UNK         0.4866 
      3 O          16.4040  -24.8461  -49.4229 O.2       0 UNK        -0.5176 
      4 N          16.8989  -26.3958  -47.8959 N.am      1 UNK        -0.4884 
      5 CA         17.7722  -27.2627  -47.0918 C.3       1 UNK         0.0853 
      6 C6         16.9575  -28.2703  -46.2360 C.3       10 UNK        -0.0849 
      7 S7         15.6231  -27.4986  -45.2499 S.3       10 UNK        -0.2776 
      8 C8         15.0261  -28.9105  -44.2688 C.3       10 UNK         0.0316 
      9 C9         15.9887  -29.2667  -43.1457 C.ar      10 UNK        -0.0863 
     10 C10        16.7237  -30.4541  -43.1892 C.ar      10 UNK        -0.1009 
     11 C11        17.5978  -30.7858  -42.1495 C.ar      10 UNK        -0.0712 
     12 C12        17.7439  -29.9155  -41.0642 C.ar      10 UNK        -0.0894 
     13 C13        17.0165  -28.7213  -41.0133 C.ar      10 UNK        -0.0745 
     14 C14        16.1319  -28.4109  -42.0507 C.ar      10 UNK        -0.0972 
     15 C15        17.1773  -27.7614  -39.8426 C.3       10 UNK         0.0209 
     16 S16        17.8383  -26.1478  -40.3737 S.3       10 UNK        -0.2568 
     17 C17        19.6038  -26.5245  -40.6352 C.3       10 UNK        -0.0983 
     18 CA         19.9346  -27.0705  -42.0509 C.3       3 UNK         0.0876 
     19 N          19.4072  -26.2581  -43.1582 N.am      3 UNK        -0.4424 
     20 C          19.6951  -24.9958  -43.5006 C.2       2 UNK         0.4918 
     21 O          20.4942  -24.2918  -42.8810 O.2       2 UNK        -0.4875 
     22 CA         18.9941  -24.4170  -44.7506 C.3       2 UNK         0.0481 
     23 CB         19.9701  -23.5960  -45.6192 C.3       2 UNK        -0.1831 
     24 N          18.2712  -25.3939  -45.5813 N.am      2 UNK        -0.4498 
     25 C          18.7680  -26.4598  -46.2302 C.2       1 UNK         0.5027 
     26 O          19.9483  -26.8055  -46.1905 O.2       1 UNK        -0.4969 
     27 C          21.4400  -27.4008  -42.1478 C.2       3 UNK         0.5005 
     28 O          21.8266  -28.5115  -41.7827 O.2       3 UNK        -0.5279 
     29 N          22.2692  -26.4381  -42.5802 N.am      4 UNK        -0.4463 
     30 CA         23.7350  -26.4932  -42.6804 C.3       4 UNK         0.0283 
     31 CB         24.1606  -27.4424  -43.8184 C.3       4 UNK        -0.1875 
     32 C          24.3995  -26.8453  -41.3346 C.2       4 UNK         0.4949 
     33 O          25.2911  -27.6933  -41.2851 O.2       4 UNK        -0.5039 
     34 N          23.8844  -26.2417  -40.2509 N.am      5 UNK        -0.4663 
     35 CA         24.2325  -26.4926  -38.8425 C.3       5 UNK         0.0242 
     36 CB         25.6656  -25.9996  -38.5476 C.3       5 UNK        -0.1982 
     37 C          24.0133  -27.9552  -38.3918 C.2       5 UNK         0.5017 
     38 O          24.6351  -28.3890  -37.4214 O.2       5 UNK        -0.5012 
     39 N          23.1563  -28.6904  -39.1196 N.am      6 UNK        -0.4439 
     40 CA         22.8841  -30.1277  -39.0198 C.3       6 UNK         0.0297 
     41 CB         22.3151  -30.5075  -37.6369 C.3       6 UNK        -0.2006 
     42 C          24.0717  -31.0191  -39.4375 C.2       6 UNK         0.4892 
     43 O          24.0141  -32.2282  -39.2142 O.2       6 UNK        -0.5089 
     44 N          25.1086  -30.4504  -40.0716 N.am      7 UNK        -0.4243 
     45 CA         26.2669  -31.2018  -40.5635 C.3       7 UNK         0.0196 
     46 CB         27.4280  -30.2340  -40.8418 C.3       7 UNK        -0.2007 
     47 C          25.9422  -32.0301  -41.8176 C.2       7 UNK         0.5020 
     48 O          26.5597  -33.0740  -42.0288 O.2       7 UNK        -0.5147 
     49 N          24.9874  -31.5519  -42.6267 N.am      8 UNK        -0.4734 
     50 CA         24.5706  -32.1946  -43.8737 C.3       8 UNK         0.0238 
     51 CB         23.9915  -31.1293  -44.8195 C.3       8 UNK        -0.1912 
     52 C          23.5486  -33.3252  -43.6744 C.2       8 UNK         0.5038 
     53 O          23.4822  -34.2128  -44.5265 O.2       8 UNK        -0.5046 
     54 N          22.7461  -33.2621  -42.6032 N.am      9 UNK        -0.4200 
     55 CA         21.5534  -34.1088  -42.4326 C.3       9 UNK         0.0839 
     56 C          21.1004  -34.3454  -40.9647 C.2       9 UNK         0.5513 
     57 N          21.8301  -33.9157  -39.9448 N.am      9 UNK        -0.7519 
     58 O          20.0642  -34.9645  -40.7372 O.2       9 UNK        -0.4960 
     59 C59        20.3879  -33.6673  -43.3655 C.3       10 UNK        -0.0876 
     60 S60        19.8968  -31.9162  -43.1695 S.3       10 UNK        -0.2414 
     61 C61        18.3696  -32.0937  -42.2012 C.3       10 UNK         0.0169 
     62 H62        19.2969  -24.8860  -48.6854 H         1 UNK         0.0903 
     63 H63        19.1458  -26.4787  -49.4484 H         1 UNK         0.0903 
     64 H64        18.7453  -25.0285  -50.3502 H         1 UNK         0.0903 
     65 H65        15.9282  -26.4161  -47.6136 H         1 UNK         0.3096 
     66 H66        18.3722  -27.8574  -47.7835 H         1 UNK         0.1121 
     67 H67        17.6156  -28.8398  -45.5761 H         1 UNK         0.0849 
     68 H68        16.4959  -29.0078  -46.8947 H         1 UNK         0.0849 
     69 H69        14.0566  -28.6551  -43.8382 H         1 UNK         0.0865 
     70 H70        14.8511  -29.7647  -44.9250 H         1 UNK         0.0865 
     71 H71        16.6157  -31.1253  -44.0306 H         1 UNK         0.1346 
     72 H72        18.4271  -30.1670  -40.2643 H         1 UNK         0.1412 
     73 H73        15.5662  -27.4894  -42.0142 H         1 UNK         0.1426 
     74 H74        17.8176  -28.1841  -39.0667 H         1 UNK         0.0716 
     75 H75        16.2012  -27.6045  -39.3817 H         1 UNK         0.0716 
     76 H76        19.9232  -27.2324  -39.8675 H         1 UNK         0.0695 
     77 H77        20.1616  -25.6059  -40.4447 H         1 UNK         0.0695 
     78 H78        19.4328  -28.0312  -42.1599 H         1 UNK         0.0983 
     79 H79        18.7442  -26.7391  -43.7475 H         1 UNK         0.3095 
     80 H80        18.2350  -23.7314  -44.3720 H         1 UNK         0.0454 
     81 H81        20.7950  -24.2059  -45.9888 H         1 UNK         0.0851 
     82 H82        20.4055  -22.7723  -45.0522 H         1 UNK         0.0851 
     83 H83        19.4641  -23.1587  -46.4798 H         1 UNK         0.0851 
     84 H84        17.2772  -25.2301  -45.6741 H         1 UNK         0.2976 
     85 H85        21.8379  -25.5421  -42.8000 H         1 UNK         0.3116 
     86 H86        24.0706  -25.4880  -42.9391 H         1 UNK         0.0646 
     87 H87        23.6902  -27.1684  -44.7627 H         1 UNK         0.0847 
     88 H88        25.2400  -27.4136  -43.9715 H         1 UNK         0.0847 
     89 H89        23.8910  -28.4741  -43.5963 H         1 UNK         0.0847 
     90 H90        23.1434  -25.5707  -40.4028 H         1 UNK         0.3040 
     91 H91        23.5461  -25.8918  -38.2434 H         1 UNK         0.1015 
     92 H92        26.4151  -26.6061  -39.0573 H         1 UNK         0.0786 
     93 H93        25.8849  -26.0428  -37.4800 H         1 UNK         0.0786 
     94 H94        25.8019  -24.9647  -38.8613 H         1 UNK         0.0786 
     95 H95        22.7387  -28.2535  -39.9348 H         1 UNK         0.3172 
     96 H96        22.1006  -30.3267  -39.7524 H         1 UNK         0.0595 
     97 H97        23.0669  -30.4303  -36.8512 H         1 UNK         0.0839 
     98 H98        21.9528  -31.5362  -37.6344 H         1 UNK         0.0839 
     99 H99        21.4745  -29.8698  -37.3639 H         1 UNK         0.0839 
    100 H100       25.0934  -29.4537  -40.2660 H         1 UNK         0.2998 
    101 H101       26.5845  -31.8947  -39.7810 H         1 UNK         0.0822 
    102 H102       28.3273  -30.7790  -41.1316 H         1 UNK         0.0787 
    103 H103       27.1929  -29.5421  -41.6514 H         1 UNK         0.0787 
    104 H104       27.6751  -29.6447  -39.9585 H         1 UNK         0.0787 
    105 H105       24.5407  -30.6800  -42.3804 H         1 UNK         0.3055 
    106 H106       25.4482  -32.6321  -44.3559 H         1 UNK         0.1106 
    107 H107       23.7028  -31.5715  -45.7742 H         1 UNK         0.0828 
    108 H108       23.1017  -30.6566  -44.4006 H         1 UNK         0.0828 
    109 H109       24.7223  -30.3500  -45.0359 H         1 UNK         0.0828 
    110 H110       22.8568  -32.5068  -41.9444 H         1 UNK         0.2931 
    111 H111       21.8409  -35.1123  -42.7524 H         1 UNK         0.0412 
    112 H112       21.4962  -34.1088  -39.0143 H         1 UNK         0.3472 
    113 H113       22.7131  -33.4306  -40.0484 H         1 UNK         0.3472 
    114 H114       20.6896  -33.8016  -44.4052 H         1 UNK         0.0970 
    115 H115       19.5211  -34.3191  -43.2440 H         1 UNK         0.0970 
    116 H116       17.7410  -32.8680  -42.6435 H         1 UNK         0.0612 
    117 H117       18.6169  -32.4324  -41.1940 H         1 UNK         0.0612 
@<TRIPOS>BOND
     1    1    2 1    
     2    1   62 1    
     3    1   63 1    
     4    1   64 1    
     5    2    3 2    
     6    2    4 am   BACKBONE|DICT|INTERRES
     7    4    5 1    
     8    4   65 1    
     9    5    6 1    
    10    5   25 1    
    11    5   66 1    
    12    6    7 1    
    13    6   67 1    
    14    6   68 1    
    15    7    8 1    
    16    8    9 1    
    17    8   69 1    
    18    8   70 1    
    19    9   10 ar   
    20    9   14 ar   
    21   10   11 ar   
    22   10   71 1    
    23   11   12 ar   
    24   11   61 1    
    25   12   13 ar   
    26   12   72 1    
    27   13   14 ar   
    28   13   15 1    
    29   14   73 1    
    30   15   16 1    
    31   15   74 1    
    32   15   75 1    
    33   16   17 1    
    34   17   18 1    
    35   17   76 1    
    36   17   77 1    
    37   18   19 1    
    38   18   27 1    
    39   18   78 1    
    40   19   20 am   BACKBONE|DICT|INTERRES
    41   19   79 1    
    42   20   21 2    
    43   20   22 1    
    44   22   23 1    
    45   22   24 1    
    46   22   80 1    
    47   23   81 1    
    48   23   82 1    
    49   23   83 1    
    50   24   25 am   BACKBONE|DICT|INTERRES
    51   24   84 1    
    52   25   26 2    
    53   27   28 2    
    54   27   29 am   BACKBONE|DICT|INTERRES
    55   29   30 1    
    56   29   85 1    
    57   30   31 1    
    58   30   32 1    
    59   30   86 1    
    60   31   87 1    
    61   31   88 1    
    62   31   89 1    
    63   32   33 2    
    64   32   34 am   BACKBONE|DICT|INTERRES
    65   34   35 1    
    66   34   90 1    
    67   35   36 1    
    68   35   37 1    
    69   35   91 1    
    70   36   92 1    
    71   36   93 1    
    72   36   94 1    
    73   37   38 2    
    74   37   39 am   BACKBONE|DICT|INTERRES
    75   39   40 1    
    76   39   95 1    
    77   40   41 1    
    78   40   42 1    
    79   40   96 1    
    80   41   97 1    
    81   41   98 1    
    82   41   99 1    
    83   42   43 2    
    84   42   44 am   BACKBONE|DICT|INTERRES
    85   44   45 1    
    86   44  100 1    
    87   45   46 1    
    88   45   47 1    
    89   45  101 1    
    90   46  102 1    
    91   46  103 1    
    92   46  104 1    
    93   47   48 2    
    94   47   49 am   BACKBONE|DICT|INTERRES
    95   49   50 1    
    96   49  105 1    
    97   50   51 1    
    98   50   52 1    
    99   50  106 1    
   100   51  107 1    
   101   51  108 1    
   102   51  109 1    
   103   52   53 2    
   104   52   54 am   BACKBONE|DICT|INTERRES
   105   54   55 1    
   106   54  110 1    
   107   55   56 1    
   108   55   59 1    
   109   55  111 1    
   110   56   57 am   BACKBONE|DICT|INTERRES
   111   56   58 2    
   112   57  112 1    
   113   57  113 1    
   114   59   60 1    
   115   59  114 1    
   116   59  115 1    
   117   60   61 1    
   118   61  116 1    
   119   61  117 1    
@<TRIPOS>SUBSTRUCTURE
     1 UNK         1 GROUP             0       ****    0 ROOT    
