@<TRIPOS>MOLECULE
3R8
117   119    1
SMALL
USER_CHARGES


@<TRIPOS>ATOM
      1 CA         17.3628  -25.6150  -38.1759 C.3       0 UNK        -0.2013 
      2 C          17.6318  -25.3607  -39.6515 C.2       0 UNK         0.4866 
      3 O          18.2149  -24.3342  -40.0014 O.2       0 UNK        -0.5176 
      4 N          17.2058  -26.2837  -40.5227 N.am      1 UNK        -0.4884 
      5 CA         17.4965  -26.2588  -41.9562 C.3       1 UNK         0.0853 
      6 C6         16.3589  -26.9185  -42.7773 C.3       10 UNK        -0.0849 
      7 S7         16.4374  -26.4803  -44.5493 S.3       10 UNK        -0.2776 
      8 C8         15.4355  -27.7963  -45.3180 C.3       10 UNK         0.0316 
      9 C9         16.2053  -29.1045  -45.4351 C.ar      10 UNK        -0.0863 
     10 C10        16.0847  -30.0821  -44.4436 C.ar      10 UNK        -0.1009 
     11 C11        16.8237  -31.2646  -44.5197 C.ar      10 UNK        -0.0712 
     12 C12        17.6617  -31.4849  -45.6152 C.ar      10 UNK        -0.0894 
     13 C13        17.7799  -30.5239  -46.6229 C.ar      10 UNK        -0.0745 
     14 C14        17.0449  -29.3364  -46.5307 C.ar      10 UNK        -0.0972 
     15 C15        18.7304  -30.7650  -47.7896 C.3       10 UNK         0.0209 
     16 S16        20.1545  -29.6236  -47.8017 S.3       10 UNK        -0.2568 
     17 C17        20.6639  -29.6039  -46.0515 C.3       10 UNK        -0.0983 
     18 CA         21.9508  -28.7556  -45.8282 C.3       3 UNK         0.0876 
     19 N          21.9682  -28.1286  -44.5082 N.am      3 UNK        -0.4424 
     20 C          21.2351  -27.0587  -44.1932 C.2       2 UNK         0.4918 
     21 O          20.5610  -26.4244  -45.0091 O.2       2 UNK        -0.4875 
     22 CA         21.2521  -26.6106  -42.7232 C.3       2 UNK         0.0481 
     23 CB         22.2701  -25.4794  -42.5158 C.3       2 UNK        -0.1831 
     24 N          19.9208  -26.1429  -42.3305 N.am      2 UNK        -0.4498 
     25 C          18.8582  -26.9435  -42.1715 C.2       1 UNK         0.5027 
     26 O          18.9280  -28.1739  -42.1384 O.2       1 UNK        -0.4969 
     27 C          23.2868  -29.4895  -46.0275 C.2       3 UNK         0.5005 
     28 O          24.3317  -28.8356  -46.0113 O.2       3 UNK        -0.5279 
     29 N          23.2514  -30.8219  -46.1830 N.am      4 UNK        -0.4463 
     30 CA         24.4281  -31.6974  -46.2569 C.3       4 UNK         0.0283 
     31 CB         23.9772  -33.1254  -46.6037 C.3       4 UNK        -0.1875 
     32 C          25.2743  -31.6972  -44.9683 C.2       4 UNK         0.4949 
     33 O          26.4821  -31.9253  -45.0402 O.2       4 UNK        -0.5039 
     34 N          24.6306  -31.4138  -43.8297 N.am      5 UNK        -0.4663 
     35 CA         25.2668  -31.0860  -42.5582 C.3       5 UNK         0.0242 
     36 CB         24.7259  -32.0185  -41.4634 C.3       5 UNK        -0.1982 
     37 C          24.9585  -29.6176  -42.2304 C.2       5 UNK         0.5017 
     38 O          23.8749  -29.1267  -42.5688 O.2       5 UNK        -0.5012 
     39 N          25.9232  -28.9496  -41.5867 N.am      6 UNK        -0.4439 
     40 CA         25.8292  -27.5582  -41.1439 C.3       6 UNK         0.0297 
     41 CB         27.2454  -27.0244  -40.8719 C.3       6 UNK        -0.2006 
     42 C          24.9552  -27.4226  -39.8874 C.2       6 UNK         0.4892 
     43 O          24.8366  -28.3768  -39.1162 O.2       6 UNK        -0.5089 
     44 N          24.3797  -26.2264  -39.7030 N.am      7 UNK        -0.4243 
     45 CA         23.4597  -25.8004  -38.6350 C.3       7 UNK         0.0196 
     46 CB         24.0875  -25.9472  -37.2346 C.3       7 UNK        -0.2007 
     47 C          22.0699  -26.4600  -38.6996 C.2       7 UNK         0.5020 
     48 O          21.0693  -25.7535  -38.5898 O.2       7 UNK        -0.5147 
     49 N          22.0214  -27.7779  -38.9036 N.am      8 UNK        -0.4734 
     50 CA         20.8159  -28.5618  -39.1425 C.3       8 UNK         0.0238 
     51 CB         20.1036  -28.8758  -37.8144 C.3       8 UNK        -0.1912 
     52 C          21.2159  -29.8471  -39.8734 C.2       8 UNK         0.5038 
     53 O          22.2952  -30.3794  -39.6096 O.2       8 UNK        -0.5046 
     54 N          20.3319  -30.3309  -40.7513 N.am      9 UNK        -0.4200 
     55 CA         20.4951  -31.5521  -41.5554 C.3       9 UNK         0.0839 
     56 C          20.6538  -32.8892  -40.7701 C.2       9 UNK         0.5513 
     57 N          20.3348  -32.9514  -39.4829 N.am      9 UNK        -0.7519 
     58 O          21.0805  -33.8869  -41.3452 O.2       9 UNK        -0.4960 
     59 C59        19.3884  -31.6532  -42.6359 C.3       10 UNK        -0.0876 
     60 S60        17.6967  -31.7437  -41.9439 S.3       10 UNK        -0.2414 
     61 C61        16.7451  -32.2865  -43.3970 C.3       10 UNK         0.0169 
     62 H62        16.7554  -24.8115  -37.7602 H         1 UNK         0.0903 
     63 H63        16.8402  -26.5571  -38.0113 H         1 UNK         0.0903 
     64 H64        18.3044  -25.6498  -37.6280 H         1 UNK         0.0903 
     65 H65        16.7503  -27.1193  -40.1829 H         1 UNK         0.3096 
     66 H66        17.5727  -25.2189  -42.2835 H         1 UNK         0.1121 
     67 H67        15.3906  -26.5772  -42.4079 H         1 UNK         0.0849 
     68 H68        16.3624  -28.0009  -42.6492 H         1 UNK         0.0849 
     69 H69        15.1265  -27.4667  -46.3112 H         1 UNK         0.0865 
     70 H70        14.5155  -27.9390  -44.7487 H         1 UNK         0.0865 
     71 H71        15.4389  -29.9140  -43.5929 H         1 UNK         0.1346 
     72 H72        18.2395  -32.3973  -45.6712 H         1 UNK         0.1412 
     73 H73        17.1496  -28.5821  -47.2988 H         1 UNK         0.1426 
     74 H74        18.1834  -30.6578  -48.7272 H         1 UNK         0.0716 
     75 H75        19.1078  -31.7886  -47.7732 H         1 UNK         0.0716 
     76 H76        20.7373  -30.6174  -45.6557 H         1 UNK         0.0695 
     77 H77        19.8350  -29.1524  -45.5038 H         1 UNK         0.0695 
     78 H78        21.9618  -27.9480  -46.5642 H         1 UNK         0.0983 
     79 H79        22.5908  -28.5416  -43.8147 H         1 UNK         0.3095 
     80 H80        21.5301  -27.4549  -42.0884 H         1 UNK         0.0454 
     81 H81        22.0631  -24.6262  -43.1632 H         1 UNK         0.0851 
     82 H82        23.2801  -25.8221  -42.7427 H         1 UNK         0.0851 
     83 H83        22.2659  -25.1246  -41.4859 H         1 UNK         0.0851 
     84 H84        19.7808  -25.1429  -42.3136 H         1 UNK         0.2976 
     85 H85        22.3491  -31.2731  -46.2286 H         1 UNK         0.3116 
     86 H86        25.0637  -31.3319  -47.0663 H         1 UNK         0.0646 
     87 H87        23.3218  -33.5410  -45.8373 H         1 UNK         0.0847 
     88 H88        24.8353  -33.7931  -46.6939 H         1 UNK         0.0847 
     89 H89        23.4458  -33.1556  -47.5551 H         1 UNK         0.0847 
     90 H90        23.6495  -31.1839  -43.8884 H         1 UNK         0.3040 
     91 H91        26.3497  -31.2133  -42.6262 H         1 UNK         0.1015 
     92 H92        23.6439  -31.9411  -41.3644 H         1 UNK         0.0786 
     93 H93        25.1571  -31.7740  -40.4916 H         1 UNK         0.0786 
     94 H94        24.9674  -33.0600  -41.6757 H         1 UNK         0.0786 
     95 H95        26.7536  -29.4504  -41.3054 H         1 UNK         0.3172 
     96 H96        25.3828  -26.9703  -41.9487 H         1 UNK         0.0595 
     97 H97        27.2202  -25.9749  -40.5754 H         1 UNK         0.0839 
     98 H98        27.8732  -27.0912  -41.7608 H         1 UNK         0.0839 
     99 H99        27.7383  -27.5757  -40.0698 H         1 UNK         0.0839 
    100 H100       24.5630  -25.5178  -40.3998 H         1 UNK         0.2998 
    101 H101       23.3000  -24.7337  -38.8027 H         1 UNK         0.0822 
    102 H102       23.4391  -25.5114  -36.4734 H         1 UNK         0.0787 
    103 H103       24.2454  -26.9908  -36.9616 H         1 UNK         0.0787 
    104 H104       25.0479  -25.4352  -37.1747 H         1 UNK         0.0787 
    105 H105       22.8971  -28.2930  -38.9906 H         1 UNK         0.3055 
    106 H106       20.1464  -27.9835  -39.7801 H         1 UNK         0.1106 
    107 H107       19.2041  -29.4687  -37.9839 H         1 UNK         0.0828 
    108 H108       20.7471  -29.4401  -37.1384 H         1 UNK         0.0828 
    109 H109       19.7963  -27.9645  -37.3013 H         1 UNK         0.0828 
    110 H110       19.4985  -29.7919  -40.9583 H         1 UNK         0.2931 
    111 H111       21.4362  -31.4205  -42.0922 H         1 UNK         0.0412 
    112 H112       19.9870  -32.1359  -39.0059 H         1 UNK         0.3472 
    113 H113       20.4460  -33.8211  -38.9862 H         1 UNK         0.3472 
    114 H114       19.5617  -32.5162  -43.2815 H         1 UNK         0.0970 
    115 H115       19.4383  -30.7793  -43.2881 H         1 UNK         0.0970 
    116 H116       15.7038  -32.4313  -43.1060 H         1 UNK         0.0612 
    117 H117       17.1115  -33.2596  -43.7276 H         1 UNK         0.0612 
@<TRIPOS>BOND
     1    1    2 1    
     2    1   62 1    
     3    1   63 1    
     4    1   64 1    
     5    2    3 2    
     6    2    4 am   BACKBONE|DICT|INTERRES
     7    4    5 1    
     8    4   65 1    
     9    5    6 1    
    10    5   25 1    
    11    5   66 1    
    12    6    7 1    
    13    6   67 1    
    14    6   68 1    
    15    7    8 1    
    16    8    9 1    
    17    8   69 1    
    18    8   70 1    
    19    9   10 ar   
    20    9   14 ar   
    21   10   11 ar   
    22   10   71 1    
    23   11   12 ar   
    24   11   61 1    
    25   12   13 ar   
    26   12   72 1    
    27   13   14 ar   
    28   13   15 1    
    29   14   73 1    
    30   15   16 1    
    31   15   74 1    
    32   15   75 1    
    33   16   17 1    
    34   17   18 1    
    35   17   76 1    
    36   17   77 1    
    37   18   19 1    
    38   18   27 1    
    39   18   78 1    
    40   19   20 am   BACKBONE|DICT|INTERRES
    41   19   79 1    
    42   20   21 2    
    43   20   22 1    
    44   22   23 1    
    45   22   24 1    
    46   22   80 1    
    47   23   81 1    
    48   23   82 1    
    49   23   83 1    
    50   24   25 am   BACKBONE|DICT|INTERRES
    51   24   84 1    
    52   25   26 2    
    53   27   28 2    
    54   27   29 am   BACKBONE|DICT|INTERRES
    55   29   30 1    
    56   29   85 1    
    57   30   31 1    
    58   30   32 1    
    59   30   86 1    
    60   31   87 1    
    61   31   88 1    
    62   31   89 1    
    63   32   33 2    
    64   32   34 am   BACKBONE|DICT|INTERRES
    65   34   35 1    
    66   34   90 1    
    67   35   36 1    
    68   35   37 1    
    69   35   91 1    
    70   36   92 1    
    71   36   93 1    
    72   36   94 1    
    73   37   38 2    
    74   37   39 am   BACKBONE|DICT|INTERRES
    75   39   40 1    
    76   39   95 1    
    77   40   41 1    
    78   40   42 1    
    79   40   96 1    
    80   41   97 1    
    81   41   98 1    
    82   41   99 1    
    83   42   43 2    
    84   42   44 am   BACKBONE|DICT|INTERRES
    85   44   45 1    
    86   44  100 1    
    87   45   46 1    
    88   45   47 1    
    89   45  101 1    
    90   46  102 1    
    91   46  103 1    
    92   46  104 1    
    93   47   48 2    
    94   47   49 am   BACKBONE|DICT|INTERRES
    95   49   50 1    
    96   49  105 1    
    97   50   51 1    
    98   50   52 1    
    99   50  106 1    
   100   51  107 1    
   101   51  108 1    
   102   51  109 1    
   103   52   53 2    
   104   52   54 am   BACKBONE|DICT|INTERRES
   105   54   55 1    
   106   54  110 1    
   107   55   56 1    
   108   55   59 1    
   109   55  111 1    
   110   56   57 am   BACKBONE|DICT|INTERRES
   111   56   58 2    
   112   57  112 1    
   113   57  113 1    
   114   59   60 1    
   115   59  114 1    
   116   59  115 1    
   117   60   61 1    
   118   61  116 1    
   119   61  117 1    
@<TRIPOS>SUBSTRUCTURE
     1 UNK         1 GROUP             0       ****    0 ROOT    
