@<TRIPOS>MOLECULE
3R8
117   119    1
SMALL
USER_CHARGES


@<TRIPOS>ATOM
      1 CA         15.8378  -23.7694  -39.6895 C.3       0 UNK        -0.2013 
      2 C          16.4638  -24.2281  -40.9982 C.2       0 UNK         0.4866 
      3 O          17.5852  -23.8289  -41.3134 O.2       0 UNK        -0.5176 
      4 N          15.7458  -25.0562  -41.7671 N.am      1 UNK        -0.4884 
      5 CA         16.2230  -25.6532  -43.0172 C.3       1 UNK         0.0853 
      6 C6         15.0437  -26.2061  -43.8522 C.3       10 UNK        -0.0849 
      7 S7         15.5072  -26.5854  -45.5786 S.3       10 UNK        -0.2776 
      8 C8         14.9890  -28.3252  -45.7471 C.3       10 UNK         0.0316 
      9 C9         16.1540  -29.3032  -45.6541 C.ar      10 UNK        -0.0863 
     10 C10        16.4003  -30.0239  -44.4800 C.ar      10 UNK        -0.1009 
     11 C11        17.3958  -31.0091  -44.4447 C.ar      10 UNK        -0.0712 
     12 C12        18.1623  -31.2531  -45.5897 C.ar      10 UNK        -0.0894 
     13 C13        17.9387  -30.5245  -46.7615 C.ar      10 UNK        -0.0745 
     14 C14        16.9360  -29.5513  -46.7852 C.ar      10 UNK        -0.0972 
     15 C15        18.7220  -30.8319  -48.0296 C.3       10 UNK         0.0209 
     16 S16        19.8581  -29.4848  -48.4832 S.3       10 UNK        -0.2568 
     17 C17        21.3156  -29.8294  -47.4448 C.3       10 UNK        -0.0983 
     18 CA         21.5916  -28.6866  -46.4391 C.3       3 UNK         0.0876 
     19 N          20.5832  -28.6352  -45.3746 N.am      3 UNK        -0.4424 
     20 C          20.3276  -27.5488  -44.6379 C.2       2 UNK         0.4918 
     21 O          20.8074  -26.4344  -44.8545 O.2       2 UNK        -0.4875 
     22 CA         19.4148  -27.7499  -43.4291 C.3       2 UNK         0.0481 
     23 CB         20.2316  -27.7113  -42.1235 C.3       2 UNK        -0.1831 
     24 N          18.3853  -26.7206  -43.4386 N.am      2 UNK        -0.4498 
     25 C          17.2578  -26.7548  -42.7208 C.2       1 UNK         0.5027 
     26 O          16.9919  -27.6192  -41.8815 O.2       1 UNK        -0.4969 
     27 C          23.0183  -28.8076  -45.8606 C.2       3 UNK         0.5005 
     28 O          23.9705  -28.3618  -46.5034 O.2       3 UNK        -0.5279 
     29 N          23.1467  -29.4076  -44.6681 N.am      4 UNK        -0.4463 
     30 CA         24.4024  -29.5434  -43.9336 C.3       4 UNK         0.0283 
     31 CB         24.2642  -30.6669  -42.8910 C.3       4 UNK        -0.1875 
     32 C          24.7601  -28.2225  -43.2410 C.2       4 UNK         0.4949 
     33 O          23.9192  -27.6673  -42.5316 O.2       4 UNK        -0.5039 
     34 N          26.0146  -27.7793  -43.3971 N.am      5 UNK        -0.4663 
     35 CA         26.5602  -26.5766  -42.7508 C.3       5 UNK         0.0242 
     36 CB         27.9416  -26.2621  -43.3474 C.3       5 UNK        -0.1982 
     37 C          26.6476  -26.6892  -41.2168 C.2       5 UNK         0.5017 
     38 O          26.6016  -25.6701  -40.5283 O.2       5 UNK        -0.5012 
     39 N          26.7369  -27.9286  -40.7153 N.am      6 UNK        -0.4439 
     40 CA         26.6886  -28.2829  -39.2954 C.3       6 UNK         0.0297 
     41 CB         27.3696  -29.6508  -39.1103 C.3       6 UNK        -0.2006 
     42 C          25.2597  -28.3077  -38.7129 C.2       6 UNK         0.4892 
     43 O          25.1128  -28.6233  -37.5325 O.2       6 UNK        -0.5089 
     44 N          24.2345  -28.0368  -39.5379 N.am      7 UNK        -0.4243 
     45 CA         22.7905  -28.0289  -39.2522 C.3       7 UNK         0.0196 
     46 CB         22.4357  -27.0521  -38.1141 C.3       7 UNK        -0.2007 
     47 C          22.1650  -29.4162  -39.0140 C.2       7 UNK         0.5020 
     48 O          20.9688  -29.5802  -39.2526 O.2       7 UNK        -0.5147 
     49 N          22.9623  -30.4008  -38.5839 N.am      8 UNK        -0.4734 
     50 CA         22.5757  -31.7980  -38.3764 C.3       8 UNK         0.0238 
     51 CB         23.5950  -32.4530  -37.4252 C.3       8 UNK        -0.1912 
     52 C          22.4395  -32.5575  -39.7115 C.2       8 UNK         0.5038 
     53 O          23.2216  -33.4691  -39.9872 O.2       8 UNK        -0.5046 
     54 N          21.4621  -32.1466  -40.5269 N.am      9 UNK        -0.4200 
     55 CA         21.1375  -32.7336  -41.8358 C.3       9 UNK         0.0839 
     56 C          20.4300  -34.1204  -41.7913 C.2       9 UNK         0.5513 
     57 N          19.9951  -34.6125  -40.6374 N.am      9 UNK        -0.7519 
     58 O          20.2832  -34.7649  -42.8264 O.2       9 UNK        -0.4960 
     59 C59        20.3894  -31.7180  -42.7382 C.3       10 UNK        -0.0876 
     60 S60        18.8007  -31.1441  -42.0395 S.3       10 UNK        -0.2414 
     61 C61        17.5882  -31.8583  -43.1931 C.3       10 UNK         0.0169 
     62 H62        16.4596  -24.0763  -38.8489 H         1 UNK         0.0903 
     63 H63        15.7551  -22.6830  -39.6735 H         1 UNK         0.0903 
     64 H64        14.8417  -24.1872  -39.5445 H         1 UNK         0.0903 
     65 H65        14.8456  -25.3790  -41.4414 H         1 UNK         0.3096 
     66 H66        16.7064  -24.8606  -43.5937 H         1 UNK         0.1121 
     67 H67        14.2467  -25.4621  -43.8986 H         1 UNK         0.0849 
     68 H68        14.6038  -27.0788  -43.3658 H         1 UNK         0.0849 
     69 H69        14.2180  -28.5750  -45.0172 H         1 UNK         0.0865 
     70 H70        14.5086  -28.4414  -46.7200 H         1 UNK         0.0865 
     71 H71        15.7944  -29.8440  -43.6022 H         1 UNK         0.1346 
     72 H72        18.9079  -32.0356  -45.5827 H         1 UNK         0.1412 
     73 H73        16.7444  -29.0055  -47.6995 H         1 UNK         0.1426 
     74 H74        18.0166  -30.9776  -48.8490 H         1 UNK         0.0716 
     75 H75        19.2729  -31.7695  -47.9399 H         1 UNK         0.0716 
     76 H76        22.1591  -29.9551  -48.1270 H         1 UNK         0.0695 
     77 H77        21.2013  -30.7842  -46.9284 H         1 UNK         0.0695 
     78 H78        21.5629  -27.7415  -46.9871 H         1 UNK         0.0983 
     79 H79        20.0694  -29.4853  -45.1947 H         1 UNK         0.3095 
     80 H80        18.9246  -28.7183  -43.5226 H         1 UNK         0.0454 
     81 H81        21.0463  -28.4354  -42.1492 H         1 UNK         0.0851 
     82 H82        19.6177  -27.9558  -41.2566 H         1 UNK         0.0851 
     83 H83        20.6752  -26.7292  -41.9562 H         1 UNK         0.0851 
     84 H84        18.5321  -25.9795  -44.1118 H         1 UNK         0.2976 
     85 H85        22.3089  -29.6911  -44.1878 H         1 UNK         0.3116 
     86 H86        25.1948  -29.8166  -44.6341 H         1 UNK         0.0646 
     87 H87        25.2002  -30.8174  -42.3516 H         1 UNK         0.0847 
     88 H88        23.4970  -30.4435  -42.1481 H         1 UNK         0.0847 
     89 H89        24.0107  -31.6167  -43.3619 H         1 UNK         0.0847 
     90 H90        26.6413  -28.2920  -44.0023 H         1 UNK         0.3040 
     91 H91        25.8903  -25.7430  -42.9746 H         1 UNK         0.1015 
     92 H92        28.3609  -25.3572  -42.9048 H         1 UNK         0.0786 
     93 H93        27.8810  -26.0950  -44.4231 H         1 UNK         0.0786 
     94 H94        28.6526  -27.0704  -43.1712 H         1 UNK         0.0786 
     95 H95        26.7848  -28.6939  -41.3719 H         1 UNK         0.3172 
     96 H96        27.2552  -27.5402  -38.7300 H         1 UNK         0.0595 
     97 H97        26.8338  -30.4448  -39.6322 H         1 UNK         0.0839 
     98 H98        27.4146  -29.9283  -38.0560 H         1 UNK         0.0839 
     99 H99        28.3953  -29.6375  -39.4796 H         1 UNK         0.0839 
    100 H100       24.4572  -27.8247  -40.5044 H         1 UNK         0.2998 
    101 H101       22.3281  -27.6429  -40.1607 H         1 UNK         0.0822 
    102 H102       21.3541  -26.9544  -38.0122 H         1 UNK         0.0787 
    103 H103       22.8199  -27.3879  -37.1506 H         1 UNK         0.0787 
    104 H104       22.8341  -26.0562  -38.3075 H         1 UNK         0.0787 
    105 H105       23.9181  -30.1526  -38.3600 H         1 UNK         0.3055 
    106 H106       21.5990  -31.8226  -37.8875 H         1 UNK         0.1106 
    107 H107       23.6277  -31.9392  -36.4642 H         1 UNK         0.0828 
    108 H108       23.3322  -33.4928  -37.2258 H         1 UNK         0.0828 
    109 H109       24.6026  -32.4450  -37.8432 H         1 UNK         0.0828 
    110 H110       20.8891  -31.3628  -40.2305 H         1 UNK         0.2931 
    111 H111       22.0925  -32.9279  -42.3276 H         1 UNK         0.0412 
    112 H112       20.1022  -34.0869  -39.7853 H         1 UNK         0.3472 
    113 H113       19.5431  -35.5133  -40.6228 H         1 UNK         0.3472 
    114 H114       20.2406  -32.1379  -43.7327 H         1 UNK         0.0970 
    115 H115       21.0164  -30.8397  -42.8844 H         1 UNK         0.0970 
    116 H116       17.8857  -32.8736  -43.4600 H         1 UNK         0.0612 
    117 H117       16.6358  -31.9549  -42.6700 H         1 UNK         0.0612 
@<TRIPOS>BOND
     1    1    2 1    
     2    1   62 1    
     3    1   63 1    
     4    1   64 1    
     5    2    3 2    
     6    2    4 am   BACKBONE|DICT|INTERRES
     7    4    5 1    
     8    4   65 1    
     9    5    6 1    
    10    5   25 1    
    11    5   66 1    
    12    6    7 1    
    13    6   67 1    
    14    6   68 1    
    15    7    8 1    
    16    8    9 1    
    17    8   69 1    
    18    8   70 1    
    19    9   10 ar   
    20    9   14 ar   
    21   10   11 ar   
    22   10   71 1    
    23   11   12 ar   
    24   11   61 1    
    25   12   13 ar   
    26   12   72 1    
    27   13   14 ar   
    28   13   15 1    
    29   14   73 1    
    30   15   16 1    
    31   15   74 1    
    32   15   75 1    
    33   16   17 1    
    34   17   18 1    
    35   17   76 1    
    36   17   77 1    
    37   18   19 1    
    38   18   27 1    
    39   18   78 1    
    40   19   20 am   BACKBONE|DICT|INTERRES
    41   19   79 1    
    42   20   21 2    
    43   20   22 1    
    44   22   23 1    
    45   22   24 1    
    46   22   80 1    
    47   23   81 1    
    48   23   82 1    
    49   23   83 1    
    50   24   25 am   BACKBONE|DICT|INTERRES
    51   24   84 1    
    52   25   26 2    
    53   27   28 2    
    54   27   29 am   BACKBONE|DICT|INTERRES
    55   29   30 1    
    56   29   85 1    
    57   30   31 1    
    58   30   32 1    
    59   30   86 1    
    60   31   87 1    
    61   31   88 1    
    62   31   89 1    
    63   32   33 2    
    64   32   34 am   BACKBONE|DICT|INTERRES
    65   34   35 1    
    66   34   90 1    
    67   35   36 1    
    68   35   37 1    
    69   35   91 1    
    70   36   92 1    
    71   36   93 1    
    72   36   94 1    
    73   37   38 2    
    74   37   39 am   BACKBONE|DICT|INTERRES
    75   39   40 1    
    76   39   95 1    
    77   40   41 1    
    78   40   42 1    
    79   40   96 1    
    80   41   97 1    
    81   41   98 1    
    82   41   99 1    
    83   42   43 2    
    84   42   44 am   BACKBONE|DICT|INTERRES
    85   44   45 1    
    86   44  100 1    
    87   45   46 1    
    88   45   47 1    
    89   45  101 1    
    90   46  102 1    
    91   46  103 1    
    92   46  104 1    
    93   47   48 2    
    94   47   49 am   BACKBONE|DICT|INTERRES
    95   49   50 1    
    96   49  105 1    
    97   50   51 1    
    98   50   52 1    
    99   50  106 1    
   100   51  107 1    
   101   51  108 1    
   102   51  109 1    
   103   52   53 2    
   104   52   54 am   BACKBONE|DICT|INTERRES
   105   54   55 1    
   106   54  110 1    
   107   55   56 1    
   108   55   59 1    
   109   55  111 1    
   110   56   57 am   BACKBONE|DICT|INTERRES
   111   56   58 2    
   112   57  112 1    
   113   57  113 1    
   114   59   60 1    
   115   59  114 1    
   116   59  115 1    
   117   60   61 1    
   118   61  116 1    
   119   61  117 1    
@<TRIPOS>SUBSTRUCTURE
     1 UNK         1 GROUP             0       ****    0 ROOT    
