@<TRIPOS>MOLECULE
3R8
117   119    1
SMALL
USER_CHARGES


@<TRIPOS>ATOM
      1 CA         21.9014  -25.4747  -44.9137 C.3       0 UNK        -0.2013 
      2 C          20.4651  -25.9662  -44.8391 C.2       0 UNK         0.4866 
      3 O          20.1414  -26.7963  -43.9885 O.2       0 UNK        -0.5176 
      4 N          19.5843  -25.4250  -45.6938 N.am      1 UNK        -0.4884 
      5 CA         18.1592  -25.7825  -45.8032 C.3       1 UNK         0.0853 
      6 C6         17.6270  -25.5595  -47.2430 C.3       10 UNK        -0.0849 
      7 S7         16.1930  -26.6045  -47.6858 S.3       10 UNK        -0.2776 
      8 C8         16.9544  -28.2151  -48.0880 C.3       10 UNK         0.0316 
      9 C9         17.2998  -29.0360  -46.8486 C.ar      10 UNK        -0.0863 
     10 C10        18.6158  -29.4536  -46.6211 C.ar      10 UNK        -0.1009 
     11 C11        18.9393  -30.2207  -45.4961 C.ar      10 UNK        -0.0712 
     12 C12        17.9213  -30.5974  -44.6135 C.ar      10 UNK        -0.0894 
     13 C13        16.6169  -30.1362  -44.7925 C.ar      10 UNK        -0.0745 
     14 C14        16.3058  -29.3763  -45.9240 C.ar      10 UNK        -0.0972 
     15 C15        15.5563  -30.4268  -43.7415 C.3       10 UNK         0.0209 
     16 S16        15.3514  -29.0169  -42.6017 S.3       10 UNK        -0.2568 
     17 C17        16.7592  -29.1862  -41.4417 C.3       10 UNK        -0.0983 
     18 CA         18.0388  -28.4147  -41.8748 C.3       3 UNK         0.0876 
     19 N          17.8373  -27.0235  -42.2671 N.am      3 UNK        -0.4424 
     20 C          17.2851  -26.0111  -41.5843 C.2       2 UNK         0.4918 
     21 O          16.7731  -26.1235  -40.4707 O.2       2 UNK        -0.4875 
     22 CA         17.3361  -24.6183  -42.2612 C.3       2 UNK         0.0481 
     23 CB         18.1735  -23.6405  -41.4200 C.3       2 UNK        -0.1831 
     24 N          17.9039  -24.6818  -43.6141 N.am      2 UNK        -0.4498 
     25 C          17.2680  -25.1857  -44.6821 C.2       1 UNK         0.5027 
     26 O          16.0421  -25.2767  -44.7424 O.2       1 UNK        -0.4969 
     27 C          19.2182  -28.5054  -40.8908 C.2       3 UNK         0.5005 
     28 O          19.0946  -29.0977  -39.8167 O.2       3 UNK        -0.5279 
     29 N          20.3388  -27.8760  -41.2768 N.am      4 UNK        -0.4463 
     30 CA         21.5479  -27.7414  -40.4682 C.3       4 UNK         0.0283 
     31 CB         21.3720  -26.5966  -39.4487 C.3       4 UNK        -0.1875 
     32 C          22.8045  -27.5701  -41.3386 C.2       4 UNK         0.4949 
     33 O          23.7361  -26.8792  -40.9222 O.2       4 UNK        -0.5039 
     34 N          22.8506  -28.2134  -42.5155 N.am      5 UNK        -0.4663 
     35 CA         24.0486  -28.2784  -43.3629 C.3       5 UNK         0.0242 
     36 CB         23.7111  -28.9143  -44.7201 C.3       5 UNK        -0.1982 
     37 C          25.1456  -29.0761  -42.6421 C.2       5 UNK         0.5017 
     38 O          24.9171  -30.2396  -42.3001 O.2       5 UNK        -0.5012 
     39 N          26.2633  -28.4052  -42.3269 N.am      6 UNK        -0.4439 
     40 CA         27.3409  -28.8736  -41.4399 C.3       6 UNK         0.0297 
     41 CB         28.1234  -30.0297  -42.0990 C.3       6 UNK        -0.2006 
     42 C          26.8516  -29.2320  -40.0163 C.2       6 UNK         0.4892 
     43 O          27.4888  -30.0405  -39.3399 O.2       6 UNK        -0.5089 
     44 N          25.7145  -28.6431  -39.6073 N.am      7 UNK        -0.4243 
     45 CA         24.9385  -28.9228  -38.3954 C.3       7 UNK         0.0196 
     46 CB         25.7149  -28.4782  -37.1373 C.3       7 UNK        -0.2007 
     47 C          24.4279  -30.3777  -38.3021 C.2       7 UNK         0.5020 
     48 O          24.2222  -30.8631  -37.1881 O.2       7 UNK        -0.5147 
     49 N          24.2333  -31.0580  -39.4446 N.am      8 UNK        -0.4734 
     50 CA         23.8865  -32.4826  -39.4756 C.3       8 UNK         0.0238 
     51 CB         25.1747  -33.3243  -39.5286 C.3       8 UNK        -0.1912 
     52 C          22.9359  -32.8790  -40.6130 C.2       8 UNK         0.5038 
     53 O          22.0196  -33.6623  -40.3603 O.2       8 UNK        -0.5046 
     54 N          23.1807  -32.3899  -41.8384 N.am      9 UNK        -0.4200 
     55 CA         22.5200  -32.8402  -43.0821 C.3       9 UNK         0.0839 
     56 C          22.7706  -34.3406  -43.4384 C.2       9 UNK         0.5513 
     57 N          23.8364  -34.9627  -42.9475 N.am      9 UNK        -0.7519 
     58 O          22.0164  -34.9453  -44.1964 O.2       9 UNK        -0.4960 
     59 C59        21.0194  -32.4255  -43.1629 C.3       10 UNK        -0.0876 
     60 S60        20.8515  -30.6391  -43.4741 S.3       10 UNK        -0.2414 
     61 C61        20.3938  -30.6106  -45.2460 C.3       10 UNK         0.0169 
     62 H62        22.3613  -25.4955  -43.9260 H         1 UNK         0.0903 
     63 H63        22.4845  -26.1120  -45.5765 H         1 UNK         0.0903 
     64 H64        21.9549  -24.4525  -45.2876 H         1 UNK         0.0903 
     65 H65        19.9058  -24.7218  -46.3454 H         1 UNK         0.3096 
     66 H66        18.1163  -26.8549  -45.6155 H         1 UNK         0.1121 
     67 H67        17.3576  -24.5124  -47.3923 H         1 UNK         0.0849 
     68 H68        18.4131  -25.7668  -47.9710 H         1 UNK         0.0849 
     69 H69        16.2509  -28.7885  -48.6930 H         1 UNK         0.0865 
     70 H70        17.8326  -28.0564  -48.7158 H         1 UNK         0.0865 
     71 H71        19.3947  -29.1725  -47.3170 H         1 UNK         0.1346 
     72 H72        18.1525  -31.1975  -43.7447 H         1 UNK         0.1412 
     73 H73        15.2928  -29.0270  -46.0726 H         1 UNK         0.1426 
     74 H74        15.7970  -31.3300  -43.1786 H         1 UNK         0.0716 
     75 H75        14.6025  -30.6207  -44.2343 H         1 UNK         0.0716 
     76 H76        16.4218  -28.8328  -40.4660 H         1 UNK         0.0695 
     77 H77        16.9851  -30.2460  -41.3129 H         1 UNK         0.0695 
     78 H78        18.4101  -28.8915  -42.7768 H         1 UNK         0.0983 
     79 H79        18.3048  -26.7860  -43.1327 H         1 UNK         0.3095 
     80 H80        16.3145  -24.2377  -42.3198 H         1 UNK         0.0454 
     81 H81        19.2025  -23.9836  -41.3055 H         1 UNK         0.0851 
     82 H82        17.7550  -23.5292  -40.4188 H         1 UNK         0.0851 
     83 H83        18.1970  -22.6481  -41.8704 H         1 UNK         0.0851 
     84 H84        18.9102  -24.6153  -43.6758 H         1 UNK         0.2976 
     85 H85        20.3609  -27.4395  -42.1974 H         1 UNK         0.3116 
     86 H86        21.6993  -28.6708  -39.9151 H         1 UNK         0.0646 
     87 H87        21.2319  -25.6371  -39.9475 H         1 UNK         0.0847 
     88 H88        22.2433  -26.5039  -38.7994 H         1 UNK         0.0847 
     89 H89        20.5111  -26.7657  -38.8019 H         1 UNK         0.0847 
     90 H90        22.0759  -28.8089  -42.7817 H         1 UNK         0.3040 
     91 H91        24.3923  -27.2572  -43.5414 H         1 UNK         0.1015 
     92 H92        23.4695  -29.9728  -44.6255 H         1 UNK         0.0786 
     93 H93        24.5581  -28.8392  -45.4029 H         1 UNK         0.0786 
     94 H94        22.8657  -28.4186  -45.1950 H         1 UNK         0.0786 
     95 H95        26.3394  -27.4419  -42.6258 H         1 UNK         0.3172 
     96 H96        28.0267  -28.0336  -41.3210 H         1 UNK         0.0595 
     97 H97        27.5195  -30.9343  -42.1785 H         1 UNK         0.0839 
     98 H98        29.0109  -30.2837  -41.5181 H         1 UNK         0.0839 
     99 H99        28.4603  -29.7620  -43.1003 H         1 UNK         0.0839 
    100 H100       25.2760  -27.9796  -40.2392 H         1 UNK         0.2998 
    101 H101       24.0451  -28.3011  -38.4603 H         1 UNK         0.0822 
    102 H102       26.0531  -27.4457  -37.2242 H         1 UNK         0.0787 
    103 H103       25.0874  -28.5367  -36.2470 H         1 UNK         0.0787 
    104 H104       26.5896  -29.1045  -36.9595 H         1 UNK         0.0787 
    105 H105       24.4244  -30.6094  -40.3344 H         1 UNK         0.3055 
    106 H106       23.3581  -32.7442  -38.5555 H         1 UNK         0.1106 
    107 H107       24.9481  -34.3903  -39.5791 H         1 UNK         0.0828 
    108 H108       25.7842  -33.0736  -40.3977 H         1 UNK         0.0828 
    109 H109       25.7855  -33.1667  -38.6394 H         1 UNK         0.0828 
    110 H110       23.9349  -31.7204  -41.9729 H         1 UNK         0.2931 
    111 H111       23.0412  -32.3121  -43.8813 H         1 UNK         0.0412 
    112 H112       23.9994  -35.9273  -43.1908 H         1 UNK         0.3472 
    113 H113       24.4822  -34.4767  -42.3472 H         1 UNK         0.3472 
    114 H114       20.4876  -32.9637  -43.9482 H         1 UNK         0.0970 
    115 H115       20.4918  -32.6737  -42.2417 H         1 UNK         0.0970 
    116 H116       20.5968  -31.5715  -45.7190 H         1 UNK         0.0612 
    117 H117       21.0480  -29.8906  -45.7379 H         1 UNK         0.0612 
@<TRIPOS>BOND
     1    1    2 1    
     2    1   62 1    
     3    1   63 1    
     4    1   64 1    
     5    2    3 2    
     6    2    4 am   BACKBONE|DICT|INTERRES
     7    4    5 1    
     8    4   65 1    
     9    5    6 1    
    10    5   25 1    
    11    5   66 1    
    12    6    7 1    
    13    6   67 1    
    14    6   68 1    
    15    7    8 1    
    16    8    9 1    
    17    8   69 1    
    18    8   70 1    
    19    9   10 ar   
    20    9   14 ar   
    21   10   11 ar   
    22   10   71 1    
    23   11   12 ar   
    24   11   61 1    
    25   12   13 ar   
    26   12   72 1    
    27   13   14 ar   
    28   13   15 1    
    29   14   73 1    
    30   15   16 1    
    31   15   74 1    
    32   15   75 1    
    33   16   17 1    
    34   17   18 1    
    35   17   76 1    
    36   17   77 1    
    37   18   19 1    
    38   18   27 1    
    39   18   78 1    
    40   19   20 am   BACKBONE|DICT|INTERRES
    41   19   79 1    
    42   20   21 2    
    43   20   22 1    
    44   22   23 1    
    45   22   24 1    
    46   22   80 1    
    47   23   81 1    
    48   23   82 1    
    49   23   83 1    
    50   24   25 am   BACKBONE|DICT|INTERRES
    51   24   84 1    
    52   25   26 2    
    53   27   28 2    
    54   27   29 am   BACKBONE|DICT|INTERRES
    55   29   30 1    
    56   29   85 1    
    57   30   31 1    
    58   30   32 1    
    59   30   86 1    
    60   31   87 1    
    61   31   88 1    
    62   31   89 1    
    63   32   33 2    
    64   32   34 am   BACKBONE|DICT|INTERRES
    65   34   35 1    
    66   34   90 1    
    67   35   36 1    
    68   35   37 1    
    69   35   91 1    
    70   36   92 1    
    71   36   93 1    
    72   36   94 1    
    73   37   38 2    
    74   37   39 am   BACKBONE|DICT|INTERRES
    75   39   40 1    
    76   39   95 1    
    77   40   41 1    
    78   40   42 1    
    79   40   96 1    
    80   41   97 1    
    81   41   98 1    
    82   41   99 1    
    83   42   43 2    
    84   42   44 am   BACKBONE|DICT|INTERRES
    85   44   45 1    
    86   44  100 1    
    87   45   46 1    
    88   45   47 1    
    89   45  101 1    
    90   46  102 1    
    91   46  103 1    
    92   46  104 1    
    93   47   48 2    
    94   47   49 am   BACKBONE|DICT|INTERRES
    95   49   50 1    
    96   49  105 1    
    97   50   51 1    
    98   50   52 1    
    99   50  106 1    
   100   51  107 1    
   101   51  108 1    
   102   51  109 1    
   103   52   53 2    
   104   52   54 am   BACKBONE|DICT|INTERRES
   105   54   55 1    
   106   54  110 1    
   107   55   56 1    
   108   55   59 1    
   109   55  111 1    
   110   56   57 am   BACKBONE|DICT|INTERRES
   111   56   58 2    
   112   57  112 1    
   113   57  113 1    
   114   59   60 1    
   115   59  114 1    
   116   59  115 1    
   117   60   61 1    
   118   61  116 1    
   119   61  117 1    
@<TRIPOS>SUBSTRUCTURE
     1 UNK         1 GROUP             0       ****    0 ROOT    
