@<TRIPOS>MOLECULE
3R8
117   119    1
SMALL
USER_CHARGES


@<TRIPOS>ATOM
      1 CA         13.4434  -25.1840  -46.8546 C.3       0 UNK        -0.2013 
      2 C          14.7636  -25.5675  -47.5060 C.2       0 UNK         0.4866 
      3 O          14.8051  -25.8092  -48.7127 O.2       0 UNK        -0.5176 
      4 N          15.8410  -25.6232  -46.7182 N.am      1 UNK        -0.4884 
      5 CA         17.2052  -25.9293  -47.1471 C.3       1 UNK         0.0853 
      6 C6         17.3998  -27.4347  -47.5243 C.3       10 UNK        -0.0849 
      7 S7         17.8213  -28.5786  -46.1612 S.3       10 UNK        -0.2776 
      8 C8         16.1912  -28.9939  -45.4730 C.3       10 UNK         0.0316 
      9 C9         16.3307  -29.3362  -43.9983 C.ar      10 UNK        -0.0863 
     10 C10        16.9420  -30.5331  -43.6143 C.ar      10 UNK        -0.1009 
     11 C11        17.1529  -30.8204  -42.2634 C.ar      10 UNK        -0.0712 
     12 C12        16.7010  -29.9248  -41.2912 C.ar      10 UNK        -0.0894 
     13 C13        16.0784  -28.7293  -41.6620 C.ar      10 UNK        -0.0745 
     14 C14        15.8965  -28.4383  -43.0179 C.ar      10 UNK        -0.0972 
     15 C15        15.6385  -27.7397  -40.5938 C.3       10 UNK         0.0209 
     16 S16        17.0661  -26.9914  -39.7446 S.3       10 UNK        -0.2568 
     17 C17        17.8290  -26.0082  -41.0805 C.3       10 UNK        -0.0983 
     18 CA         18.9771  -26.7421  -41.8191 C.3       3 UNK         0.0876 
     19 N          19.3688  -26.0077  -43.0223 N.am      3 UNK        -0.4424 
     20 C          20.2237  -26.4434  -43.9546 C.2       2 UNK         0.4918 
     21 O          20.7649  -27.5498  -43.9289 O.2       2 UNK        -0.4875 
     22 CA         20.4707  -25.4952  -45.1440 C.3       2 UNK         0.0481 
     23 CB         21.8728  -25.6906  -45.7487 C.3       2 UNK        -0.1831 
     24 N          19.4627  -25.7110  -46.1838 N.am      2 UNK        -0.4498 
     25 C          18.1691  -25.3775  -46.0733 C.2       1 UNK         0.5027 
     26 O          17.7243  -24.6841  -45.1512 O.2       1 UNK        -0.4969 
     27 C          20.1980  -26.9915  -40.9102 C.2       3 UNK         0.5005 
     28 O          20.9496  -26.0517  -40.6329 O.2       3 UNK        -0.5279 
     29 N          20.3776  -28.2518  -40.4879 N.am      4 UNK        -0.4463 
     30 CA         21.4756  -28.8046  -39.6829 C.3       4 UNK         0.0283 
     31 CB         21.5697  -28.1391  -38.2969 C.3       4 UNK        -0.1875 
     32 C          22.8388  -28.8072  -40.3952 C.2       4 UNK         0.4949 
     33 O          23.4832  -29.8557  -40.4385 O.2       4 UNK        -0.5039 
     34 N          23.2479  -27.6645  -40.9609 N.am      5 UNK        -0.4663 
     35 CA         24.5077  -27.4290  -41.6765 C.3       5 UNK         0.0242 
     36 CB         24.4661  -28.1192  -43.0598 C.3       5 UNK        -0.1982 
     37 C          25.7255  -27.8110  -40.8085 C.2       5 UNK         0.5017 
     38 O          25.8145  -27.3525  -39.6682 O.2       5 UNK        -0.5012 
     39 N          26.6097  -28.6744  -41.3240 N.am      6 UNK        -0.4439 
     40 CA         27.7493  -29.2543  -40.6063 C.3       6 UNK         0.0297 
     41 CB         28.8959  -29.4919  -41.6077 C.3       6 UNK        -0.2006 
     42 C          27.3520  -30.5384  -39.8451 C.2       6 UNK         0.4892 
     43 O          28.0724  -31.5354  -39.9158 O.2       6 UNK        -0.5089 
     44 N          26.2046  -30.4927  -39.1493 N.am      7 UNK        -0.4243 
     45 CA         25.5486  -31.5873  -38.4191 C.3       7 UNK         0.0196 
     46 CB         26.3785  -31.9987  -37.1841 C.3       7 UNK        -0.2007 
     47 C          25.1924  -32.7760  -39.3358 C.2       7 UNK         0.5020 
     48 O          25.4612  -33.9294  -38.9938 O.2       7 UNK        -0.5147 
     49 N          24.6088  -32.4628  -40.4983 N.am      8 UNK        -0.4734 
     50 CA         24.2765  -33.4239  -41.5561 C.3       8 UNK         0.0238 
     51 CB         25.5361  -33.7169  -42.3949 C.3       8 UNK        -0.1912 
     52 C          23.1155  -32.9825  -42.4661 C.2       8 UNK         0.5038 
     53 O          22.5968  -33.8299  -43.1943 O.2       8 UNK        -0.5046 
     54 N          22.7339  -31.6974  -42.4181 N.am      9 UNK        -0.4200 
     55 CA         21.7499  -31.0099  -43.2728 C.3       9 UNK         0.0839 
     56 C          22.2310  -30.8253  -44.7399 C.2       9 UNK         0.5513 
     57 N          21.9122  -29.6946  -45.3509 N.am      9 UNK        -0.7519 
     58 O          22.8636  -31.6891  -45.3422 O.2       9 UNK        -0.4960 
     59 C59        20.3242  -31.6230  -43.2198 C.3       10 UNK        -0.0876 
     60 S60        19.6548  -31.7293  -41.5236 S.3       10 UNK        -0.2414 
     61 C61        17.8976  -32.0795  -41.8498 C.3       10 UNK         0.0169 
     62 H62        13.5530  -25.0054  -45.7851 H         1 UNK         0.0903 
     63 H63        13.0489  -24.2768  -47.3115 H         1 UNK         0.0903 
     64 H64        12.7124  -25.9805  -46.9917 H         1 UNK         0.0903 
     65 H65        15.7876  -25.3372  -45.7472 H         1 UNK         0.3096 
     66 H66        17.3945  -25.3331  -48.0429 H         1 UNK         0.1121 
     67 H67        16.5279  -27.8221  -48.0532 H         1 UNK         0.0849 
     68 H68        18.2132  -27.5084  -48.2476 H         1 UNK         0.0849 
     69 H69        15.5023  -28.1594  -45.6068 H         1 UNK         0.0865 
     70 H70        15.7670  -29.8383  -46.0181 H         1 UNK         0.0865 
     71 H71        17.2925  -31.2198  -44.3728 H         1 UNK         0.1346 
     72 H72        16.8633  -30.1420  -40.2439 H         1 UNK         0.1412 
     73 H73        15.4366  -27.5040  -43.3098 H         1 UNK         0.1426 
     74 H74        15.0219  -28.2580  -39.8582 H         1 UNK         0.0716 
     75 H75        15.0132  -26.9526  -41.0181 H         1 UNK         0.0716 
     76 H76        18.1880  -25.0701  -40.6529 H         1 UNK         0.0695 
     77 H77        17.0476  -25.7297  -41.7898 H         1 UNK         0.0695 
     78 H78        18.6059  -27.7086  -42.1652 H         1 UNK         0.0983 
     79 H79        18.9326  -25.1070  -43.1625 H         1 UNK         0.3095 
     80 H80        20.4001  -24.4652  -44.7880 H         1 UNK         0.0454 
     81 H81        22.0008  -26.6885  -46.1697 H         1 UNK         0.0851 
     82 H82        22.6450  -25.5577  -44.9898 H         1 UNK         0.0851 
     83 H83        22.0680  -24.9662  -46.5393 H         1 UNK         0.0851 
     84 H84        19.7354  -26.3162  -46.9447 H         1 UNK         0.2976 
     85 H85        19.7094  -28.9429  -40.8027 H         1 UNK         0.3116 
     86 H86        21.2127  -29.8508  -39.5181 H         1 UNK         0.0646 
     87 H87        21.8522  -27.0882  -38.3621 H         1 UNK         0.0847 
     88 H88        22.3197  -28.6356  -37.6798 H         1 UNK         0.0847 
     89 H89        20.6206  -28.1983  -37.7642 H         1 UNK         0.0847 
     90 H90        22.6265  -26.8642  -40.8618 H         1 UNK         0.3040 
     91 H91        24.5765  -26.3525  -41.8408 H         1 UNK         0.1015 
     92 H92        24.4219  -29.2057  -42.9809 H         1 UNK         0.0786 
     93 H93        25.3387  -27.8601  -43.6607 H         1 UNK         0.0786 
     94 H94        23.5902  -27.8000  -43.6253 H         1 UNK         0.0786 
     95 H95        26.4369  -29.0304  -42.2531 H         1 UNK         0.3172 
     96 H96        28.1079  -28.5415  -39.8607 H         1 UNK         0.0595 
     97 H97        29.7891  -29.8596  -41.1008 H         1 UNK         0.0839 
     98 H98        29.1750  -28.5700  -42.1184 H         1 UNK         0.0839 
     99 H99        28.6249  -30.2279  -42.3657 H         1 UNK         0.0839 
    100 H100       25.6825  -29.6259  -39.1882 H         1 UNK         0.2998 
    101 H101       24.5988  -31.1885  -38.0590 H         1 UNK         0.0822 
    102 H102       25.8412  -32.7301  -36.5792 H         1 UNK         0.0787 
    103 H103       27.3310  -32.4483  -37.4664 H         1 UNK         0.0787 
    104 H104       26.5885  -31.1417  -36.5443 H         1 UNK         0.0787 
    105 H105       24.3711  -31.4862  -40.6458 H         1 UNK         0.3055 
    106 H106       23.9499  -34.3548  -41.0867 H         1 UNK         0.1106 
    107 H107       25.3222  -34.4308  -43.1916 H         1 UNK         0.0828 
    108 H108       25.9244  -32.8113  -42.8623 H         1 UNK         0.0828 
    109 H109       26.3315  -34.1455  -41.7850 H         1 UNK         0.0828 
    110 H110       23.1746  -31.0833  -41.7431 H         1 UNK         0.2931 
    111 H111       21.6769  -30.0084  -42.8464 H         1 UNK         0.0412 
    112 H112       22.1978  -29.5554  -46.3063 H         1 UNK         0.3472 
    113 H113       21.4157  -28.9560  -44.8551 H         1 UNK         0.3472 
    114 H114       20.3078  -32.6175  -43.6681 H         1 UNK         0.0970 
    115 H115       19.6501  -31.0093  -43.8182 H         1 UNK         0.0970 
    116 H116       17.4468  -32.4903  -40.9452 H         1 UNK         0.0612 
    117 H117       17.8110  -32.8531  -42.6144 H         1 UNK         0.0612 
@<TRIPOS>BOND
     1    1    2 1    
     2    1   62 1    
     3    1   63 1    
     4    1   64 1    
     5    2    3 2    
     6    2    4 am   BACKBONE|DICT|INTERRES
     7    4    5 1    
     8    4   65 1    
     9    5    6 1    
    10    5   25 1    
    11    5   66 1    
    12    6    7 1    
    13    6   67 1    
    14    6   68 1    
    15    7    8 1    
    16    8    9 1    
    17    8   69 1    
    18    8   70 1    
    19    9   10 ar   
    20    9   14 ar   
    21   10   11 ar   
    22   10   71 1    
    23   11   12 ar   
    24   11   61 1    
    25   12   13 ar   
    26   12   72 1    
    27   13   14 ar   
    28   13   15 1    
    29   14   73 1    
    30   15   16 1    
    31   15   74 1    
    32   15   75 1    
    33   16   17 1    
    34   17   18 1    
    35   17   76 1    
    36   17   77 1    
    37   18   19 1    
    38   18   27 1    
    39   18   78 1    
    40   19   20 am   BACKBONE|DICT|INTERRES
    41   19   79 1    
    42   20   21 2    
    43   20   22 1    
    44   22   23 1    
    45   22   24 1    
    46   22   80 1    
    47   23   81 1    
    48   23   82 1    
    49   23   83 1    
    50   24   25 am   BACKBONE|DICT|INTERRES
    51   24   84 1    
    52   25   26 2    
    53   27   28 2    
    54   27   29 am   BACKBONE|DICT|INTERRES
    55   29   30 1    
    56   29   85 1    
    57   30   31 1    
    58   30   32 1    
    59   30   86 1    
    60   31   87 1    
    61   31   88 1    
    62   31   89 1    
    63   32   33 2    
    64   32   34 am   BACKBONE|DICT|INTERRES
    65   34   35 1    
    66   34   90 1    
    67   35   36 1    
    68   35   37 1    
    69   35   91 1    
    70   36   92 1    
    71   36   93 1    
    72   36   94 1    
    73   37   38 2    
    74   37   39 am   BACKBONE|DICT|INTERRES
    75   39   40 1    
    76   39   95 1    
    77   40   41 1    
    78   40   42 1    
    79   40   96 1    
    80   41   97 1    
    81   41   98 1    
    82   41   99 1    
    83   42   43 2    
    84   42   44 am   BACKBONE|DICT|INTERRES
    85   44   45 1    
    86   44  100 1    
    87   45   46 1    
    88   45   47 1    
    89   45  101 1    
    90   46  102 1    
    91   46  103 1    
    92   46  104 1    
    93   47   48 2    
    94   47   49 am   BACKBONE|DICT|INTERRES
    95   49   50 1    
    96   49  105 1    
    97   50   51 1    
    98   50   52 1    
    99   50  106 1    
   100   51  107 1    
   101   51  108 1    
   102   51  109 1    
   103   52   53 2    
   104   52   54 am   BACKBONE|DICT|INTERRES
   105   54   55 1    
   106   54  110 1    
   107   55   56 1    
   108   55   59 1    
   109   55  111 1    
   110   56   57 am   BACKBONE|DICT|INTERRES
   111   56   58 2    
   112   57  112 1    
   113   57  113 1    
   114   59   60 1    
   115   59  114 1    
   116   59  115 1    
   117   60   61 1    
   118   61  116 1    
   119   61  117 1    
@<TRIPOS>SUBSTRUCTURE
     1 UNK         1 GROUP             0       ****    0 ROOT    
