@<TRIPOS>MOLECULE
3R8
117   119    1
SMALL
USER_CHARGES


@<TRIPOS>ATOM
      1 CA         15.2333  -23.9822  -48.0995 C.3       0 UNK        -0.2013 
      2 C          15.8199  -24.3029  -46.7329 C.2       0 UNK         0.4866 
      3 O          15.7348  -23.4756  -45.8253 O.2       0 UNK        -0.5176 
      4 N          16.4184  -25.4943  -46.5884 N.am      1 UNK        -0.4884 
      5 CA         17.0295  -26.0245  -45.3576 C.3       1 UNK         0.0853 
      6 C6         16.0044  -26.3028  -44.2222 C.3       10 UNK        -0.0849 
      7 S7         14.8258  -27.6100  -44.7116 S.3       10 UNK        -0.2776 
      8 C8         15.0355  -28.8578  -43.3910 C.3       10 UNK         0.0316 
      9 C9         16.4652  -29.3687  -43.2093 C.ar      10 UNK        -0.0863 
     10 C10        16.9584  -29.5800  -41.9182 C.ar      10 UNK        -0.1009 
     11 C11        18.2544  -30.0601  -41.7051 C.ar      10 UNK        -0.0712 
     12 C12        19.0736  -30.3100  -42.8165 C.ar      10 UNK        -0.0894 
     13 C13        18.5923  -30.1175  -44.1151 C.ar      10 UNK        -0.0745 
     14 C14        17.2840  -29.6621  -44.3043 C.ar      10 UNK        -0.0972 
     15 C15        19.4654  -30.4385  -45.3198 C.3       10 UNK         0.0209 
     16 S16        19.8987  -28.9437  -46.2672 S.3       10 UNK        -0.2568 
     17 C17        21.6632  -28.6667  -45.8554 C.3       10 UNK        -0.0983 
     18 CA         21.9315  -27.4374  -44.9446 C.3       3 UNK         0.0876 
     19 N          21.1731  -26.2780  -45.4106 N.am      3 UNK        -0.4424 
     20 C          21.3982  -24.9864  -45.1466 C.2       2 UNK         0.4918 
     21 O          22.3803  -24.5681  -44.5355 O.2       2 UNK        -0.4875 
     22 CA         20.3127  -24.0008  -45.6302 C.3       2 UNK         0.0481 
     23 CB         20.7605  -23.2965  -46.9204 C.3       2 UNK        -0.1831 
     24 N          19.0088  -24.6441  -45.8560 N.am      2 UNK        -0.4498 
     25 C          18.2569  -25.2067  -44.8953 C.2       1 UNK         0.5027 
     26 O          18.5521  -25.1506  -43.7018 O.2       1 UNK        -0.4969 
     27 C          21.7192  -27.7706  -43.4489 C.2       3 UNK         0.5005 
     28 O          22.3899  -28.6764  -42.9511 O.2       3 UNK        -0.5279 
     29 N          20.8087  -27.0704  -42.7530 N.am      4 UNK        -0.4463 
     30 CA         20.5530  -27.2532  -41.3234 C.3       4 UNK         0.0283 
     31 CB         19.2754  -26.5004  -40.9218 C.3       4 UNK        -0.1875 
     32 C          21.7370  -26.8269  -40.4412 C.2       4 UNK         0.4949 
     33 O          22.4739  -25.9068  -40.8021 O.2       4 UNK        -0.5039 
     34 N          21.8635  -27.4974  -39.2856 N.am      5 UNK        -0.4663 
     35 CA         22.9259  -27.3409  -38.2814 C.3       5 UNK         0.0242 
     36 CB         22.8574  -25.9508  -37.6122 C.3       5 UNK        -0.1982 
     37 C          24.3222  -27.6789  -38.8427 C.2       5 UNK         0.5017 
     38 O          25.2928  -26.9696  -38.5698 O.2       5 UNK        -0.5012 
     39 N          24.3889  -28.7641  -39.6203 N.am      6 UNK        -0.4439 
     40 CA         25.5889  -29.3016  -40.2513 C.3       6 UNK         0.0297 
     41 CB         25.7868  -28.6375  -41.6274 C.3       6 UNK        -0.2006 
     42 C          25.4390  -30.8237  -40.3708 C.2       6 UNK         0.4892 
     43 O          24.3794  -31.3676  -40.0443 O.2       6 UNK        -0.5089 
     44 N          26.4929  -31.4869  -40.8663 N.am      7 UNK        -0.4243 
     45 CA         26.6042  -32.9446  -41.0324 C.3       7 UNK         0.0196 
     46 CB         28.0060  -33.2756  -41.5715 C.3       7 UNK        -0.2007 
     47 C          25.5216  -33.6062  -41.9112 C.2       7 UNK         0.5020 
     48 O          25.3768  -34.8278  -41.8645 O.2       7 UNK        -0.5147 
     49 N          24.7694  -32.8033  -42.6758 N.am      8 UNK        -0.4734 
     50 CA         23.5908  -33.2221  -43.4368 C.3       8 UNK         0.0238 
     51 CB         23.1715  -32.0793  -44.3733 C.3       8 UNK        -0.1912 
     52 C          22.4005  -33.6552  -42.5570 C.2       8 UNK         0.5038 
     53 O          21.5393  -34.3819  -43.0549 O.2       8 UNK        -0.5046 
     54 N          22.3640  -33.2222  -41.2889 N.am      9 UNK        -0.4200 
     55 CA         21.3389  -33.6112  -40.3079 C.3       9 UNK         0.0839 
     56 C          21.8631  -33.7841  -38.8553 C.2       9 UNK         0.5513 
     57 N          23.0430  -33.2938  -38.4967 N.am      9 UNK        -0.7519 
     58 O          21.1912  -34.4077  -38.0374 O.2       9 UNK        -0.4960 
     59 C59        20.0689  -32.7237  -40.3871 C.3       10 UNK        -0.0876 
     60 S60        20.3794  -30.9628  -40.0156 S.3       10 UNK        -0.2414 
     61 C61        18.7054  -30.2722  -40.2552 C.3       10 UNK         0.0169 
     62 H62        15.3796  -24.7963  -48.8091 H         1 UNK         0.0903 
     63 H63        14.1629  -23.7971  -48.0131 H         1 UNK         0.0903 
     64 H64        15.7018  -23.0874  -48.5086 H         1 UNK         0.0903 
     65 H65        16.4387  -26.1252  -47.3785 H         1 UNK         0.3096 
     66 H66        17.4551  -26.9898  -45.6362 H         1 UNK         0.1121 
     67 H67        15.4503  -25.3995  -43.9639 H         1 UNK         0.0849 
     68 H68        16.5084  -26.6143  -43.3059 H         1 UNK         0.0849 
     69 H69        14.6649  -28.4273  -42.4592 H         1 UNK         0.0865 
     70 H70        14.3901  -29.7091  -43.6109 H         1 UNK         0.0865 
     71 H71        16.3253  -29.3738  -41.0656 H         1 UNK         0.1346 
     72 H72        20.0872  -30.6606  -42.6848 H         1 UNK         0.1412 
     73 H73        16.9078  -29.5281  -45.3092 H         1 UNK         0.1426 
     74 H74        18.9188  -31.1166  -45.9765 H         1 UNK         0.0716 
     75 H75        20.3640  -30.9760  -45.0176 H         1 UNK         0.0716 
     76 H76        22.1774  -28.5093  -46.8047 H         1 UNK         0.0695 
     77 H77        22.1097  -29.5738  -45.4481 H         1 UNK         0.0695 
     78 H78        22.9911  -27.1876  -45.0340 H         1 UNK         0.0983 
     79 H79        20.3469  -26.5121  -45.9409 H         1 UNK         0.3095 
     80 H80        20.1851  -23.2445  -44.8530 H         1 UNK         0.0454 
     81 H81        20.8937  -24.0015  -47.7419 H         1 UNK         0.0851 
     82 H82        21.7124  -22.7839  -46.7743 H         1 UNK         0.0851 
     83 H83        20.0361  -22.5451  -47.2351 H         1 UNK         0.0851 
     84 H84        18.6903  -24.7136  -46.8122 H         1 UNK         0.2976 
     85 H85        20.2872  -26.3349  -43.2134 H         1 UNK         0.3116 
     86 H86        20.3921  -28.3167  -41.1676 H         1 UNK         0.0646 
     87 H87        19.3745  -25.4265  -41.0840 H         1 UNK         0.0847 
     88 H88        19.0441  -26.6508  -39.8668 H         1 UNK         0.0847 
     89 H89        18.4153  -26.8499  -41.4932 H         1 UNK         0.0847 
     90 H90        21.1984  -28.2354  -39.0963 H         1 UNK         0.3040 
     91 H91        22.7289  -28.0839  -37.5066 H         1 UNK         0.1015 
     92 H92        23.1070  -25.1503  -38.3092 H         1 UNK         0.0786 
     93 H93        23.5585  -25.8842  -36.7794 H         1 UNK         0.0786 
     94 H94        21.8628  -25.7507  -37.2137 H         1 UNK         0.0786 
     95 H95        23.5613  -29.3323  -39.7546 H         1 UNK         0.3172 
     96 H96        26.4554  -29.1009  -39.6180 H         1 UNK         0.0595 
     97 H97        24.9716  -28.8786  -42.3102 H         1 UNK         0.0839 
     98 H98        26.7157  -28.9597  -42.0987 H         1 UNK         0.0839 
     99 H99        25.8333  -27.5518  -41.5398 H         1 UNK         0.0839 
    100 H100       27.3122  -30.9528  -41.1186 H         1 UNK         0.2998 
    101 H101       26.5082  -33.3871  -40.0386 H         1 UNK         0.0822 
    102 H102       28.7863  -32.9161  -40.9002 H         1 UNK         0.0787 
    103 H103       28.1435  -34.3532  -41.6734 H         1 UNK         0.0787 
    104 H104       28.1745  -32.8317  -42.5535 H         1 UNK         0.0787 
    105 H105       24.9605  -31.8126  -42.6456 H         1 UNK         0.3055 
    106 H106       23.8731  -34.0836  -44.0462 H         1 UNK         0.1106 
    107 H107       22.8504  -31.2019  -43.8109 H         1 UNK         0.0828 
    108 H108       22.3401  -32.3847  -45.0096 H         1 UNK         0.0828 
    109 H109       23.9871  -31.7799  -45.0316 H         1 UNK         0.0828 
    110 H110       23.0970  -32.6089  -40.9503 H         1 UNK         0.2931 
    111 H111       21.0207  -34.6213  -40.5744 H         1 UNK         0.0412 
    112 H112       23.3581  -33.4387  -37.5511 H         1 UNK         0.3472 
    113 H113       23.5744  -32.6823  -39.1099 H         1 UNK         0.3472 
    114 H114       19.3035  -33.0970  -39.7043 H         1 UNK         0.0970 
    115 H115       19.6336  -32.8000  -41.3843 H         1 UNK         0.0970 
    116 H116       17.9871  -30.9183  -39.7484 H         1 UNK         0.0612 
    117 H117       18.6636  -29.3124  -39.7394 H         1 UNK         0.0612 
@<TRIPOS>BOND
     1    1    2 1    
     2    1   62 1    
     3    1   63 1    
     4    1   64 1    
     5    2    3 2    
     6    2    4 am   BACKBONE|DICT|INTERRES
     7    4    5 1    
     8    4   65 1    
     9    5    6 1    
    10    5   25 1    
    11    5   66 1    
    12    6    7 1    
    13    6   67 1    
    14    6   68 1    
    15    7    8 1    
    16    8    9 1    
    17    8   69 1    
    18    8   70 1    
    19    9   10 ar   
    20    9   14 ar   
    21   10   11 ar   
    22   10   71 1    
    23   11   12 ar   
    24   11   61 1    
    25   12   13 ar   
    26   12   72 1    
    27   13   14 ar   
    28   13   15 1    
    29   14   73 1    
    30   15   16 1    
    31   15   74 1    
    32   15   75 1    
    33   16   17 1    
    34   17   18 1    
    35   17   76 1    
    36   17   77 1    
    37   18   19 1    
    38   18   27 1    
    39   18   78 1    
    40   19   20 am   BACKBONE|DICT|INTERRES
    41   19   79 1    
    42   20   21 2    
    43   20   22 1    
    44   22   23 1    
    45   22   24 1    
    46   22   80 1    
    47   23   81 1    
    48   23   82 1    
    49   23   83 1    
    50   24   25 am   BACKBONE|DICT|INTERRES
    51   24   84 1    
    52   25   26 2    
    53   27   28 2    
    54   27   29 am   BACKBONE|DICT|INTERRES
    55   29   30 1    
    56   29   85 1    
    57   30   31 1    
    58   30   32 1    
    59   30   86 1    
    60   31   87 1    
    61   31   88 1    
    62   31   89 1    
    63   32   33 2    
    64   32   34 am   BACKBONE|DICT|INTERRES
    65   34   35 1    
    66   34   90 1    
    67   35   36 1    
    68   35   37 1    
    69   35   91 1    
    70   36   92 1    
    71   36   93 1    
    72   36   94 1    
    73   37   38 2    
    74   37   39 am   BACKBONE|DICT|INTERRES
    75   39   40 1    
    76   39   95 1    
    77   40   41 1    
    78   40   42 1    
    79   40   96 1    
    80   41   97 1    
    81   41   98 1    
    82   41   99 1    
    83   42   43 2    
    84   42   44 am   BACKBONE|DICT|INTERRES
    85   44   45 1    
    86   44  100 1    
    87   45   46 1    
    88   45   47 1    
    89   45  101 1    
    90   46  102 1    
    91   46  103 1    
    92   46  104 1    
    93   47   48 2    
    94   47   49 am   BACKBONE|DICT|INTERRES
    95   49   50 1    
    96   49  105 1    
    97   50   51 1    
    98   50   52 1    
    99   50  106 1    
   100   51  107 1    
   101   51  108 1    
   102   51  109 1    
   103   52   53 2    
   104   52   54 am   BACKBONE|DICT|INTERRES
   105   54   55 1    
   106   54  110 1    
   107   55   56 1    
   108   55   59 1    
   109   55  111 1    
   110   56   57 am   BACKBONE|DICT|INTERRES
   111   56   58 2    
   112   57  112 1    
   113   57  113 1    
   114   59   60 1    
   115   59  114 1    
   116   59  115 1    
   117   60   61 1    
   118   61  116 1    
   119   61  117 1    
@<TRIPOS>SUBSTRUCTURE
     1 UNK         1 GROUP             0       ****    0 ROOT    
