@<TRIPOS>MOLECULE
3R8
117   119    1
SMALL
USER_CHARGES


@<TRIPOS>ATOM
      1 CA         16.1619  -24.3653  -39.8117 C.3       0 UNK        -0.2013 
      2 C          16.4552  -24.4032  -41.3039 C.2       0 UNK         0.4866 
      3 O          16.5637  -23.3510  -41.9345 O.2       0 UNK        -0.5176 
      4 N          16.5748  -25.6071  -41.8756 N.am      1 UNK        -0.4884 
      5 CA         16.9318  -25.8485  -43.2756 C.3       1 UNK         0.0853 
      6 C6         16.5773  -27.2888  -43.7386 C.3       10 UNK        -0.0849 
      7 S7         16.9371  -28.6129  -42.5247 S.3       10 UNK        -0.2776 
      8 C8         16.4512  -30.1109  -43.4423 C.3       10 UNK         0.0316 
      9 C9         17.5540  -30.5712  -44.3838 C.ar      10 UNK        -0.0863 
     10 C10        18.4785  -31.5362  -43.9745 C.ar      10 UNK        -0.1009 
     11 C11        19.5133  -31.9405  -44.8245 C.ar      10 UNK        -0.0712 
     12 C12        19.6228  -31.3551  -46.0927 C.ar      10 UNK        -0.0894 
     13 C13        18.6951  -30.3985  -46.5202 C.ar      10 UNK        -0.0745 
     14 C14        17.6498  -30.0338  -45.6681 C.ar      10 UNK        -0.0972 
     15 C15        18.7877  -29.7875  -47.9139 C.3       10 UNK         0.0209 
     16 S16        18.7100  -27.9614  -47.8867 S.3       10 UNK        -0.2568 
     17 C17        20.4505  -27.4656  -48.1389 C.3       10 UNK        -0.0983 
     18 CA         21.1827  -26.9650  -46.8657 C.3       3 UNK         0.0876 
     19 N          20.4143  -25.9357  -46.1577 N.am      3 UNK        -0.4424 
     20 C          20.9434  -24.9438  -45.4313 C.2       2 UNK         0.4918 
     21 O          22.1535  -24.7770  -45.2810 O.2       2 UNK        -0.4875 
     22 CA         19.9620  -23.9686  -44.7574 C.3       2 UNK         0.0481 
     23 CB         19.7837  -22.7114  -45.6235 C.3       2 UNK        -0.1831 
     24 N          18.6434  -24.5418  -44.4613 N.am      2 UNK        -0.4498 
     25 C          18.4101  -25.4822  -43.5337 C.2       1 UNK         0.5027 
     26 O          19.3026  -26.0381  -42.8916 O.2       1 UNK        -0.4969 
     27 C          21.6474  -28.1258  -45.9587 C.2       3 UNK         0.5005 
     28 O          22.3341  -29.0218  -46.4547 O.2       3 UNK        -0.5279 
     29 N          21.2844  -28.1087  -44.6666 N.am      4 UNK        -0.4463 
     30 CA         21.6604  -29.1311  -43.6927 C.3       4 UNK         0.0283 
     31 CB         20.8868  -28.9167  -42.3867 C.3       4 UNK        -0.1875 
     32 C          23.1732  -29.1708  -43.4320 C.2       4 UNK         0.4949 
     33 O          23.7551  -28.1511  -43.0550 O.2       4 UNK        -0.5039 
     34 N          23.7695  -30.3558  -43.6165 N.am      5 UNK        -0.4663 
     35 CA         25.1908  -30.6480  -43.4236 C.3       5 UNK         0.0242 
     36 CB         25.4600  -32.1079  -43.8253 C.3       5 UNK        -0.1982 
     37 C          25.6189  -30.3860  -41.9726 C.2       5 UNK         0.5017 
     38 O          25.1893  -31.1145  -41.0760 O.2       5 UNK        -0.5012 
     39 N          26.3871  -29.3050  -41.7669 N.am      6 UNK        -0.4439 
     40 CA         26.8416  -28.7697  -40.4737 C.3       6 UNK         0.0297 
     41 CB         27.8830  -29.7178  -39.8415 C.3       6 UNK        -0.2006 
     42 C          25.6954  -28.4309  -39.4930 C.2       6 UNK         0.4892 
     43 O          25.9290  -28.3864  -38.2842 O.2       6 UNK        -0.5089 
     44 N          24.4779  -28.2338  -40.0271 N.am      7 UNK        -0.4243 
     45 CA         23.2007  -28.1092  -39.3138 C.3       7 UNK         0.0196 
     46 CB         23.1487  -26.7925  -38.5099 C.3       7 UNK        -0.2007 
     47 C          22.8329  -29.3452  -38.4594 C.2       7 UNK         0.5020 
     48 O          22.0474  -29.2121  -37.5197 O.2       7 UNK        -0.5147 
     49 N          23.4022  -30.5201  -38.7745 N.am      8 UNK        -0.4734 
     50 CA         23.1840  -31.7611  -38.0267 C.3       8 UNK         0.0238 
     51 CB         24.3510  -32.7311  -38.2756 C.3       8 UNK        -0.1912 
     52 C          21.8402  -32.4172  -38.3737 C.2       8 UNK         0.5038 
     53 O          21.1035  -32.8044  -37.4653 O.2       8 UNK        -0.5046 
     54 N          21.5520  -32.5303  -39.6758 N.am      9 UNK        -0.4200 
     55 CA         20.2713  -33.0113  -40.2113 C.3       9 UNK         0.0839 
     56 C          19.1493  -31.9371  -40.1475 C.2       9 UNK         0.5513 
     57 N          17.8965  -32.3448  -40.3027 N.am      9 UNK        -0.7519 
     58 O          19.3930  -30.7477  -39.9611 O.2       9 UNK        -0.4960 
     59 C59        20.4345  -33.6542  -41.6174 C.3       10 UNK        -0.0876 
     60 S60        21.3571  -32.6405  -42.8268 S.3       10 UNK        -0.2414 
     61 C61        20.5010  -33.0218  -44.3934 C.3       10 UNK         0.0169 
     62 H62        16.9566  -23.8360  -39.2867 H         1 UNK         0.0903 
     63 H63        15.2237  -23.8428  -39.6265 H         1 UNK         0.0903 
     64 H64        16.0825  -25.3657  -39.3864 H         1 UNK         0.0903 
     65 H65        16.5105  -26.4438  -41.3114 H         1 UNK         0.3096 
     66 H66        16.3216  -25.1704  -43.8771 H         1 UNK         0.1121 
     67 H67        15.5090  -27.3356  -43.9555 H         1 UNK         0.0849 
     68 H68        17.0769  -27.5115  -44.6812 H         1 UNK         0.0849 
     69 H69        16.2242  -30.9012  -42.7252 H         1 UNK         0.0865 
     70 H70        15.5274  -29.9292  -43.9937 H         1 UNK         0.0865 
     71 H71        18.3948  -31.9690  -42.9895 H         1 UNK         0.1346 
     72 H72        20.4251  -31.6524  -46.7541 H         1 UNK         0.1412 
     73 H73        16.9167  -29.3150  -46.0054 H         1 UNK         0.1426 
     74 H74        17.9484  -30.1574  -48.5041 H         1 UNK         0.0716 
     75 H75        19.6893  -30.1213  -48.4289 H         1 UNK         0.0716 
     76 H76        20.4364  -26.6547  -48.8687 H         1 UNK         0.0695 
     77 H77        21.0068  -28.2673  -48.6275 H         1 UNK         0.0695 
     78 H78        22.1092  -26.5006  -47.2117 H         1 UNK         0.0983 
     79 H79        19.4101  -26.0046  -46.2376 H         1 UNK         0.3095 
     80 H80        20.4099  -23.6625  -43.8095 H         1 UNK         0.0454 
     81 H81        20.7461  -22.2434  -45.8355 H         1 UNK         0.0851 
     82 H82        19.1690  -21.9652  -45.1197 H         1 UNK         0.0851 
     83 H83        19.3166  -22.9421  -46.5817 H         1 UNK         0.0851 
     84 H84        17.8573  -24.1230  -44.9383 H         1 UNK         0.2976 
     85 H85        20.7406  -27.3304  -44.3188 H         1 UNK         0.3116 
     86 H86        21.3573  -30.0886  -44.1108 H         1 UNK         0.0646 
     87 H87        21.0448  -27.9174  -41.9817 H         1 UNK         0.0847 
     88 H88        19.8171  -29.0516  -42.5393 H         1 UNK         0.0847 
     89 H89        21.1943  -29.6364  -41.6275 H         1 UNK         0.0847 
     90 H90        23.1887  -31.1403  -43.8785 H         1 UNK         0.3040 
     91 H91        25.7621  -29.9987  -44.0904 H         1 UNK         0.1015 
     92 H92        26.5121  -32.3622  -43.6893 H         1 UNK         0.0786 
     93 H93        25.2177  -32.2826  -44.8738 H         1 UNK         0.0786 
     94 H94        24.8754  -32.8072  -43.2253 H         1 UNK         0.0786 
     95 H95        26.6325  -28.7441  -42.5720 H         1 UNK         0.3172 
     96 H96        27.3407  -27.8246  -40.6922 H         1 UNK         0.0595 
     97 H97        27.4337  -30.6631  -39.5345 H         1 UNK         0.0839 
     98 H98        28.3358  -29.2711  -38.9555 H         1 UNK         0.0839 
     99 H99        28.6919  -29.9410  -40.5370 H         1 UNK         0.0839 
    100 H100       24.4033  -28.2661  -41.0390 H         1 UNK         0.2998 
    101 H101       22.4343  -28.0464  -40.0849 H         1 UNK         0.0822 
    102 H102       22.1496  -26.6172  -38.1091 H         1 UNK         0.0787 
    103 H103       23.3986  -25.9357  -39.1356 H         1 UNK         0.0787 
    104 H104       23.8388  -26.8056  -37.6659 H         1 UNK         0.0787 
    105 H105       24.0443  -30.5690  -39.5612 H         1 UNK         0.3055 
    106 H106       23.1701  -31.5239  -36.9601 H         1 UNK         0.1106 
    107 H107       25.3047  -32.2826  -37.9967 H         1 UNK         0.0828 
    108 H108       24.2342  -33.6402  -37.6842 H         1 UNK         0.0828 
    109 H109       24.4174  -33.0305  -39.3222 H         1 UNK         0.0828 
    110 H110       22.2005  -32.1595  -40.3544 H         1 UNK         0.2931 
    111 H111       19.9377  -33.8145  -39.5507 H         1 UNK         0.0412 
    112 H112       17.1575  -31.6613  -40.2553 H         1 UNK         0.3472 
    113 H113       17.6713  -33.3192  -40.4285 H         1 UNK         0.3472 
    114 H114       20.9778  -34.5945  -41.5130 H         1 UNK         0.0970 
    115 H115       19.4625  -33.9333  -42.0265 H         1 UNK         0.0970 
    116 H116       21.2658  -33.1564  -45.1596 H         1 UNK         0.0612 
    117 H117       19.9817  -33.9779  -44.3195 H         1 UNK         0.0612 
@<TRIPOS>BOND
     1    1    2 1    
     2    1   62 1    
     3    1   63 1    
     4    1   64 1    
     5    2    3 2    
     6    2    4 am   BACKBONE|DICT|INTERRES
     7    4    5 1    
     8    4   65 1    
     9    5    6 1    
    10    5   25 1    
    11    5   66 1    
    12    6    7 1    
    13    6   67 1    
    14    6   68 1    
    15    7    8 1    
    16    8    9 1    
    17    8   69 1    
    18    8   70 1    
    19    9   10 ar   
    20    9   14 ar   
    21   10   11 ar   
    22   10   71 1    
    23   11   12 ar   
    24   11   61 1    
    25   12   13 ar   
    26   12   72 1    
    27   13   14 ar   
    28   13   15 1    
    29   14   73 1    
    30   15   16 1    
    31   15   74 1    
    32   15   75 1    
    33   16   17 1    
    34   17   18 1    
    35   17   76 1    
    36   17   77 1    
    37   18   19 1    
    38   18   27 1    
    39   18   78 1    
    40   19   20 am   BACKBONE|DICT|INTERRES
    41   19   79 1    
    42   20   21 2    
    43   20   22 1    
    44   22   23 1    
    45   22   24 1    
    46   22   80 1    
    47   23   81 1    
    48   23   82 1    
    49   23   83 1    
    50   24   25 am   BACKBONE|DICT|INTERRES
    51   24   84 1    
    52   25   26 2    
    53   27   28 2    
    54   27   29 am   BACKBONE|DICT|INTERRES
    55   29   30 1    
    56   29   85 1    
    57   30   31 1    
    58   30   32 1    
    59   30   86 1    
    60   31   87 1    
    61   31   88 1    
    62   31   89 1    
    63   32   33 2    
    64   32   34 am   BACKBONE|DICT|INTERRES
    65   34   35 1    
    66   34   90 1    
    67   35   36 1    
    68   35   37 1    
    69   35   91 1    
    70   36   92 1    
    71   36   93 1    
    72   36   94 1    
    73   37   38 2    
    74   37   39 am   BACKBONE|DICT|INTERRES
    75   39   40 1    
    76   39   95 1    
    77   40   41 1    
    78   40   42 1    
    79   40   96 1    
    80   41   97 1    
    81   41   98 1    
    82   41   99 1    
    83   42   43 2    
    84   42   44 am   BACKBONE|DICT|INTERRES
    85   44   45 1    
    86   44  100 1    
    87   45   46 1    
    88   45   47 1    
    89   45  101 1    
    90   46  102 1    
    91   46  103 1    
    92   46  104 1    
    93   47   48 2    
    94   47   49 am   BACKBONE|DICT|INTERRES
    95   49   50 1    
    96   49  105 1    
    97   50   51 1    
    98   50   52 1    
    99   50  106 1    
   100   51  107 1    
   101   51  108 1    
   102   51  109 1    
   103   52   53 2    
   104   52   54 am   BACKBONE|DICT|INTERRES
   105   54   55 1    
   106   54  110 1    
   107   55   56 1    
   108   55   59 1    
   109   55  111 1    
   110   56   57 am   BACKBONE|DICT|INTERRES
   111   56   58 2    
   112   57  112 1    
   113   57  113 1    
   114   59   60 1    
   115   59  114 1    
   116   59  115 1    
   117   60   61 1    
   118   61  116 1    
   119   61  117 1    
@<TRIPOS>SUBSTRUCTURE
     1 UNK         1 GROUP             0       ****    0 ROOT    
