@<TRIPOS>MOLECULE
3R8
117   119    1
SMALL
USER_CHARGES


@<TRIPOS>ATOM
      1 CA         16.9078  -25.5024  -48.6632 C.3       0 UNK        -0.2013 
      2 C          17.3980  -26.3564  -47.5033 C.2       0 UNK         0.4866 
      3 O          18.2749  -27.1992  -47.6930 O.2       0 UNK        -0.5176 
      4 N          16.8321  -26.1496  -46.3077 N.am      1 UNK        -0.4884 
      5 CA         17.1966  -26.8456  -45.0683 C.3       1 UNK         0.0853 
      6 C6         16.1660  -26.5815  -43.9425 C.3       10 UNK        -0.0849 
      7 S7         14.5116  -27.2156  -44.3813 S.3       10 UNK        -0.2776 
      8 C8         14.2406  -28.5028  -43.1145 C.3       10 UNK         0.0316 
      9 C9         15.3277  -29.5746  -43.0637 C.ar      10 UNK        -0.0863 
     10 C10        15.8536  -30.1347  -44.2343 C.ar      10 UNK        -0.1009 
     11 C11        16.8428  -31.1200  -44.1702 C.ar      10 UNK        -0.0712 
     12 C12        17.2706  -31.5818  -42.9241 C.ar      10 UNK        -0.0894 
     13 C13        16.7572  -31.0329  -41.7469 C.ar      10 UNK        -0.0745 
     14 C14        15.7905  -30.0262  -41.8228 C.ar      10 UNK        -0.0972 
     15 C15        17.2275  -31.5555  -40.3974 C.3       10 UNK         0.0209 
     16 S16        19.0255  -31.3758  -40.1758 S.3       10 UNK        -0.2568 
     17 C17        19.1864  -29.6050  -39.7805 C.3       10 UNK        -0.0983 
     18 CA         20.4664  -29.0090  -40.4217 C.3       3 UNK         0.0876 
     19 N          20.2245  -28.3931  -41.7341 N.am      3 UNK        -0.4424 
     20 C          21.2072  -28.0599  -42.5852 C.2       2 UNK         0.4918 
     21 O          22.3876  -28.3574  -42.3937 O.2       2 UNK        -0.4875 
     22 CA         20.8233  -27.2370  -43.8258 C.3       2 UNK         0.0481 
     23 CB         21.7369  -27.5078  -45.0345 C.3       2 UNK        -0.1831 
     24 N          19.4229  -27.4258  -44.2149 N.am      2 UNK        -0.4498 
     25 C          18.6098  -26.4376  -44.6101 C.2       1 UNK         0.5027 
     26 O          18.9221  -25.2438  -44.6084 O.2       1 UNK        -0.4969 
     27 C          21.1861  -28.0379  -39.4636 C.2       3 UNK         0.5005 
     28 O          22.0873  -28.4630  -38.7375 O.2       3 UNK        -0.5279 
     29 N          20.8265  -26.7462  -39.5349 N.am      4 UNK        -0.4463 
     30 CA         21.4409  -25.6443  -38.7852 C.3       4 UNK         0.0283 
     31 CB         20.6140  -24.3665  -39.0008 C.3       4 UNK        -0.1875 
     32 C          22.9194  -25.3894  -39.1367 C.2       4 UNK         0.4949 
     33 O          23.6337  -24.7959  -38.3300 O.2       4 UNK        -0.5039 
     34 N          23.3669  -25.8732  -40.3037 N.am      5 UNK        -0.4663 
     35 CA         24.7593  -25.8527  -40.7593 C.3       5 UNK         0.0242 
     36 CB         24.7758  -25.6811  -42.2895 C.3       5 UNK        -0.1982 
     37 C          25.5401  -27.1017  -40.2943 C.2       5 UNK         0.5017 
     38 O          26.4585  -27.5363  -40.9893 O.2       5 UNK        -0.5012 
     39 N          25.1622  -27.6484  -39.1284 N.am      6 UNK        -0.4439 
     40 CA         25.7132  -28.8308  -38.4598 C.3       6 UNK         0.0297 
     41 CB         27.1892  -28.6113  -38.0614 C.3       6 UNK        -0.2006 
     42 C          25.4836  -30.1198  -39.2688 C.2       6 UNK         0.4892 
     43 O          26.4382  -30.8438  -39.5581 O.2       6 UNK        -0.5089 
     44 N          24.2077  -30.3790  -39.5984 N.am      7 UNK        -0.4243 
     45 CA         23.7082  -31.5672  -40.3077 C.3       7 UNK         0.0196 
     46 CB         23.8659  -32.8294  -39.4322 C.3       7 UNK        -0.2007 
     47 C          24.3103  -31.7327  -41.7175 C.2       7 UNK         0.5020 
     48 O          24.6927  -32.8394  -42.1007 O.2       7 UNK        -0.5147 
     49 N          24.3840  -30.6272  -42.4706 N.am      8 UNK        -0.4734 
     50 CA         24.9431  -30.5933  -43.8266 C.3       8 UNK         0.0238 
     51 CB         25.4949  -29.1857  -44.1019 C.3       8 UNK        -0.1912 
     52 C          23.9336  -31.0017  -44.9154 C.2       8 UNK         0.5038 
     53 O          24.3429  -31.2069  -46.0590 O.2       8 UNK        -0.5046 
     54 N          22.6451  -31.0871  -44.5584 N.am      9 UNK        -0.4200 
     55 CA         21.5404  -31.4765  -45.4462 C.3       9 UNK         0.0839 
     56 C          21.6546  -32.9395  -45.9587 C.2       9 UNK         0.5513 
     57 N          21.2275  -33.2027  -47.1857 N.am      9 UNK        -0.7519 
     58 O          22.0842  -33.8392  -45.2398 O.2       9 UNK        -0.4960 
     59 C59        20.1692  -31.2147  -44.7672 C.3       10 UNK        -0.0876 
     60 S60        18.8945  -30.6905  -45.9646 S.3       10 UNK        -0.2414 
     61 C61        17.4557  -31.6777  -45.4454 C.3       10 UNK         0.0169 
     62 H62        17.7322  -24.9209  -49.0749 H         1 UNK         0.0903 
     63 H63        16.5099  -26.1373  -49.4544 H         1 UNK         0.0903 
     64 H64        16.1236  -24.8100  -48.3577 H         1 UNK         0.0903 
     65 H65        16.1192  -25.4408  -46.2109 H         1 UNK         0.3096 
     66 H66        17.2090  -27.9148  -45.2887 H         1 UNK         0.1121 
     67 H67        16.4903  -27.0377  -43.0051 H         1 UNK         0.0849 
     68 H68        16.0818  -25.5119  -43.7400 H         1 UNK         0.0849 
     69 H69        14.1418  -28.0109  -42.1454 H         1 UNK         0.0865 
     70 H70        13.2835  -28.9884  -43.3092 H         1 UNK         0.0865 
     71 H71        15.5039  -29.7934  -45.1991 H         1 UNK         0.1346 
     72 H72        18.0139  -32.3639  -42.8627 H         1 UNK         0.1412 
     73 H73        15.3843  -29.6066  -40.9123 H         1 UNK         0.1426 
     74 H74        16.9714  -32.6134  -40.3255 H         1 UNK         0.0716 
     75 H75        16.7102  -31.0582  -39.5753 H         1 UNK         0.0716 
     76 H76        18.2957  -29.0596  -40.0967 H         1 UNK         0.0695 
     77 H77        19.2052  -29.5374  -38.6904 H         1 UNK         0.0695 
     78 H78        21.1758  -29.8182  -40.5845 H         1 UNK         0.0983 
     79 H79        19.2747  -28.1292  -41.9494 H         1 UNK         0.3095 
     80 H80        20.9812  -26.1997  -43.5245 H         1 UNK         0.0454 
     81 H81        22.7814  -27.3116  -44.7946 H         1 UNK         0.0851 
     82 H82        21.4785  -26.8633  -45.8748 H         1 UNK         0.0851 
     83 H83        21.6619  -28.5389  -45.3751 H         1 UNK         0.0851 
     84 H84        19.0950  -28.3811  -44.2705 H         1 UNK         0.2976 
     85 H85        20.0780  -26.4954  -40.1644 H         1 UNK         0.3116 
     86 H86        21.4012  -25.9034  -37.7250 H         1 UNK         0.0646 
     87 H87        20.5994  -24.0656  -40.0492 H         1 UNK         0.0847 
     88 H88        19.5827  -24.4988  -38.6730 H         1 UNK         0.0847 
     89 H89        21.0268  -23.5334  -38.4299 H         1 UNK         0.0847 
     90 H90        22.7231  -26.3939  -40.8819 H         1 UNK         0.3040 
     91 H91        25.2690  -24.9897  -40.3249 H         1 UNK         0.1015 
     92 H92        25.7957  -25.6085  -42.6695 H         1 UNK         0.0786 
     93 H93        24.2560  -24.7717  -42.5911 H         1 UNK         0.0786 
     94 H94        24.2982  -26.5204  -42.7923 H         1 UNK         0.0786 
     95 H95        24.3694  -27.2243  -38.6657 H         1 UNK         0.3172 
     96 H96        25.1438  -28.9473  -37.5363 H         1 UNK         0.0595 
     97 H97        27.8395  -28.5253  -38.9324 H         1 UNK         0.0839 
     98 H98        27.5584  -29.4466  -37.4653 H         1 UNK         0.0839 
     99 H99        27.3091  -27.7086  -37.4626 H         1 UNK         0.0839 
    100 H100       23.5036  -29.7058  -39.3060 H         1 UNK         0.2998 
    101 H101       22.6398  -31.4251  -40.4560 H         1 UNK         0.0822 
    102 H102       23.3875  -33.6913  -39.8993 H         1 UNK         0.0787 
    103 H103       23.4022  -32.6943  -38.4551 H         1 UNK         0.0787 
    104 H104       24.9138  -33.0865  -39.2741 H         1 UNK         0.0787 
    105 H105       24.0123  -29.7543  -42.1121 H         1 UNK         0.3055 
    106 H106       25.7767  -31.2971  -43.8847 H         1 UNK         0.1106 
    107 H107       26.2554  -28.9078  -43.3721 H         1 UNK         0.0828 
    108 H108       25.9581  -29.1305  -45.0879 H         1 UNK         0.0828 
    109 H109       24.7080  -28.4344  -44.0692 H         1 UNK         0.0828 
    110 H110       22.4187  -30.9221  -43.5902 H         1 UNK         0.2931 
    111 H111       21.6269  -30.8186  -46.3138 H         1 UNK         0.0412 
    112 H112       21.2776  -34.1477  -47.5332 H         1 UNK         0.3472 
    113 H113       20.8440  -32.4730  -47.7668 H         1 UNK         0.3472 
    114 H114       19.8408  -32.0925  -44.2093 H         1 UNK         0.0970 
    115 H115       20.2453  -30.4188  -44.0281 H         1 UNK         0.0970 
    116 H116       16.7156  -31.6667  -46.2469 H         1 UNK         0.0612 
    117 H117       17.7472  -32.7208  -45.3133 H         1 UNK         0.0612 
@<TRIPOS>BOND
     1    1    2 1    
     2    1   62 1    
     3    1   63 1    
     4    1   64 1    
     5    2    3 2    
     6    2    4 am   BACKBONE|DICT|INTERRES
     7    4    5 1    
     8    4   65 1    
     9    5    6 1    
    10    5   25 1    
    11    5   66 1    
    12    6    7 1    
    13    6   67 1    
    14    6   68 1    
    15    7    8 1    
    16    8    9 1    
    17    8   69 1    
    18    8   70 1    
    19    9   10 ar   
    20    9   14 ar   
    21   10   11 ar   
    22   10   71 1    
    23   11   12 ar   
    24   11   61 1    
    25   12   13 ar   
    26   12   72 1    
    27   13   14 ar   
    28   13   15 1    
    29   14   73 1    
    30   15   16 1    
    31   15   74 1    
    32   15   75 1    
    33   16   17 1    
    34   17   18 1    
    35   17   76 1    
    36   17   77 1    
    37   18   19 1    
    38   18   27 1    
    39   18   78 1    
    40   19   20 am   BACKBONE|DICT|INTERRES
    41   19   79 1    
    42   20   21 2    
    43   20   22 1    
    44   22   23 1    
    45   22   24 1    
    46   22   80 1    
    47   23   81 1    
    48   23   82 1    
    49   23   83 1    
    50   24   25 am   BACKBONE|DICT|INTERRES
    51   24   84 1    
    52   25   26 2    
    53   27   28 2    
    54   27   29 am   BACKBONE|DICT|INTERRES
    55   29   30 1    
    56   29   85 1    
    57   30   31 1    
    58   30   32 1    
    59   30   86 1    
    60   31   87 1    
    61   31   88 1    
    62   31   89 1    
    63   32   33 2    
    64   32   34 am   BACKBONE|DICT|INTERRES
    65   34   35 1    
    66   34   90 1    
    67   35   36 1    
    68   35   37 1    
    69   35   91 1    
    70   36   92 1    
    71   36   93 1    
    72   36   94 1    
    73   37   38 2    
    74   37   39 am   BACKBONE|DICT|INTERRES
    75   39   40 1    
    76   39   95 1    
    77   40   41 1    
    78   40   42 1    
    79   40   96 1    
    80   41   97 1    
    81   41   98 1    
    82   41   99 1    
    83   42   43 2    
    84   42   44 am   BACKBONE|DICT|INTERRES
    85   44   45 1    
    86   44  100 1    
    87   45   46 1    
    88   45   47 1    
    89   45  101 1    
    90   46  102 1    
    91   46  103 1    
    92   46  104 1    
    93   47   48 2    
    94   47   49 am   BACKBONE|DICT|INTERRES
    95   49   50 1    
    96   49  105 1    
    97   50   51 1    
    98   50   52 1    
    99   50  106 1    
   100   51  107 1    
   101   51  108 1    
   102   51  109 1    
   103   52   53 2    
   104   52   54 am   BACKBONE|DICT|INTERRES
   105   54   55 1    
   106   54  110 1    
   107   55   56 1    
   108   55   59 1    
   109   55  111 1    
   110   56   57 am   BACKBONE|DICT|INTERRES
   111   56   58 2    
   112   57  112 1    
   113   57  113 1    
   114   59   60 1    
   115   59  114 1    
   116   59  115 1    
   117   60   61 1    
   118   61  116 1    
   119   61  117 1    
@<TRIPOS>SUBSTRUCTURE
     1 UNK         1 GROUP             0       ****    0 ROOT    
