@<TRIPOS>MOLECULE
3R8
117   119    1
SMALL
USER_CHARGES


@<TRIPOS>ATOM
      1 CA         21.4786  -22.8101  -48.0202 C.3       0 UNK        -0.2013 
      2 C          21.5041  -23.7323  -46.8103 C.2       0 UNK         0.4866 
      3 O          21.9038  -23.3085  -45.7254 O.2       0 UNK        -0.5176 
      4 N          21.0892  -24.9932  -46.9878 N.am      1 UNK        -0.4884 
      5 CA         20.9833  -25.9875  -45.9174 C.3       1 UNK         0.0853 
      6 C6         20.9380  -27.4271  -46.4968 C.3       10 UNK        -0.0849 
      7 S7         20.8350  -28.7580  -45.2416 S.3       10 UNK        -0.2776 
      8 C8         19.0954  -29.2434  -45.4631 C.3       10 UNK         0.0316 
      9 C9         18.6369  -30.2620  -44.4315 C.ar      10 UNK        -0.0863 
     10 C10        18.8109  -31.6280  -44.6694 C.ar      10 UNK        -0.1009 
     11 C11        18.2965  -32.5739  -43.7771 C.ar      10 UNK        -0.0712 
     12 C12        17.6209  -32.1435  -42.6322 C.ar      10 UNK        -0.0894 
     13 C13        17.4609  -30.7801  -42.3701 C.ar      10 UNK        -0.0745 
     14 C14        17.9706  -29.8440  -43.2750 C.ar      10 UNK        -0.0972 
     15 C15        16.7023  -30.3330  -41.1286 C.3       10 UNK         0.0209 
     16 S16        17.6698  -30.6509  -39.6206 S.3       10 UNK        -0.2568 
     17 C17        17.8711  -28.9849  -38.9121 C.3       10 UNK        -0.0983 
     18 CA         19.0775  -28.2358  -39.5357 C.3       3 UNK         0.0876 
     19 N          18.6755  -27.4049  -40.6821 N.am      3 UNK        -0.4424 
     20 C          19.5392  -26.8877  -41.5633 C.2       2 UNK         0.4918 
     21 O          20.7584  -27.0788  -41.5154 O.2       2 UNK        -0.4875 
     22 CA         18.9666  -25.9740  -42.6534 C.3       2 UNK         0.0481 
     23 CB         18.7094  -24.5550  -42.1165 C.3       2 UNK        -0.1831 
     24 N          19.9627  -25.9430  -43.7123 N.am      2 UNK        -0.4498 
     25 C          19.7748  -25.6790  -45.0062 C.2       1 UNK         0.5027 
     26 O          18.7131  -25.2762  -45.4882 O.2       1 UNK        -0.4969 
     27 C          19.8613  -27.4314  -38.4734 C.2       3 UNK         0.5005 
     28 O          20.6832  -28.0082  -37.7609 O.2       3 UNK        -0.5279 
     29 N          19.6253  -26.1130  -38.4128 N.am      4 UNK        -0.4463 
     30 CA         20.3843  -25.1579  -37.6014 C.3       4 UNK         0.0283 
     31 CB         19.4884  -23.9412  -37.3102 C.3       4 UNK        -0.1875 
     32 C          21.7048  -24.7102  -38.2638 C.2       4 UNK         0.4949 
     33 O          22.4537  -23.9578  -37.6396 O.2       4 UNK        -0.5039 
     34 N          21.9590  -25.1432  -39.5061 N.am      5 UNK        -0.4663 
     35 CA         23.1300  -24.7969  -40.3051 C.3       5 UNK         0.0242 
     36 CB         22.6875  -23.9105  -41.4898 C.3       5 UNK        -0.1982 
     37 C          23.8495  -26.0929  -40.7124 C.2       5 UNK         0.5017 
     38 O          24.3622  -26.7891  -39.8353 O.2       5 UNK        -0.5012 
     39 N          23.9039  -26.3766  -42.0216 N.am      6 UNK        -0.4439 
     40 CA         24.6453  -27.4864  -42.6246 C.3       6 UNK         0.0297 
     41 CB         24.5937  -27.3657  -44.1571 C.3       6 UNK        -0.2006 
     42 C          24.1874  -28.8894  -42.1896 C.2       6 UNK         0.4892 
     43 O          25.0513  -29.7412  -41.9778 O.2       6 UNK        -0.5089 
     44 N          22.8623  -29.1002  -42.0893 N.am      7 UNK        -0.4243 
     45 CA         22.1803  -30.3696  -41.7852 C.3       7 UNK         0.0196 
     46 CB         22.2964  -30.6748  -40.2774 C.3       7 UNK        -0.2007 
     47 C          22.6904  -31.5327  -42.6642 C.2       7 UNK         0.5020 
     48 O          23.2748  -32.4856  -42.1471 O.2       7 UNK        -0.5147 
     49 N          22.5239  -31.3886  -43.9874 N.am      8 UNK        -0.4734 
     50 CA         23.2044  -32.1574  -45.0425 C.3       8 UNK         0.0238 
     51 CB         22.7044  -31.6769  -46.4150 C.3       8 UNK        -0.1912 
     52 C          23.1294  -33.6945  -44.9563 C.2       8 UNK         0.5038 
     53 O          24.0458  -34.3610  -45.4400 O.2       8 UNK        -0.5046 
     54 N          22.0627  -34.2290  -44.3528 N.am      9 UNK        -0.4200 
     55 CA         21.8983  -35.6595  -44.0448 C.3       9 UNK         0.0839 
     56 C          22.7530  -36.1786  -42.8500 C.2       9 UNK         0.5513 
     57 N          23.3987  -35.3303  -42.0598 N.am      9 UNK        -0.7519 
     58 O          22.8448  -37.3869  -42.6469 O.2       9 UNK        -0.4960 
     59 C59        20.4034  -36.0559  -43.9057 C.3       10 UNK        -0.0876 
     60 S60        19.4485  -34.9173  -42.8404 S.3       10 UNK        -0.2414 
     61 C61        18.4229  -34.0586  -44.0767 C.3       10 UNK         0.0169 
     62 H62        20.8269  -21.9582  -47.8280 H         1 UNK         0.0903 
     63 H63        22.4802  -22.4335  -48.2259 H         1 UNK         0.0903 
     64 H64        21.1174  -23.3186  -48.9140 H         1 UNK         0.0903 
     65 H65        20.7400  -25.2779  -47.8921 H         1 UNK         0.3096 
     66 H66        21.8884  -25.9045  -45.3119 H         1 UNK         0.1121 
     67 H67        20.1097  -27.5246  -47.2013 H         1 UNK         0.0849 
     68 H68        21.8406  -27.6074  -47.0830 H         1 UNK         0.0849 
     69 H69        18.4598  -28.3580  -45.4122 H         1 UNK         0.0865 
     70 H70        18.9633  -29.6515  -46.4665 H         1 UNK         0.0865 
     71 H71        19.3152  -31.9529  -45.5691 H         1 UNK         0.1346 
     72 H72        17.2163  -32.8730  -41.9435 H         1 UNK         0.1412 
     73 H73        17.8207  -28.7901  -43.0970 H         1 UNK         0.1426 
     74 H74        16.4334  -29.2787  -41.1986 H         1 UNK         0.0716 
     75 H75        15.7612  -30.8810  -41.0642 H         1 UNK         0.0716 
     76 H76        18.0079  -29.1388  -37.8394 H         1 UNK         0.0695 
     77 H77        16.9443  -28.4162  -39.0055 H         1 UNK         0.0695 
     78 H78        19.7868  -28.9761  -39.9114 H         1 UNK         0.0983 
     79 H79        17.6908  -27.2005  -40.7719 H         1 UNK         0.3095 
     80 H80        18.0400  -26.4047  -43.0369 H         1 UNK         0.0454 
     81 H81        19.6055  -24.1162  -41.6770 H         1 UNK         0.0851 
     82 H82        18.3682  -23.8881  -42.9083 H         1 UNK         0.0851 
     83 H83        17.9367  -24.5593  -41.3472 H         1 UNK         0.0851 
     84 H84        20.8463  -26.3353  -43.4130 H         1 UNK         0.2976 
     85 H85        18.9187  -25.7259  -39.0208 H         1 UNK         0.3116 
     86 H86        20.6411  -25.6260  -36.6487 H         1 UNK         0.0646 
     87 H87        18.5701  -24.2358  -36.8020 H         1 UNK         0.0847 
     88 H88        19.9972  -23.2262  -36.6621 H         1 UNK         0.0847 
     89 H89        19.2139  -23.4125  -38.2239 H         1 UNK         0.0847 
     90 H90        21.3424  -25.8308  -39.9213 H         1 UNK         0.3040 
     91 H91        23.8462  -24.2274  -39.7085 H         1 UNK         0.1015 
     92 H92        21.9729  -24.4135  -42.1413 H         1 UNK         0.0786 
     93 H93        23.5405  -23.6041  -42.0971 H         1 UNK         0.0786 
     94 H94        22.2128  -22.9964  -41.1324 H         1 UNK         0.0786 
     95 H95        23.4639  -25.7281  -42.6563 H         1 UNK         0.3172 
     96 H96        25.6872  -27.3751  -42.3166 H         1 UNK         0.0595 
     97 H97        23.5783  -27.4714  -44.5381 H         1 UNK         0.0839 
     98 H98        25.1947  -28.1455  -44.6275 H         1 UNK         0.0839 
     99 H99        24.9870  -26.4080  -44.4985 H         1 UNK         0.0839 
    100 H100       22.2477  -28.3038  -42.2154 H         1 UNK         0.2998 
    101 H101       21.1236  -30.2275  -42.0205 H         1 UNK         0.0822 
    102 H102       21.6964  -31.5452  -40.0090 H         1 UNK         0.0787 
    103 H103       23.3268  -30.8838  -39.9870 H         1 UNK         0.0787 
    104 H104       21.9509  -29.8376  -39.6721 H         1 UNK         0.0787 
    105 H105       22.0137  -30.5727  -44.3037 H         1 UNK         0.3055 
    106 H106       24.2641  -31.9048  -44.9661 H         1 UNK         0.1106 
    107 H107       22.9216  -30.6198  -46.5693 H         1 UNK         0.0828 
    108 H108       23.1898  -32.2232  -47.2250 H         1 UNK         0.0828 
    109 H109       21.6289  -31.8188  -46.5245 H         1 UNK         0.0828 
    110 H110       21.3748  -33.6104  -43.9483 H         1 UNK         0.2931 
    111 H111       22.2750  -36.2103  -44.9090 H         1 UNK         0.0412 
    112 H112       23.9505  -35.6907  -41.2982 H         1 UNK         0.3472 
    113 H113       23.3260  -34.3236  -42.1951 H         1 UNK         0.3472 
    114 H114       19.9518  -36.1031  -44.8969 H         1 UNK         0.0970 
    115 H115       20.2982  -37.0683  -43.5106 H         1 UNK         0.0970 
    116 H116       18.8361  -34.1949  -45.0768 H         1 UNK         0.0612 
    117 H117       17.4312  -34.5129  -44.0918 H         1 UNK         0.0612 
@<TRIPOS>BOND
     1    1    2 1    
     2    1   62 1    
     3    1   63 1    
     4    1   64 1    
     5    2    3 2    
     6    2    4 am   BACKBONE|DICT|INTERRES
     7    4    5 1    
     8    4   65 1    
     9    5    6 1    
    10    5   25 1    
    11    5   66 1    
    12    6    7 1    
    13    6   67 1    
    14    6   68 1    
    15    7    8 1    
    16    8    9 1    
    17    8   69 1    
    18    8   70 1    
    19    9   10 ar   
    20    9   14 ar   
    21   10   11 ar   
    22   10   71 1    
    23   11   12 ar   
    24   11   61 1    
    25   12   13 ar   
    26   12   72 1    
    27   13   14 ar   
    28   13   15 1    
    29   14   73 1    
    30   15   16 1    
    31   15   74 1    
    32   15   75 1    
    33   16   17 1    
    34   17   18 1    
    35   17   76 1    
    36   17   77 1    
    37   18   19 1    
    38   18   27 1    
    39   18   78 1    
    40   19   20 am   BACKBONE|DICT|INTERRES
    41   19   79 1    
    42   20   21 2    
    43   20   22 1    
    44   22   23 1    
    45   22   24 1    
    46   22   80 1    
    47   23   81 1    
    48   23   82 1    
    49   23   83 1    
    50   24   25 am   BACKBONE|DICT|INTERRES
    51   24   84 1    
    52   25   26 2    
    53   27   28 2    
    54   27   29 am   BACKBONE|DICT|INTERRES
    55   29   30 1    
    56   29   85 1    
    57   30   31 1    
    58   30   32 1    
    59   30   86 1    
    60   31   87 1    
    61   31   88 1    
    62   31   89 1    
    63   32   33 2    
    64   32   34 am   BACKBONE|DICT|INTERRES
    65   34   35 1    
    66   34   90 1    
    67   35   36 1    
    68   35   37 1    
    69   35   91 1    
    70   36   92 1    
    71   36   93 1    
    72   36   94 1    
    73   37   38 2    
    74   37   39 am   BACKBONE|DICT|INTERRES
    75   39   40 1    
    76   39   95 1    
    77   40   41 1    
    78   40   42 1    
    79   40   96 1    
    80   41   97 1    
    81   41   98 1    
    82   41   99 1    
    83   42   43 2    
    84   42   44 am   BACKBONE|DICT|INTERRES
    85   44   45 1    
    86   44  100 1    
    87   45   46 1    
    88   45   47 1    
    89   45  101 1    
    90   46  102 1    
    91   46  103 1    
    92   46  104 1    
    93   47   48 2    
    94   47   49 am   BACKBONE|DICT|INTERRES
    95   49   50 1    
    96   49  105 1    
    97   50   51 1    
    98   50   52 1    
    99   50  106 1    
   100   51  107 1    
   101   51  108 1    
   102   51  109 1    
   103   52   53 2    
   104   52   54 am   BACKBONE|DICT|INTERRES
   105   54   55 1    
   106   54  110 1    
   107   55   56 1    
   108   55   59 1    
   109   55  111 1    
   110   56   57 am   BACKBONE|DICT|INTERRES
   111   56   58 2    
   112   57  112 1    
   113   57  113 1    
   114   59   60 1    
   115   59  114 1    
   116   59  115 1    
   117   60   61 1    
   118   61  116 1    
   119   61  117 1    
@<TRIPOS>SUBSTRUCTURE
     1 UNK         1 GROUP             0       ****    0 ROOT    
