@<TRIPOS>MOLECULE
3R8
117   119    1
SMALL
USER_CHARGES


@<TRIPOS>ATOM
      1 CA         15.9901  -22.6751  -42.2312 C.3       0 UNK        -0.2013 
      2 C          16.2619  -23.6031  -43.4057 C.2       0 UNK         0.4866 
      3 O          16.2225  -23.1641  -44.5557 O.2       0 UNK        -0.5176 
      4 N          16.5271  -24.8849  -43.1263 N.am      1 UNK        -0.4884 
      5 CA         16.8890  -25.9105  -44.1093 C.3       1 UNK         0.0853 
      6 C6         16.7346  -27.3504  -43.5515 C.3       10 UNK        -0.0849 
      7 S7         17.2228  -27.5762  -41.7994 S.3       10 UNK        -0.2776 
      8 C8         18.8277  -28.4271  -41.9231 C.3       10 UNK         0.0316 
      9 C9         18.7641  -29.7139  -42.7375 C.ar      10 UNK        -0.0863 
     10 C10        17.8395  -30.7186  -42.4369 C.ar      10 UNK        -0.1009 
     11 C11        17.7907  -31.8875  -43.2019 C.ar      10 UNK        -0.0712 
     12 C12        18.6980  -32.0600  -44.2522 C.ar      10 UNK        -0.0894 
     13 C13        19.6395  -31.0713  -44.5590 C.ar      10 UNK        -0.0745 
     14 C14        19.6505  -29.8950  -43.8000 C.ar      10 UNK        -0.0972 
     15 C15        20.6512  -31.3325  -45.6784 C.3       10 UNK         0.0209 
     16 S16        21.0979  -29.8813  -46.6949 S.3       10 UNK        -0.2568 
     17 C17        22.3822  -29.0688  -45.6711 C.3       10 UNK        -0.0983 
     18 CA         22.3485  -27.5078  -45.6733 C.3       3 UNK         0.0876 
     19 N          21.0457  -26.9303  -46.0391 N.am      3 UNK        -0.4424 
     20 C          20.8881  -25.6985  -46.5404 C.2       2 UNK         0.4918 
     21 O          21.8178  -24.9133  -46.7285 O.2       2 UNK        -0.4875 
     22 CA         19.4599  -25.2558  -46.8978 C.3       2 UNK         0.0481 
     23 CB         19.1538  -25.6044  -48.3634 C.3       2 UNK        -0.1831 
     24 N          18.3798  -25.7691  -46.0453 N.am      2 UNK        -0.4498 
     25 C          18.2848  -25.6396  -44.7128 C.2       1 UNK         0.5027 
     26 O          19.2188  -25.3030  -43.9802 O.2       1 UNK        -0.4969 
     27 C          22.8973  -26.9350  -44.3444 C.2       3 UNK         0.5005 
     28 O          24.0755  -27.1438  -44.0508 O.2       3 UNK        -0.5279 
     29 N          22.0432  -26.2358  -43.5745 N.am      4 UNK        -0.4463 
     30 CA         22.2719  -25.6805  -42.2354 C.3       4 UNK         0.0283 
     31 CB         23.4384  -24.6675  -42.2463 C.3       4 UNK        -0.1875 
     32 C          22.4531  -26.7695  -41.1612 C.2       4 UNK         0.4949 
     33 O          22.3993  -27.9633  -41.4597 O.2       4 UNK        -0.5039 
     34 N          22.6559  -26.3361  -39.9093 N.am      5 UNK        -0.4663 
     35 CA         22.8683  -27.2093  -38.7478 C.3       5 UNK         0.0242 
     36 CB         22.8736  -26.3578  -37.4682 C.3       5 UNK        -0.1982 
     37 C          24.1537  -28.0527  -38.8357 C.2       5 UNK         0.5017 
     38 O          24.1965  -29.1518  -38.2834 O.2       5 UNK        -0.5012 
     39 N          25.1654  -27.5270  -39.5406 N.am      6 UNK        -0.4439 
     40 CA         26.4747  -28.1482  -39.7507 C.3       6 UNK         0.0297 
     41 CB         27.4204  -27.1139  -40.3831 C.3       6 UNK        -0.2006 
     42 C          26.4450  -29.4317  -40.6017 C.2       6 UNK         0.4892 
     43 O          27.3733  -30.2337  -40.4902 O.2       6 UNK        -0.5089 
     44 N          25.4071  -29.6065  -41.4301 N.am      7 UNK        -0.4243 
     45 CA         25.2303  -30.7634  -42.3096 C.3       7 UNK         0.0196 
     46 CB         25.7417  -30.4197  -43.7222 C.3       7 UNK        -0.2007 
     47 C          23.7715  -31.2456  -42.3027 C.2       7 UNK         0.5020 
     48 O          23.2978  -31.7607  -43.3153 O.2       7 UNK        -0.5147 
     49 N          23.0782  -31.0693  -41.1698 N.am      8 UNK        -0.4734 
     50 CA         21.6793  -31.4609  -40.9898 C.3       8 UNK         0.0238 
     51 CB         21.1339  -30.8181  -39.7048 C.3       8 UNK        -0.1912 
     52 C          21.4828  -32.9848  -40.9568 C.2       8 UNK         0.5038 
     53 O          22.4083  -33.7235  -40.6100 O.2       8 UNK        -0.5046 
     54 N          20.2583  -33.4143  -41.2802 N.am      9 UNK        -0.4200 
     55 CA         19.8123  -34.8153  -41.2547 C.3       9 UNK         0.0839 
     56 C          19.7233  -35.4714  -39.8433 C.2       9 UNK         0.5513 
     57 N          19.7924  -34.7211  -38.7499 N.am      9 UNK        -0.7519 
     58 O          19.5982  -36.6893  -39.7426 O.2       9 UNK        -0.4960 
     59 C59        18.4991  -35.0001  -42.0602 C.3       10 UNK        -0.0876 
     60 S60        17.1218  -33.9566  -41.4574 S.3       10 UNK        -0.2414 
     61 C61        16.7311  -32.9435  -42.9180 C.3       10 UNK         0.0169 
     62 H62        14.9966  -22.2367  -42.3211 H         1 UNK         0.0903 
     63 H63        16.0446  -23.1988  -41.2769 H         1 UNK         0.0903 
     64 H64        16.7200  -21.8662  -42.2161 H         1 UNK         0.0903 
     65 H65        16.5744  -25.1926  -42.1643 H         1 UNK         0.3096 
     66 H66        16.1700  -25.8142  -44.9267 H         1 UNK         0.1121 
     67 H67        17.2372  -28.0764  -44.1925 H         1 UNK         0.0849 
     68 H68        15.6800  -27.6253  -43.6032 H         1 UNK         0.0849 
     69 H69        19.5550  -27.7314  -42.3447 H         1 UNK         0.0865 
     70 H70        19.1806  -28.6622  -40.9186 H         1 UNK         0.0865 
     71 H71        17.1425  -30.5813  -41.6211 H         1 UNK         0.1346 
     72 H72        18.6688  -32.9695  -44.8366 H         1 UNK         0.1412 
     73 H73        20.3553  -29.1096  -44.0115 H         1 UNK         0.1426 
     74 H74        21.5541  -31.7681  -45.2513 H         1 UNK         0.0716 
     75 H75        20.2509  -32.0849  -46.3595 H         1 UNK         0.0716 
     76 H76        22.3428  -29.4744  -44.6592 H         1 UNK         0.0695 
     77 H77        23.3512  -29.4014  -46.0467 H         1 UNK         0.0695 
     78 H78        23.0548  -27.1880  -46.4433 H         1 UNK         0.0983 
     79 H79        20.2427  -27.5369  -45.9597 H         1 UNK         0.3095 
     80 H80        19.4361  -24.1682  -46.8031 H         1 UNK         0.0454 
     81 H81        19.1068  -26.6829  -48.5204 H         1 UNK         0.0851 
     82 H82        18.2054  -25.1749  -48.6867 H         1 UNK         0.0851 
     83 H83        19.9246  -25.2128  -49.0290 H         1 UNK         0.0851 
     84 H84        17.5616  -26.0908  -46.5428 H         1 UNK         0.2976 
     85 H85        21.0976  -26.1055  -43.9201 H         1 UNK         0.3116 
     86 H86        21.3581  -25.1409  -41.9818 H         1 UNK         0.0646 
     87 H87        24.4057  -25.1586  -42.3563 H         1 UNK         0.0847 
     88 H88        23.3333  -23.9545  -43.0641 H         1 UNK         0.0847 
     89 H89        23.4730  -24.0872  -41.3241 H         1 UNK         0.0847 
     90 H90        22.6604  -25.3415  -39.7328 H         1 UNK         0.3040 
     91 H91        22.0268  -27.9010  -38.6890 H         1 UNK         0.1015 
     92 H92        23.6816  -25.6250  -37.4721 H         1 UNK         0.0786 
     93 H93        23.0059  -26.9834  -36.5840 H         1 UNK         0.0786 
     94 H94        21.9327  -25.8214  -37.3437 H         1 UNK         0.0786 
     95 H95        25.0198  -26.6207  -39.9606 H         1 UNK         0.3172 
     96 H96        26.8723  -28.4192  -38.7703 H         1 UNK         0.0595 
     97 H97        28.4182  -27.5321  -40.5247 H         1 UNK         0.0839 
     98 H98        27.5292  -26.2329  -39.7503 H         1 UNK         0.0839 
     99 H99        27.0643  -26.7860  -41.3609 H         1 UNK         0.0839 
    100 H100       24.6713  -28.9101  -41.4596 H         1 UNK         0.2998 
    101 H101       25.8152  -31.6059  -41.9346 H         1 UNK         0.0822 
    102 H102       25.6746  -31.2814  -44.3874 H         1 UNK         0.0787 
    103 H103       25.1615  -29.6133  -44.1707 H         1 UNK         0.0787 
    104 H104       26.7864  -30.1093  -43.7012 H         1 UNK         0.0787 
    105 H105       23.5459  -30.6645  -40.3712 H         1 UNK         0.3055 
    106 H106       21.1205  -31.0690  -41.8397 H         1 UNK         0.1106 
    107 H107       21.1678  -29.7324  -39.7709 H         1 UNK         0.0828 
    108 H108       20.0918  -31.0917  -39.5346 H         1 UNK         0.0828 
    109 H109       21.7035  -31.1220  -38.8256 H         1 UNK         0.0828 
    110 H110       19.5486  -32.7425  -41.5371 H         1 UNK         0.2931 
    111 H111       20.5802  -35.3850  -41.7817 H         1 UNK         0.0412 
    112 H112       19.7378  -35.1609  -37.8446 H         1 UNK         0.3472 
    113 H113       19.8926  -33.7221  -38.8216 H         1 UNK         0.3472 
    114 H114       18.6881  -34.7839  -43.1119 H         1 UNK         0.0970 
    115 H115       18.1772  -36.0432  -42.0397 H         1 UNK         0.0970 
    116 H116       16.5866  -33.5934  -43.7825 H         1 UNK         0.0612 
    117 H117       15.7731  -32.4494  -42.7499 H         1 UNK         0.0612 
@<TRIPOS>BOND
     1    1    2 1    
     2    1   62 1    
     3    1   63 1    
     4    1   64 1    
     5    2    3 2    
     6    2    4 am   BACKBONE|DICT|INTERRES
     7    4    5 1    
     8    4   65 1    
     9    5    6 1    
    10    5   25 1    
    11    5   66 1    
    12    6    7 1    
    13    6   67 1    
    14    6   68 1    
    15    7    8 1    
    16    8    9 1    
    17    8   69 1    
    18    8   70 1    
    19    9   10 ar   
    20    9   14 ar   
    21   10   11 ar   
    22   10   71 1    
    23   11   12 ar   
    24   11   61 1    
    25   12   13 ar   
    26   12   72 1    
    27   13   14 ar   
    28   13   15 1    
    29   14   73 1    
    30   15   16 1    
    31   15   74 1    
    32   15   75 1    
    33   16   17 1    
    34   17   18 1    
    35   17   76 1    
    36   17   77 1    
    37   18   19 1    
    38   18   27 1    
    39   18   78 1    
    40   19   20 am   BACKBONE|DICT|INTERRES
    41   19   79 1    
    42   20   21 2    
    43   20   22 1    
    44   22   23 1    
    45   22   24 1    
    46   22   80 1    
    47   23   81 1    
    48   23   82 1    
    49   23   83 1    
    50   24   25 am   BACKBONE|DICT|INTERRES
    51   24   84 1    
    52   25   26 2    
    53   27   28 2    
    54   27   29 am   BACKBONE|DICT|INTERRES
    55   29   30 1    
    56   29   85 1    
    57   30   31 1    
    58   30   32 1    
    59   30   86 1    
    60   31   87 1    
    61   31   88 1    
    62   31   89 1    
    63   32   33 2    
    64   32   34 am   BACKBONE|DICT|INTERRES
    65   34   35 1    
    66   34   90 1    
    67   35   36 1    
    68   35   37 1    
    69   35   91 1    
    70   36   92 1    
    71   36   93 1    
    72   36   94 1    
    73   37   38 2    
    74   37   39 am   BACKBONE|DICT|INTERRES
    75   39   40 1    
    76   39   95 1    
    77   40   41 1    
    78   40   42 1    
    79   40   96 1    
    80   41   97 1    
    81   41   98 1    
    82   41   99 1    
    83   42   43 2    
    84   42   44 am   BACKBONE|DICT|INTERRES
    85   44   45 1    
    86   44  100 1    
    87   45   46 1    
    88   45   47 1    
    89   45  101 1    
    90   46  102 1    
    91   46  103 1    
    92   46  104 1    
    93   47   48 2    
    94   47   49 am   BACKBONE|DICT|INTERRES
    95   49   50 1    
    96   49  105 1    
    97   50   51 1    
    98   50   52 1    
    99   50  106 1    
   100   51  107 1    
   101   51  108 1    
   102   51  109 1    
   103   52   53 2    
   104   52   54 am   BACKBONE|DICT|INTERRES
   105   54   55 1    
   106   54  110 1    
   107   55   56 1    
   108   55   59 1    
   109   55  111 1    
   110   56   57 am   BACKBONE|DICT|INTERRES
   111   56   58 2    
   112   57  112 1    
   113   57  113 1    
   114   59   60 1    
   115   59  114 1    
   116   59  115 1    
   117   60   61 1    
   118   61  116 1    
   119   61  117 1    
@<TRIPOS>SUBSTRUCTURE
     1 UNK         1 GROUP             0       ****    0 ROOT    
