@<TRIPOS>MOLECULE
3R8
117   119    1
SMALL
USER_CHARGES


@<TRIPOS>ATOM
      1 CA         15.3861  -23.8500  -43.0162 C.3       0 UNK        -0.2013 
      2 C          16.2255  -25.0847  -43.3063 C.2       0 UNK         0.4866 
      3 O          17.1513  -25.0191  -44.1161 O.2       0 UNK        -0.5176 
      4 N          15.9156  -26.2091  -42.6475 N.am      1 UNK        -0.4884 
      5 CA         16.5977  -27.5024  -42.7875 C.3       1 UNK         0.0853 
      6 C6         15.6905  -28.6771  -42.3402 C.3       10 UNK        -0.0849 
      7 S7         14.3473  -28.9464  -43.5458 S.3       10 UNK        -0.2776 
      8 C8         14.9217  -30.4365  -44.4318 C.3       10 UNK         0.0316 
      9 C9         16.3501  -30.3081  -44.9513 C.ar      10 UNK        -0.0863 
     10 C10        17.3667  -31.1022  -44.4093 C.ar      10 UNK        -0.1009 
     11 C11        18.6782  -30.9931  -44.8790 C.ar      10 UNK        -0.0712 
     12 C12        18.9705  -30.0858  -45.8995 C.ar      10 UNK        -0.0894 
     13 C13        17.9691  -29.2763  -46.4413 C.ar      10 UNK        -0.0745 
     14 C14        16.6571  -29.4002  -45.9711 C.ar      10 UNK        -0.0972 
     15 C15        18.3012  -28.2785  -47.5415 C.3       10 UNK         0.0209 
     16 S16        18.8962  -26.6962  -46.8642 S.3       10 UNK        -0.2568 
     17 C17        20.6964  -26.9872  -46.7605 C.3       10 UNK        -0.0983 
     18 CA         21.4225  -25.9228  -45.8928 C.3       3 UNK         0.0876 
     19 N          20.8993  -25.8865  -44.5146 N.am      3 UNK        -0.4424 
     20 C          21.1478  -26.7723  -43.5354 C.2       2 UNK         0.4918 
     21 O          21.9925  -27.6619  -43.6070 O.2       2 UNK        -0.4875 
     22 CA         20.3028  -26.6551  -42.2649 C.3       2 UNK         0.0481 
     23 CB         20.5934  -25.3521  -41.5008 C.3       2 UNK        -0.1831 
     24 N          18.8954  -26.7225  -42.6361 N.am      2 UNK        -0.4498 
     25 C          17.9647  -27.4974  -42.0741 C.2       1 UNK         0.5027 
     26 O          18.1409  -28.1634  -41.0524 O.2       1 UNK        -0.4969 
     27 C          22.9664  -26.0484  -45.9715 C.2       3 UNK         0.5005 
     28 O          23.4859  -26.7558  -46.8362 O.2       3 UNK        -0.5279 
     29 N          23.6667  -25.3931  -45.0311 N.am      4 UNK        -0.4463 
     30 CA         25.1191  -25.4106  -44.7866 C.3       4 UNK         0.0283 
     31 CB         25.9091  -24.9333  -46.0230 C.3       4 UNK        -0.1875 
     32 C          25.6846  -26.7377  -44.2316 C.2       4 UNK         0.4949 
     33 O          26.8470  -26.7566  -43.8255 O.2       4 UNK        -0.5039 
     34 N          24.8774  -27.8056  -44.1795 N.am      5 UNK        -0.4663 
     35 CA         25.2093  -29.0785  -43.5308 C.3       5 UNK         0.0242 
     36 CB         24.4117  -30.2050  -44.2036 C.3       5 UNK        -0.1982 
     37 C          24.9404  -29.0287  -42.0151 C.2       5 UNK         0.5017 
     38 O          25.6407  -29.6970  -41.2533 O.2       5 UNK        -0.5012 
     39 N          23.9623  -28.2034  -41.6125 N.am      6 UNK        -0.4439 
     40 CA         23.6182  -27.8078  -40.2452 C.3       6 UNK         0.0297 
     41 CB         24.7241  -26.9018  -39.6574 C.3       6 UNK        -0.2006 
     42 C          23.2473  -29.0112  -39.3622 C.2       6 UNK         0.4892 
     43 O          22.2152  -29.6337  -39.6092 O.2       6 UNK        -0.5089 
     44 N          24.0828  -29.3180  -38.3594 N.am      7 UNK        -0.4243 
     45 CA         23.8861  -30.3729  -37.3578 C.3       7 UNK         0.0196 
     46 CB         25.0291  -30.3017  -36.3315 C.3       7 UNK        -0.2007 
     47 C          23.7589  -31.8007  -37.9225 C.2       7 UNK         0.5020 
     48 O          23.2638  -32.6791  -37.2159 O.2       7 UNK        -0.5147 
     49 N          24.1925  -32.0162  -39.1719 N.am      8 UNK        -0.4734 
     50 CA         23.9967  -33.2679  -39.9057 C.3       8 UNK         0.0238 
     51 CB         24.9126  -33.2740  -41.1392 C.3       8 UNK        -0.1912 
     52 C          22.5319  -33.5117  -40.3202 C.2       8 UNK         0.5038 
     53 O          22.1578  -34.6695  -40.5138 O.2       8 UNK        -0.5046 
     54 N          21.7390  -32.4409  -40.4616 N.am      9 UNK        -0.4200 
     55 CA         20.3143  -32.4993  -40.8154 C.3       9 UNK         0.0839 
     56 C          19.4291  -32.7762  -39.5734 C.2       9 UNK         0.5513 
     57 N          18.3256  -33.4904  -39.7493 N.am      9 UNK        -0.7519 
     58 O          19.7071  -32.3234  -38.4650 O.2       9 UNK        -0.4960 
     59 C59        19.8503  -31.2175  -41.5542 C.3       10 UNK        -0.0876 
     60 S60        20.7898  -30.9485  -43.0928 S.3       10 UNK        -0.2414 
     61 C61        19.7864  -31.8605  -44.3043 C.3       10 UNK         0.0169 
     62 H62        14.6013  -24.0513  -42.2872 H         1 UNK         0.0903 
     63 H63        16.0165  -23.0519  -42.6252 H         1 UNK         0.0903 
     64 H64        14.9149  -23.4945  -43.9321 H         1 UNK         0.0903 
     65 H65        15.1515  -26.1959  -41.9868 H         1 UNK         0.3096 
     66 H66        16.8246  -27.6472  -43.8458 H         1 UNK         0.1121 
     67 H67        15.2571  -28.4809  -41.3580 H         1 UNK         0.0849 
     68 H68        16.2586  -29.6027  -42.2321 H         1 UNK         0.0849 
     69 H69        14.8286  -31.2971  -43.7673 H         1 UNK         0.0865 
     70 H70        14.2515  -30.6294  -45.2707 H         1 UNK         0.0865 
     71 H71        17.1381  -31.8079  -43.6224 H         1 UNK         0.1346 
     72 H72        19.9842  -30.0118  -46.2661 H         1 UNK         0.1412 
     73 H73        15.8747  -28.7795  -46.3869 H         1 UNK         0.1426 
     74 H74        17.4132  -28.0850  -48.1452 H         1 UNK         0.0716 
     75 H75        19.0438  -28.6960  -48.2233 H         1 UNK         0.0716 
     76 H76        21.0812  -26.9866  -47.7820 H         1 UNK         0.0695 
     77 H77        20.8862  -27.9818  -46.3584 H         1 UNK         0.0695 
     78 H78        21.1992  -24.9460  -46.3255 H         1 UNK         0.0983 
     79 H79        20.2084  -25.1694  -44.3474 H         1 UNK         0.3095 
     80 H80        20.5609  -27.5008  -41.6231 H         1 UNK         0.0454 
     81 H81        20.0749  -25.3396  -40.5421 H         1 UNK         0.0851 
     82 H82        20.2773  -24.4698  -42.0581 H         1 UNK         0.0851 
     83 H83        21.6586  -25.2437  -41.2940 H         1 UNK         0.0851 
     84 H84        18.6043  -26.1828  -43.4464 H         1 UNK         0.2976 
     85 H85        23.1314  -24.8581  -44.3608 H         1 UNK         0.3116 
     86 H86        25.2832  -24.6739  -43.9987 H         1 UNK         0.0646 
     87 H87        25.8596  -25.6507  -46.8423 H         1 UNK         0.0847 
     88 H88        25.5365  -23.9769  -46.3893 H         1 UNK         0.0847 
     89 H89        26.9640  -24.7971  -45.7815 H         1 UNK         0.0847 
     90 H90        23.9239  -27.7041  -44.5072 H         1 UNK         0.3040 
     91 H91        26.2728  -29.2858  -43.6691 H         1 UNK         0.1015 
     92 H92        24.6336  -31.1711  -43.7515 H         1 UNK         0.0786 
     93 H93        24.6552  -30.2812  -45.2634 H         1 UNK         0.0786 
     94 H94        23.3380  -30.0401  -44.1217 H         1 UNK         0.0786 
     95 H95        23.3600  -27.8333  -42.3430 H         1 UNK         0.3172 
     96 H96        22.7124  -27.2065  -40.3191 H         1 UNK         0.0595 
     97 H97        25.6889  -27.4069  -39.5990 H         1 UNK         0.0839 
     98 H98        24.4639  -26.5572  -38.6555 H         1 UNK         0.0839 
     99 H99        24.8617  -26.0114  -40.2712 H         1 UNK         0.0839 
    100 H100       24.9217  -28.7642  -38.2648 H         1 UNK         0.2998 
    101 H101       22.9484  -30.1556  -36.8420 H         1 UNK         0.0822 
    102 H102       24.8995  -31.0501  -35.5482 H         1 UNK         0.0787 
    103 H103       25.0651  -29.3283  -35.8418 H         1 UNK         0.0787 
    104 H104       25.9992  -30.4821  -36.7967 H         1 UNK         0.0787 
    105 H105       24.5992  -31.2414  -39.6814 H         1 UNK         0.3055 
    106 H106       24.2914  -34.0954  -39.2560 H         1 UNK         0.1106 
    107 H107       25.9613  -33.1789  -40.8573 H         1 UNK         0.0828 
    108 H108       24.8100  -34.2045  -41.6993 H         1 UNK         0.0828 
    109 H109       24.6722  -32.4559  -41.8172 H         1 UNK         0.0828 
    110 H110       22.0919  -31.5199  -40.2219 H         1 UNK         0.2931 
    111 H111       20.1770  -33.3346  -41.5055 H         1 UNK         0.0412 
    112 H112       17.7280  -33.6705  -38.9574 H         1 UNK         0.3472 
    113 H113       18.0846  -33.8670  -40.6530 H         1 UNK         0.3472 
    114 H114       19.9787  -30.3397  -40.9182 H         1 UNK         0.0970 
    115 H115       18.7857  -31.2611  -41.7887 H         1 UNK         0.0970 
    116 H116       20.4388  -32.1950  -45.1122 H         1 UNK         0.0612 
    117 H117       19.3798  -32.7649  -43.8495 H         1 UNK         0.0612 
@<TRIPOS>BOND
     1    1    2 1    
     2    1   62 1    
     3    1   63 1    
     4    1   64 1    
     5    2    3 2    
     6    2    4 am   BACKBONE|DICT|INTERRES
     7    4    5 1    
     8    4   65 1    
     9    5    6 1    
    10    5   25 1    
    11    5   66 1    
    12    6    7 1    
    13    6   67 1    
    14    6   68 1    
    15    7    8 1    
    16    8    9 1    
    17    8   69 1    
    18    8   70 1    
    19    9   10 ar   
    20    9   14 ar   
    21   10   11 ar   
    22   10   71 1    
    23   11   12 ar   
    24   11   61 1    
    25   12   13 ar   
    26   12   72 1    
    27   13   14 ar   
    28   13   15 1    
    29   14   73 1    
    30   15   16 1    
    31   15   74 1    
    32   15   75 1    
    33   16   17 1    
    34   17   18 1    
    35   17   76 1    
    36   17   77 1    
    37   18   19 1    
    38   18   27 1    
    39   18   78 1    
    40   19   20 am   BACKBONE|DICT|INTERRES
    41   19   79 1    
    42   20   21 2    
    43   20   22 1    
    44   22   23 1    
    45   22   24 1    
    46   22   80 1    
    47   23   81 1    
    48   23   82 1    
    49   23   83 1    
    50   24   25 am   BACKBONE|DICT|INTERRES
    51   24   84 1    
    52   25   26 2    
    53   27   28 2    
    54   27   29 am   BACKBONE|DICT|INTERRES
    55   29   30 1    
    56   29   85 1    
    57   30   31 1    
    58   30   32 1    
    59   30   86 1    
    60   31   87 1    
    61   31   88 1    
    62   31   89 1    
    63   32   33 2    
    64   32   34 am   BACKBONE|DICT|INTERRES
    65   34   35 1    
    66   34   90 1    
    67   35   36 1    
    68   35   37 1    
    69   35   91 1    
    70   36   92 1    
    71   36   93 1    
    72   36   94 1    
    73   37   38 2    
    74   37   39 am   BACKBONE|DICT|INTERRES
    75   39   40 1    
    76   39   95 1    
    77   40   41 1    
    78   40   42 1    
    79   40   96 1    
    80   41   97 1    
    81   41   98 1    
    82   41   99 1    
    83   42   43 2    
    84   42   44 am   BACKBONE|DICT|INTERRES
    85   44   45 1    
    86   44  100 1    
    87   45   46 1    
    88   45   47 1    
    89   45  101 1    
    90   46  102 1    
    91   46  103 1    
    92   46  104 1    
    93   47   48 2    
    94   47   49 am   BACKBONE|DICT|INTERRES
    95   49   50 1    
    96   49  105 1    
    97   50   51 1    
    98   50   52 1    
    99   50  106 1    
   100   51  107 1    
   101   51  108 1    
   102   51  109 1    
   103   52   53 2    
   104   52   54 am   BACKBONE|DICT|INTERRES
   105   54   55 1    
   106   54  110 1    
   107   55   56 1    
   108   55   59 1    
   109   55  111 1    
   110   56   57 am   BACKBONE|DICT|INTERRES
   111   56   58 2    
   112   57  112 1    
   113   57  113 1    
   114   59   60 1    
   115   59  114 1    
   116   59  115 1    
   117   60   61 1    
   118   61  116 1    
   119   61  117 1    
@<TRIPOS>SUBSTRUCTURE
     1 UNK         1 GROUP             0       ****    0 ROOT    
