@<TRIPOS>MOLECULE
3R8
117   119    1
SMALL
USER_CHARGES


@<TRIPOS>ATOM
      1 CA         16.4618  -24.8619  -39.5931 C.3       0 UNK        -0.2013 
      2 C          16.4009  -24.7933  -41.1119 C.2       0 UNK         0.4866 
      3 O          15.9272  -23.7980  -41.6615 O.2       0 UNK        -0.5176 
      4 N          16.8686  -25.8467  -41.7933 N.am      1 UNK        -0.4884 
      5 CA         16.9637  -25.9190  -43.2552 C.3       1 UNK         0.0853 
      6 C6         17.0792  -27.3889  -43.7267 C.3       10 UNK        -0.0849 
      7 S7         16.4756  -27.6252  -45.4337 S.3       10 UNK        -0.2776 
      8 C8         16.5630  -29.4392  -45.5995 C.3       10 UNK         0.0316 
      9 C9         17.9660  -29.9578  -45.3229 C.ar      10 UNK        -0.0863 
     10 C10        18.2365  -30.6754  -44.1555 C.ar      10 UNK        -0.1009 
     11 C11        19.5373  -31.0958  -43.8654 C.ar      10 UNK        -0.0712 
     12 C12        20.5765  -30.7876  -44.7502 C.ar      10 UNK        -0.0894 
     13 C13        20.3151  -30.0704  -45.9241 C.ar      10 UNK        -0.0745 
     14 C14        19.0047  -29.6779  -46.2127 C.ar      10 UNK        -0.0972 
     15 C15        21.4429  -29.7009  -46.8789 C.3       10 UNK         0.0209 
     16 S16        21.5599  -27.8990  -47.1450 S.3       10 UNK        -0.2568 
     17 C17        22.1317  -27.3458  -45.5098 C.3       10 UNK        -0.0983 
     18 CA         22.2625  -25.8022  -45.4068 C.3       3 UNK         0.0876 
     19 N          20.9701  -25.1430  -45.2336 N.am      3 UNK        -0.4424 
     20 C          20.2878  -24.4906  -46.1781 C.2       2 UNK         0.4918 
     21 O          20.6377  -24.4392  -47.3586 O.2       2 UNK        -0.4875 
     22 CA         19.0097  -23.7537  -45.7211 C.3       2 UNK         0.0481 
     23 CB         18.2914  -23.0419  -46.8832 C.3       2 UNK        -0.1831 
     24 N          18.0487  -24.6285  -45.0424 N.am      2 UNK        -0.4498 
     25 C          18.1339  -25.0529  -43.7752 C.2       1 UNK         0.5027 
     26 O          19.0921  -24.7995  -43.0398 O.2       1 UNK        -0.4969 
     27 C          23.1230  -25.4444  -44.1877 C.2       3 UNK         0.5005 
     28 O          22.5963  -25.3415  -43.0777 O.2       3 UNK        -0.5279 
     29 N          24.4456  -25.3560  -44.3877 N.am      4 UNK        -0.4463 
     30 CA         25.4296  -25.3348  -43.2966 C.3       4 UNK         0.0283 
     31 CB         26.8042  -24.9240  -43.8476 C.3       4 UNK        -0.1875 
     32 C          25.5178  -26.6974  -42.5811 C.2       4 UNK         0.4949 
     33 O          25.7995  -26.7475  -41.3849 O.2       4 UNK        -0.5039 
     34 N          25.2286  -27.7725  -43.3269 N.am      5 UNK        -0.4663 
     35 CA         25.1530  -29.1569  -42.8623 C.3       5 UNK         0.0242 
     36 CB         25.5478  -30.0849  -44.0261 C.3       5 UNK        -0.1982 
     37 C          23.7717  -29.5366  -42.2915 C.2       5 UNK         0.5017 
     38 O          23.4931  -30.7279  -42.1682 O.2       5 UNK        -0.5012 
     39 N          22.9258  -28.5562  -41.9340 N.am      6 UNK        -0.4439 
     40 CA         21.5855  -28.7718  -41.3656 C.3       6 UNK         0.0297 
     41 CB         20.8723  -27.4244  -41.1779 C.3       6 UNK        -0.2006 
     42 C          21.5624  -29.5865  -40.0548 C.2       6 UNK         0.4892 
     43 O          20.5518  -30.2223  -39.7567 O.2       6 UNK        -0.5089 
     44 N          22.6780  -29.5849  -39.3129 N.am      7 UNK        -0.4243 
     45 CA         22.8833  -30.4034  -38.1168 C.3       7 UNK         0.0196 
     46 CB         24.0870  -29.8513  -37.3362 C.3       7 UNK        -0.2007 
     47 C          23.0838  -31.9025  -38.4152 C.2       7 UNK         0.5020 
     48 O          22.8662  -32.7182  -37.5187 O.2       7 UNK        -0.5147 
     49 N          23.4916  -32.2582  -39.6450 N.am      8 UNK        -0.4734 
     50 CA         23.8080  -33.6371  -40.0447 C.3       8 UNK         0.0238 
     51 CB         24.5475  -33.6314  -41.3927 C.3       8 UNK        -0.1912 
     52 C          22.5833  -34.5654  -40.1113 C.2       8 UNK         0.5038 
     53 O          22.7515  -35.7832  -40.0320 O.2       8 UNK        -0.5046 
     54 N          21.3848  -33.9826  -40.2379 N.am      9 UNK        -0.4200 
     55 CA         20.0999  -34.6926  -40.1655 C.3       9 UNK         0.0839 
     56 C          19.6916  -35.1124  -38.7212 C.2       9 UNK         0.5513 
     57 N          20.3794  -34.6773  -37.6703 N.am      9 UNK        -0.7519 
     58 O          18.7297  -35.8573  -38.5519 O.2       9 UNK        -0.4960 
     59 C59        18.9614  -33.8953  -40.8523 C.3       10 UNK        -0.0876 
     60 S60        19.2689  -33.5622  -42.6235 S.3       10 UNK        -0.2414 
     61 C61        19.8113  -31.8282  -42.5620 C.3       10 UNK         0.0169 
     62 H62        16.8907  -25.8008  -39.2433 H         1 UNK         0.0903 
     63 H63        17.0715  -24.0460  -39.2058 H         1 UNK         0.0903 
     64 H64        15.4608  -24.7690  -39.1726 H         1 UNK         0.0903 
     65 H65        17.2761  -26.6199  -41.2879 H         1 UNK         0.3096 
     66 H66        16.0370  -25.4989  -43.6544 H         1 UNK         0.1121 
     67 H67        18.1063  -27.7504  -43.6393 H         1 UNK         0.0849 
     68 H68        16.4771  -28.0367  -43.0869 H         1 UNK         0.0849 
     69 H69        15.8376  -29.8974  -44.9253 H         1 UNK         0.0865 
     70 H70        16.2635  -29.7216  -46.6098 H         1 UNK         0.0865 
     71 H71        17.4388  -30.8917  -43.4577 H         1 UNK         0.1346 
     72 H72        21.5878  -31.0912  -44.5143 H         1 UNK         0.1412 
     73 H73        18.8001  -29.1121  -47.1117 H         1 UNK         0.1426 
     74 H74        21.2648  -30.1876  -47.8386 H         1 UNK         0.0716 
     75 H75        22.4025  -30.0732  -46.5165 H         1 UNK         0.0716 
     76 H76        21.4540  -27.7256  -44.7420 H         1 UNK         0.0695 
     77 H77        23.0907  -27.8373  -45.3383 H         1 UNK         0.0695 
     78 H78        22.7631  -25.4133  -46.2966 H         1 UNK         0.0983 
     79 H79        20.6369  -25.0942  -44.2737 H         1 UNK         0.3095 
     80 H80        19.3273  -22.9826  -45.0161 H         1 UNK         0.0454 
     81 H81        18.9566  -22.3354  -47.3814 H         1 UNK         0.0851 
     82 H82        17.9436  -23.7494  -47.6369 H         1 UNK         0.0851 
     83 H83        17.4296  -22.4751  -46.5308 H         1 UNK         0.0851 
     84 H84        17.2675  -24.9468  -45.5992 H         1 UNK         0.2976 
     85 H85        24.8096  -25.4215  -45.3286 H         1 UNK         0.3116 
     86 H86        25.1182  -24.5896  -42.5611 H         1 UNK         0.0646 
     87 H87        27.5453  -24.8790  -43.0483 H         1 UNK         0.0847 
     88 H88        26.7686  -23.9369  -44.3088 H         1 UNK         0.0847 
     89 H89        27.1726  -25.6308  -44.5923 H         1 UNK         0.0847 
     90 H90        25.0207  -27.6220  -44.3023 H         1 UNK         0.3040 
     91 H91        25.8763  -29.3001  -42.0563 H         1 UNK         0.1015 
     92 H92        26.5316  -29.8308  -44.4210 H         1 UNK         0.0786 
     93 H93        24.8310  -30.0311  -44.8466 H         1 UNK         0.0786 
     94 H94        25.5942  -31.1259  -43.7026 H         1 UNK         0.0786 
     95 H95        23.2167  -27.5961  -42.0604 H         1 UNK         0.3172 
     96 H96        21.0172  -29.3383  -42.1026 H         1 UNK         0.0595 
     97 H97        20.6977  -26.9348  -42.1357 H         1 UNK         0.0839 
     98 H98        21.4481  -26.7430  -40.5508 H         1 UNK         0.0839 
     99 H99        19.8964  -27.5565  -40.7087 H         1 UNK         0.0839 
    100 H100       23.4587  -29.0263  -39.6255 H         1 UNK         0.2998 
    101 H101       21.9965  -30.3140  -37.4853 H         1 UNK         0.0822 
    102 H102       23.9302  -28.8118  -37.0470 H         1 UNK         0.0787 
    103 H103       24.2513  -30.4190  -36.4191 H         1 UNK         0.0787 
    104 H104       25.0065  -29.9036  -37.9208 H         1 UNK         0.0787 
    105 H105       23.5868  -31.5496  -40.3664 H         1 UNK         0.3055 
    106 H106       24.4816  -34.0519  -39.2914 H         1 UNK         0.1106 
    107 H107       23.8989  -33.3086  -42.2077 H         1 UNK         0.0828 
    108 H108       25.4158  -32.9727  -41.3715 H         1 UNK         0.0828 
    109 H109       24.9049  -34.6311  -41.6433 H         1 UNK         0.0828 
    110 H110       21.3431  -32.9753  -40.2808 H         1 UNK         0.2931 
    111 H111       20.2143  -35.6256  -40.7211 H         1 UNK         0.0412 
    112 H112       20.0973  -34.9664  -36.7469 H         1 UNK         0.3472 
    113 H113       21.1808  -34.0692  -37.7817 H         1 UNK         0.3472 
    114 H114       18.7731  -32.9630  -40.3170 H         1 UNK         0.0970 
    115 H115       18.0266  -34.4567  -40.7981 H         1 UNK         0.0970 
    116 H116       20.8724  -31.7963  -42.3104 H         1 UNK         0.0612 
    117 H117       19.2831  -31.3044  -41.7655 H         1 UNK         0.0612 
@<TRIPOS>BOND
     1    1    2 1    
     2    1   62 1    
     3    1   63 1    
     4    1   64 1    
     5    2    3 2    
     6    2    4 am   BACKBONE|DICT|INTERRES
     7    4    5 1    
     8    4   65 1    
     9    5    6 1    
    10    5   25 1    
    11    5   66 1    
    12    6    7 1    
    13    6   67 1    
    14    6   68 1    
    15    7    8 1    
    16    8    9 1    
    17    8   69 1    
    18    8   70 1    
    19    9   10 ar   
    20    9   14 ar   
    21   10   11 ar   
    22   10   71 1    
    23   11   12 ar   
    24   11   61 1    
    25   12   13 ar   
    26   12   72 1    
    27   13   14 ar   
    28   13   15 1    
    29   14   73 1    
    30   15   16 1    
    31   15   74 1    
    32   15   75 1    
    33   16   17 1    
    34   17   18 1    
    35   17   76 1    
    36   17   77 1    
    37   18   19 1    
    38   18   27 1    
    39   18   78 1    
    40   19   20 am   BACKBONE|DICT|INTERRES
    41   19   79 1    
    42   20   21 2    
    43   20   22 1    
    44   22   23 1    
    45   22   24 1    
    46   22   80 1    
    47   23   81 1    
    48   23   82 1    
    49   23   83 1    
    50   24   25 am   BACKBONE|DICT|INTERRES
    51   24   84 1    
    52   25   26 2    
    53   27   28 2    
    54   27   29 am   BACKBONE|DICT|INTERRES
    55   29   30 1    
    56   29   85 1    
    57   30   31 1    
    58   30   32 1    
    59   30   86 1    
    60   31   87 1    
    61   31   88 1    
    62   31   89 1    
    63   32   33 2    
    64   32   34 am   BACKBONE|DICT|INTERRES
    65   34   35 1    
    66   34   90 1    
    67   35   36 1    
    68   35   37 1    
    69   35   91 1    
    70   36   92 1    
    71   36   93 1    
    72   36   94 1    
    73   37   38 2    
    74   37   39 am   BACKBONE|DICT|INTERRES
    75   39   40 1    
    76   39   95 1    
    77   40   41 1    
    78   40   42 1    
    79   40   96 1    
    80   41   97 1    
    81   41   98 1    
    82   41   99 1    
    83   42   43 2    
    84   42   44 am   BACKBONE|DICT|INTERRES
    85   44   45 1    
    86   44  100 1    
    87   45   46 1    
    88   45   47 1    
    89   45  101 1    
    90   46  102 1    
    91   46  103 1    
    92   46  104 1    
    93   47   48 2    
    94   47   49 am   BACKBONE|DICT|INTERRES
    95   49   50 1    
    96   49  105 1    
    97   50   51 1    
    98   50   52 1    
    99   50  106 1    
   100   51  107 1    
   101   51  108 1    
   102   51  109 1    
   103   52   53 2    
   104   52   54 am   BACKBONE|DICT|INTERRES
   105   54   55 1    
   106   54  110 1    
   107   55   56 1    
   108   55   59 1    
   109   55  111 1    
   110   56   57 am   BACKBONE|DICT|INTERRES
   111   56   58 2    
   112   57  112 1    
   113   57  113 1    
   114   59   60 1    
   115   59  114 1    
   116   59  115 1    
   117   60   61 1    
   118   61  116 1    
   119   61  117 1    
@<TRIPOS>SUBSTRUCTURE
     1 UNK         1 GROUP             0       ****    0 ROOT    
