@<TRIPOS>MOLECULE
3R8
117   119    1
SMALL
USER_CHARGES


@<TRIPOS>ATOM
      1 CA         19.6579  -23.9900  -39.8501 C.3       0 UNK        -0.2013 
      2 C          19.2720  -24.0622  -41.3203 C.2       0 UNK         0.4866 
      3 O          19.1594  -23.0268  -41.9775 O.2       0 UNK        -0.5176 
      4 N          19.0607  -25.2783  -41.8363 N.am      1 UNK        -0.4884 
      5 CA         18.7486  -25.5533  -43.2423 C.3       1 UNK         0.0853 
      6 C6         18.1567  -26.9735  -43.4176 C.3       10 UNK        -0.0849 
      7 S7         16.4203  -27.0534  -42.8555 S.3       10 UNK        -0.2776 
      8 C8         16.1887  -28.8000  -42.3626 C.3       10 UNK         0.0316 
      9 C9         16.9493  -29.7890  -43.2376 C.ar      10 UNK        -0.0863 
     10 C10        17.9230  -30.6221  -42.6743 C.ar      10 UNK        -0.1009 
     11 C11        18.6591  -31.4971  -43.4776 C.ar      10 UNK        -0.0712 
     12 C12        18.3965  -31.5548  -44.8481 C.ar      10 UNK        -0.0894 
     13 C13        17.4647  -30.6897  -45.4298 C.ar      10 UNK        -0.0745 
     14 C14        16.7173  -29.8352  -44.6162 C.ar      10 UNK        -0.0972 
     15 C15        17.3475  -30.6065  -46.9456 C.3       10 UNK         0.0209 
     16 S16        18.3614  -29.2400  -47.6215 S.3       10 UNK        -0.2568 
     17 C17        20.0228  -29.6830  -47.0048 C.3       10 UNK        -0.0983 
     18 CA         21.1279  -28.6289  -47.2488 C.3       3 UNK         0.0876 
     19 N          20.7320  -27.2978  -46.7739 N.am      3 UNK        -0.4424 
     20 C          21.4315  -26.1668  -46.9438 C.2       2 UNK         0.4918 
     21 O          22.5281  -26.1163  -47.5010 O.2       2 UNK        -0.4875 
     22 CA         20.7948  -24.8596  -46.4340 C.3       2 UNK         0.0481 
     23 CB         20.2023  -24.0653  -47.6094 C.3       2 UNK        -0.1831 
     24 N          19.7526  -25.0631  -45.4216 N.am      2 UNK        -0.4498 
     25 C          19.9914  -25.3639  -44.1374 C.2       1 UNK         0.5027 
     26 O          21.1226  -25.5142  -43.6719 O.2       1 UNK        -0.4969 
     27 C          22.4320  -29.1336  -46.5938 C.2       3 UNK         0.5005 
     28 O          23.2745  -29.7166  -47.2783 O.2       3 UNK        -0.5279 
     29 N          22.5520  -28.9264  -45.2767 N.am      4 UNK        -0.4463 
     30 CA         23.6561  -29.3683  -44.4334 C.3       4 UNK         0.0283 
     31 CB         23.4629  -30.8409  -44.0283 C.3       4 UNK        -0.1875 
     32 C          23.6906  -28.4624  -43.2012 C.2       4 UNK         0.4949 
     33 O          22.6280  -28.0537  -42.7250 O.2       4 UNK        -0.5039 
     34 N          24.9072  -28.1755  -42.7192 N.am      5 UNK        -0.4663 
     35 CA         25.2133  -27.2267  -41.6439 C.3       5 UNK         0.0242 
     36 CB         26.7145  -27.2979  -41.3191 C.3       5 UNK        -0.1982 
     37 C          24.3806  -27.4437  -40.3701 C.2       5 UNK         0.5017 
     38 O          24.3344  -28.5628  -39.8541 O.2       5 UNK        -0.5012 
     39 N          23.7270  -26.3664  -39.9110 N.am      6 UNK        -0.4439 
     40 CA         22.8827  -26.2784  -38.7120 C.3       6 UNK         0.0297 
     41 CB         23.7523  -26.4034  -37.4424 C.3       6 UNK        -0.2006 
     42 C          21.6849  -27.2530  -38.6886 C.2       6 UNK         0.4892 
     43 O          21.1595  -27.5198  -37.6071 O.2       6 UNK        -0.5089 
     44 N          21.2811  -27.7715  -39.8626 N.am      7 UNK        -0.4243 
     45 CA         20.2747  -28.8249  -40.0562 C.3       7 UNK         0.0196 
     46 CB         18.8691  -28.3383  -39.6320 C.3       7 UNK        -0.2007 
     47 C          20.6572  -30.1675  -39.3935 C.2       7 UNK         0.5020 
     48 O          19.7687  -30.9424  -39.0379 O.2       7 UNK        -0.5147 
     49 N          21.9638  -30.4282  -39.2261 N.am      8 UNK        -0.4734 
     50 CA         22.4794  -31.6184  -38.5395 C.3       8 UNK         0.0238 
     51 CB         23.9627  -31.4041  -38.1982 C.3       8 UNK        -0.1912 
     52 C          22.2938  -32.9249  -39.3303 C.2       8 UNK         0.5038 
     53 O          22.1797  -33.9851  -38.7139 O.2       8 UNK        -0.5046 
     54 N          22.2839  -32.8227  -40.6669 N.am      9 UNK        -0.4200 
     55 CA         22.1544  -33.9351  -41.6270 C.3       9 UNK         0.0839 
     56 C          23.3502  -34.9385  -41.6183 C.2       9 UNK         0.5513 
     57 N          24.5169  -34.5708  -41.1017 N.am      9 UNK        -0.7519 
     58 O          23.2349  -36.0551  -42.1173 O.2       9 UNK        -0.4960 
     59 C59        20.7682  -34.6531  -41.5538 C.3       10 UNK        -0.0876 
     60 S60        19.2656  -33.6249  -41.7814 S.3       10 UNK        -0.2414 
     61 C61        19.8135  -32.2975  -42.8949 C.3       10 UNK         0.0169 
     62 H62        18.9787  -23.3257  -39.3164 H         1 UNK         0.0903 
     63 H63        19.6194  -24.9671  -39.3688 H         1 UNK         0.0903 
     64 H64        20.6691  -23.5974  -39.7471 H         1 UNK         0.0903 
     65 H65        19.1968  -26.0914  -41.2561 H         1 UNK         0.3096 
     66 H66        18.0055  -24.8213  -43.5687 H         1 UNK         0.1121 
     67 H67        18.7624  -27.7102  -42.8864 H         1 UNK         0.0849 
     68 H68        18.1594  -27.2793  -44.4658 H         1 UNK         0.0849 
     69 H69        16.4732  -28.9079  -41.3172 H         1 UNK         0.0865 
     70 H70        15.1248  -29.0368  -42.4056 H         1 UNK         0.0865 
     71 H71        18.1328  -30.5774  -41.6149 H         1 UNK         0.1346 
     72 H72        18.9850  -32.2059  -45.4800 H         1 UNK         0.1412 
     73 H73        15.9997  -29.1599  -45.0623 H         1 UNK         0.1426 
     74 H74        16.3053  -30.4526  -47.2290 H         1 UNK         0.0716 
     75 H75        17.6558  -31.5465  -47.4060 H         1 UNK         0.0716 
     76 H76        20.3022  -30.6434  -47.4433 H         1 UNK         0.0695 
     77 H77        19.9479  -29.8400  -45.9304 H         1 UNK         0.0695 
     78 H78        21.3043  -28.5542  -48.3240 H         1 UNK         0.0983 
     79 H79        19.8218  -27.2379  -46.3445 H         1 UNK         0.3095 
     80 H80        21.5926  -24.2593  -45.9913 H         1 UNK         0.0454 
     81 H81        20.9611  -23.8647  -48.3672 H         1 UNK         0.0851 
     82 H82        19.8139  -23.1008  -47.2822 H         1 UNK         0.0851 
     83 H83        19.3915  -24.6074  -48.0977 H         1 UNK         0.0851 
     84 H84        18.7970  -24.9499  -45.7307 H         1 UNK         0.2976 
     85 H85        21.8510  -28.3838  -44.7859 H         1 UNK         0.3116 
     86 H86        24.5933  -29.2579  -44.9834 H         1 UNK         0.0646 
     87 H87        22.5245  -30.9860  -43.4942 H         1 UNK         0.0847 
     88 H88        23.4570  -31.4965  -44.8991 H         1 UNK         0.0847 
     89 H89        24.2689  -31.1776  -43.3751 H         1 UNK         0.0847 
     90 H90        25.7058  -28.6019  -43.1666 H         1 UNK         0.3040 
     91 H91        24.9983  -26.2304  -42.0360 H         1 UNK         0.1015 
     92 H92        26.9792  -26.5878  -40.5343 H         1 UNK         0.0786 
     93 H93        27.3239  -27.0565  -42.1903 H         1 UNK         0.0786 
     94 H94        27.0033  -28.2905  -40.9701 H         1 UNK         0.0786 
     95 H95        23.8110  -25.5071  -40.4374 H         1 UNK         0.3172 
     96 H96        22.4515  -25.2765  -38.7189 H         1 UNK         0.0595 
     97 H97        24.1641  -27.4075  -37.3334 H         1 UNK         0.0839 
     98 H98        23.1719  -26.1915  -36.5435 H         1 UNK         0.0839 
     99 H99        24.5844  -25.6996  -37.4588 H         1 UNK         0.0839 
    100 H100       21.8055  -27.5222  -40.6949 H         1 UNK         0.2998 
    101 H101       20.2471  -29.0252  -41.1285 H         1 UNK         0.0822 
    102 H102       18.1217  -29.1169  -39.7754 H         1 UNK         0.0787 
    103 H103       18.5460  -27.4763  -40.2112 H         1 UNK         0.0787 
    104 H104       18.8290  -28.0668  -38.5774 H         1 UNK         0.0787 
    105 H105       22.6485  -29.7361  -39.5167 H         1 UNK         0.3055 
    106 H106       21.9288  -31.7300  -37.6025 H         1 UNK         0.1106 
    107 H107       24.1008  -30.5249  -37.5684 H         1 UNK         0.0828 
    108 H108       24.3676  -32.2588  -37.6545 H         1 UNK         0.0828 
    109 H109       24.5689  -31.2689  -39.0948 H         1 UNK         0.0828 
    110 H110       22.4062  -31.9036  -41.0627 H         1 UNK         0.2931 
    111 H111       22.2371  -33.4745  -42.6098 H         1 UNK         0.0412 
    112 H112       24.6346  -33.6562  -40.6976 H         1 UNK         0.3472 
    113 H113       25.2865  -35.2218  -41.1110 H         1 UNK         0.3472 
    114 H114       20.7167  -35.4308  -42.3179 H         1 UNK         0.0970 
    115 H115       20.6705  -35.1781  -40.6024 H         1 UNK         0.0970 
    116 H116       20.4669  -31.6163  -42.3504 H         1 UNK         0.0612 
    117 H117       20.4056  -32.7306  -43.7021 H         1 UNK         0.0612 
@<TRIPOS>BOND
     1    1    2 1    
     2    1   62 1    
     3    1   63 1    
     4    1   64 1    
     5    2    3 2    
     6    2    4 am   BACKBONE|DICT|INTERRES
     7    4    5 1    
     8    4   65 1    
     9    5    6 1    
    10    5   25 1    
    11    5   66 1    
    12    6    7 1    
    13    6   67 1    
    14    6   68 1    
    15    7    8 1    
    16    8    9 1    
    17    8   69 1    
    18    8   70 1    
    19    9   10 ar   
    20    9   14 ar   
    21   10   11 ar   
    22   10   71 1    
    23   11   12 ar   
    24   11   61 1    
    25   12   13 ar   
    26   12   72 1    
    27   13   14 ar   
    28   13   15 1    
    29   14   73 1    
    30   15   16 1    
    31   15   74 1    
    32   15   75 1    
    33   16   17 1    
    34   17   18 1    
    35   17   76 1    
    36   17   77 1    
    37   18   19 1    
    38   18   27 1    
    39   18   78 1    
    40   19   20 am   BACKBONE|DICT|INTERRES
    41   19   79 1    
    42   20   21 2    
    43   20   22 1    
    44   22   23 1    
    45   22   24 1    
    46   22   80 1    
    47   23   81 1    
    48   23   82 1    
    49   23   83 1    
    50   24   25 am   BACKBONE|DICT|INTERRES
    51   24   84 1    
    52   25   26 2    
    53   27   28 2    
    54   27   29 am   BACKBONE|DICT|INTERRES
    55   29   30 1    
    56   29   85 1    
    57   30   31 1    
    58   30   32 1    
    59   30   86 1    
    60   31   87 1    
    61   31   88 1    
    62   31   89 1    
    63   32   33 2    
    64   32   34 am   BACKBONE|DICT|INTERRES
    65   34   35 1    
    66   34   90 1    
    67   35   36 1    
    68   35   37 1    
    69   35   91 1    
    70   36   92 1    
    71   36   93 1    
    72   36   94 1    
    73   37   38 2    
    74   37   39 am   BACKBONE|DICT|INTERRES
    75   39   40 1    
    76   39   95 1    
    77   40   41 1    
    78   40   42 1    
    79   40   96 1    
    80   41   97 1    
    81   41   98 1    
    82   41   99 1    
    83   42   43 2    
    84   42   44 am   BACKBONE|DICT|INTERRES
    85   44   45 1    
    86   44  100 1    
    87   45   46 1    
    88   45   47 1    
    89   45  101 1    
    90   46  102 1    
    91   46  103 1    
    92   46  104 1    
    93   47   48 2    
    94   47   49 am   BACKBONE|DICT|INTERRES
    95   49   50 1    
    96   49  105 1    
    97   50   51 1    
    98   50   52 1    
    99   50  106 1    
   100   51  107 1    
   101   51  108 1    
   102   51  109 1    
   103   52   53 2    
   104   52   54 am   BACKBONE|DICT|INTERRES
   105   54   55 1    
   106   54  110 1    
   107   55   56 1    
   108   55   59 1    
   109   55  111 1    
   110   56   57 am   BACKBONE|DICT|INTERRES
   111   56   58 2    
   112   57  112 1    
   113   57  113 1    
   114   59   60 1    
   115   59  114 1    
   116   59  115 1    
   117   60   61 1    
   118   61  116 1    
   119   61  117 1    
@<TRIPOS>SUBSTRUCTURE
     1 UNK         1 GROUP             0       ****    0 ROOT    
