@<TRIPOS>MOLECULE
3R8
117   119    1
SMALL
USER_CHARGES


@<TRIPOS>ATOM
      1 CA         22.2406  -27.6682  -50.7326 C.3       0 UNK        -0.2013 
      2 C          21.8174  -27.7812  -49.2755 C.2       0 UNK         0.4866 
      3 O          22.6400  -28.1204  -48.4260 O.2       0 UNK        -0.5176 
      4 N          20.5392  -27.5082  -48.9844 N.am      1 UNK        -0.4884 
      5 CA         19.9613  -27.4945  -47.6359 C.3       1 UNK         0.0853 
      6 C6         18.4136  -27.5866  -47.7243 C.3       10 UNK        -0.0849 
      7 S7         17.5607  -27.6646  -46.1137 S.3       10 UNK        -0.2776 
      8 C8         17.5971  -29.4484  -45.7311 C.3       10 UNK         0.0316 
      9 C9         17.4690  -29.7276  -44.2345 C.ar      10 UNK        -0.0863 
     10 C10        18.2356  -30.7388  -43.6437 C.ar      10 UNK        -0.1009 
     11 C11        18.1220  -31.0118  -42.2758 C.ar      10 UNK        -0.0712 
     12 C12        17.2427  -30.2603  -41.4932 C.ar      10 UNK        -0.0894 
     13 C13        16.4935  -29.2300  -42.0639 C.ar      10 UNK        -0.0745 
     14 C14        16.5886  -28.9882  -43.4355 C.ar      10 UNK        -0.0972 
     15 C15        15.6195  -28.3444  -41.1914 C.3       10 UNK         0.0209 
     16 S16        16.6272  -27.2838  -40.1045 S.3       10 UNK        -0.2568 
     17 C17        17.6752  -26.3685  -41.2944 C.3       10 UNK        -0.0983 
     18 CA         19.1146  -26.9546  -41.4443 C.3       3 UNK         0.0876 
     19 N          19.7372  -26.6587  -42.7443 N.am      3 UNK        -0.4424 
     20 C          19.9559  -25.4340  -43.2527 C.2       2 UNK         0.4918 
     21 O          19.5302  -24.3922  -42.7526 O.2       2 UNK        -0.4875 
     22 CA         20.7879  -25.3425  -44.5412 C.3       2 UNK         0.0481 
     23 CB         22.2942  -25.3958  -44.2337 C.3       2 UNK        -0.1831 
     24 N          20.4265  -26.3910  -45.4941 N.am      2 UNK        -0.4498 
     25 C          20.4568  -26.2685  -46.8279 C.2       1 UNK         0.5027 
     26 O          20.8296  -25.2486  -47.4155 O.2       1 UNK        -0.4969 
     27 C          20.0689  -26.5845  -40.2824 C.2       3 UNK         0.5005 
     28 O          21.2512  -26.3298  -40.5180 O.2       3 UNK        -0.5279 
     29 N          19.5583  -26.5977  -39.0419 N.am      4 UNK        -0.4463 
     30 CA         20.2489  -26.2397  -37.7925 C.3       4 UNK         0.0283 
     31 CB         20.4800  -24.7148  -37.7334 C.3       4 UNK        -0.1875 
     32 C          21.5431  -27.0454  -37.5455 C.2       4 UNK         0.4949 
     33 O          22.5399  -26.4863  -37.0854 O.2       4 UNK        -0.5039 
     34 N          21.4969  -28.3445  -37.8772 N.am      5 UNK        -0.4663 
     35 CA         22.6026  -29.3119  -37.8357 C.3       5 UNK         0.0242 
     36 CB         23.0990  -29.5382  -36.3912 C.3       5 UNK        -0.1982 
     37 C          23.7469  -29.0018  -38.8260 C.2       5 UNK         0.5017 
     38 O          24.8848  -29.4144  -38.5926 O.2       5 UNK        -0.5012 
     39 N          23.4231  -28.3163  -39.9283 N.am      6 UNK        -0.4439 
     40 CA         24.2572  -28.1733  -41.1183 C.3       6 UNK         0.0297 
     41 CB         24.5261  -26.6804  -41.3744 C.3       6 UNK        -0.2006 
     42 C          23.5346  -28.8301  -42.3054 C.2       6 UNK         0.4892 
     43 O          22.3538  -29.1736  -42.2003 O.2       6 UNK        -0.5089 
     44 N          24.2690  -28.9974  -43.4137 N.am      7 UNK        -0.4243 
     45 CA         23.8967  -29.7678  -44.6064 C.3       7 UNK         0.0196 
     46 CB         22.6232  -29.2141  -45.2882 C.3       7 UNK        -0.2007 
     47 C          23.8515  -31.2724  -44.2814 C.2       7 UNK         0.5020 
     48 O          24.7955  -31.7739  -43.6683 O.2       7 UNK        -0.5147 
     49 N          22.7817  -31.9705  -44.6880 N.am      8 UNK        -0.4734 
     50 CA         22.6033  -33.4231  -44.5431 C.3       8 UNK         0.0238 
     51 CB         21.2879  -33.8359  -45.2243 C.3       8 UNK        -0.1912 
     52 C          22.6406  -33.9462  -43.0938 C.2       8 UNK         0.5038 
     53 O          22.9761  -35.1130  -42.8871 O.2       8 UNK        -0.5046 
     54 N          22.3043  -33.0794  -42.1341 N.am      9 UNK        -0.4200 
     55 CA         22.3604  -33.3220  -40.6861 C.3       9 UNK         0.0839 
     56 C          23.5441  -32.5968  -39.9849 C.2       9 UNK         0.5513 
     57 N          24.4851  -31.9955  -40.7035 N.am      9 UNK        -0.7519 
     58 O          23.6279  -32.6031  -38.7599 O.2       9 UNK        -0.4960 
     59 C59        20.9880  -33.0542  -40.0059 C.3       10 UNK        -0.0876 
     60 S60        20.1980  -31.4795  -40.4945 S.3       10 UNK        -0.2414 
     61 C61        18.9345  -32.1250  -41.6369 C.3       10 UNK         0.0169 
     62 H62        22.6257  -28.6242  -51.0864 H         1 UNK         0.0903 
     63 H63        21.4121  -27.3766  -51.3777 H         1 UNK         0.0903 
     64 H64        23.0295  -26.9236  -50.8363 H         1 UNK         0.0903 
     65 H65        19.9241  -27.2024  -49.7250 H         1 UNK         0.3096 
     66 H66        20.3238  -28.3880  -47.1232 H         1 UNK         0.1121 
     67 H67        18.0186  -26.7243  -48.2649 H         1 UNK         0.0849 
     68 H68        18.1234  -28.4613  -48.3092 H         1 UNK         0.0849 
     69 H69        16.7839  -29.9467  -46.2605 H         1 UNK         0.0865 
     70 H70        18.5258  -29.8764  -46.1114 H         1 UNK         0.0865 
     71 H71        18.9167  -31.3204  -44.2494 H         1 UNK         0.1346 
     72 H72        17.1680  -30.4549  -40.4318 H         1 UNK         0.1412 
     73 H73        15.9952  -28.1984  -43.8751 H         1 UNK         0.1426 
     74 H74        14.9671  -28.9678  -40.5783 H         1 UNK         0.0716 
     75 H75        14.9657  -27.7167  -41.7990 H         1 UNK         0.0716 
     76 H76        17.7112  -25.3210  -40.9898 H         1 UNK         0.0695 
     77 H77        17.1695  -26.3695  -42.2610 H         1 UNK         0.0695 
     78 H78        19.0428  -28.0426  -41.4208 H         1 UNK         0.0983 
     79 H79        20.2151  -27.4443  -43.1591 H         1 UNK         0.3095 
     80 H80        20.5659  -24.3704  -44.9873 H         1 UNK         0.0454 
     81 H81        22.5830  -26.3581  -43.8123 H         1 UNK         0.0851 
     82 H82        22.5729  -24.6264  -43.5126 H         1 UNK         0.0851 
     83 H83        22.8896  -25.2310  -45.1316 H         1 UNK         0.0851 
     84 H84        19.9866  -27.2136  -45.1076 H         1 UNK         0.2976 
     85 H85        18.5776  -26.8394  -38.9528 H         1 UNK         0.3116 
     86 H86        19.5698  -26.5017  -36.9799 H         1 UNK         0.0646 
     87 H87        21.1869  -24.3854  -38.4959 H         1 UNK         0.0847 
     88 H88        20.8826  -24.4153  -36.7650 H         1 UNK         0.0847 
     89 H89        19.5499  -24.1657  -37.8792 H         1 UNK         0.0847 
     90 H90        20.6272  -28.6956  -38.2546 H         1 UNK         0.3040 
     91 H91        22.1783  -30.2570  -38.1787 H         1 UNK         0.1015 
     92 H92        22.2730  -29.7664  -35.7178 H         1 UNK         0.0786 
     93 H93        23.6234  -28.6663  -35.9996 H         1 UNK         0.0786 
     94 H94        23.7919  -30.3796  -36.3470 H         1 UNK         0.0786 
     95 H95        22.4692  -27.9909  -40.0459 H         1 UNK         0.3172 
     96 H96        25.2112  -28.6869  -40.9833 H         1 UNK         0.0595 
     97 H97        23.6064  -26.1278  -41.5634 H         1 UNK         0.0839 
     98 H98        25.1761  -26.5354  -42.2377 H         1 UNK         0.0839 
     99 H99        25.0184  -26.2181  -40.5187 H         1 UNK         0.0839 
    100 H100       25.2340  -28.6985  -43.3864 H         1 UNK         0.2998 
    101 H101       24.7183  -29.6443  -45.3135 H         1 UNK         0.0822 
    102 H102       22.7408  -28.1558  -45.5184 H         1 UNK         0.0787 
    103 H103       22.4378  -29.7189  -46.2369 H         1 UNK         0.0787 
    104 H104       21.7296  -29.3266  -44.6746 H         1 UNK         0.0787 
    105 H105       22.0522  -31.4726  -45.1766 H         1 UNK         0.3055 
    106 H106       23.4291  -33.9050  -45.0713 H         1 UNK         0.1106 
    107 H107       21.1385  -34.9150  -45.1635 H         1 UNK         0.0828 
    108 H108       20.4241  -33.3622  -44.7569 H         1 UNK         0.0828 
    109 H109       21.2865  -33.5721  -46.2821 H         1 UNK         0.0828 
    110 H110       22.0642  -32.1344  -42.3998 H         1 UNK         0.2931 
    111 H111       22.5752  -34.3790  -40.5202 H         1 UNK         0.0412 
    112 H112       25.2342  -31.5287  -40.2168 H         1 UNK         0.3472 
    113 H113       24.4746  -32.0163  -41.7173 H         1 UNK         0.3472 
    114 H114       20.3132  -33.8771  -40.2450 H         1 UNK         0.0970 
    115 H115       21.0732  -33.0763  -38.9180 H         1 UNK         0.0970 
    116 H116       18.2620  -32.7894  -41.0923 H         1 UNK         0.0612 
    117 H117       19.4187  -32.7329  -42.4024 H         1 UNK         0.0612 
@<TRIPOS>BOND
     1    1    2 1    
     2    1   62 1    
     3    1   63 1    
     4    1   64 1    
     5    2    3 2    
     6    2    4 am   BACKBONE|DICT|INTERRES
     7    4    5 1    
     8    4   65 1    
     9    5    6 1    
    10    5   25 1    
    11    5   66 1    
    12    6    7 1    
    13    6   67 1    
    14    6   68 1    
    15    7    8 1    
    16    8    9 1    
    17    8   69 1    
    18    8   70 1    
    19    9   10 ar   
    20    9   14 ar   
    21   10   11 ar   
    22   10   71 1    
    23   11   12 ar   
    24   11   61 1    
    25   12   13 ar   
    26   12   72 1    
    27   13   14 ar   
    28   13   15 1    
    29   14   73 1    
    30   15   16 1    
    31   15   74 1    
    32   15   75 1    
    33   16   17 1    
    34   17   18 1    
    35   17   76 1    
    36   17   77 1    
    37   18   19 1    
    38   18   27 1    
    39   18   78 1    
    40   19   20 am   BACKBONE|DICT|INTERRES
    41   19   79 1    
    42   20   21 2    
    43   20   22 1    
    44   22   23 1    
    45   22   24 1    
    46   22   80 1    
    47   23   81 1    
    48   23   82 1    
    49   23   83 1    
    50   24   25 am   BACKBONE|DICT|INTERRES
    51   24   84 1    
    52   25   26 2    
    53   27   28 2    
    54   27   29 am   BACKBONE|DICT|INTERRES
    55   29   30 1    
    56   29   85 1    
    57   30   31 1    
    58   30   32 1    
    59   30   86 1    
    60   31   87 1    
    61   31   88 1    
    62   31   89 1    
    63   32   33 2    
    64   32   34 am   BACKBONE|DICT|INTERRES
    65   34   35 1    
    66   34   90 1    
    67   35   36 1    
    68   35   37 1    
    69   35   91 1    
    70   36   92 1    
    71   36   93 1    
    72   36   94 1    
    73   37   38 2    
    74   37   39 am   BACKBONE|DICT|INTERRES
    75   39   40 1    
    76   39   95 1    
    77   40   41 1    
    78   40   42 1    
    79   40   96 1    
    80   41   97 1    
    81   41   98 1    
    82   41   99 1    
    83   42   43 2    
    84   42   44 am   BACKBONE|DICT|INTERRES
    85   44   45 1    
    86   44  100 1    
    87   45   46 1    
    88   45   47 1    
    89   45  101 1    
    90   46  102 1    
    91   46  103 1    
    92   46  104 1    
    93   47   48 2    
    94   47   49 am   BACKBONE|DICT|INTERRES
    95   49   50 1    
    96   49  105 1    
    97   50   51 1    
    98   50   52 1    
    99   50  106 1    
   100   51  107 1    
   101   51  108 1    
   102   51  109 1    
   103   52   53 2    
   104   52   54 am   BACKBONE|DICT|INTERRES
   105   54   55 1    
   106   54  110 1    
   107   55   56 1    
   108   55   59 1    
   109   55  111 1    
   110   56   57 am   BACKBONE|DICT|INTERRES
   111   56   58 2    
   112   57  112 1    
   113   57  113 1    
   114   59   60 1    
   115   59  114 1    
   116   59  115 1    
   117   60   61 1    
   118   61  116 1    
   119   61  117 1    
@<TRIPOS>SUBSTRUCTURE
     1 UNK         1 GROUP             0       ****    0 ROOT    
