@<TRIPOS>MOLECULE
3R8
117   119    1
SMALL
USER_CHARGES


@<TRIPOS>ATOM
      1 CA         18.0034  -28.5982  -42.1060 C.3       0 UNK        -0.2013 
      2 C          17.3951  -27.5160  -42.9818 C.2       0 UNK         0.4866 
      3 O          16.9651  -26.4817  -42.4697 O.2       0 UNK        -0.5176 
      4 N          17.3751  -27.7259  -44.3047 N.am      1 UNK        -0.4884 
      5 CA         16.8332  -26.7914  -45.3032 C.3       1 UNK         0.0853 
      6 C6         16.3854  -27.5049  -46.6069 C.3       10 UNK        -0.0849 
      7 S7         15.2102  -28.8710  -46.3055 S.3       10 UNK        -0.2776 
      8 C8         16.1591  -30.3203  -46.8757 C.3       10 UNK         0.0316 
      9 C9         17.3861  -30.5809  -46.0126 C.ar      10 UNK        -0.0863 
     10 C10        17.2609  -31.2553  -44.7954 C.ar      10 UNK        -0.1009 
     11 C11        18.3851  -31.5043  -44.0020 C.ar      10 UNK        -0.0712 
     12 C12        19.6430  -31.0628  -44.4285 C.ar      10 UNK        -0.0894 
     13 C13        19.7788  -30.3835  -45.6444 C.ar      10 UNK        -0.0745 
     14 C14        18.6492  -30.1579  -46.4351 C.ar      10 UNK        -0.0972 
     15 C15        21.1405  -29.9120  -46.1345 C.3       10 UNK         0.0209 
     16 S16        21.3335  -28.1071  -45.9861 S.3       10 UNK        -0.2568 
     17 C17        21.7806  -27.9223  -44.2293 C.3       10 UNK        -0.0983 
     18 CA         21.9244  -26.4331  -43.8102 C.3       3 UNK         0.0876 
     19 N          20.6741  -25.6908  -44.0232 N.am      3 UNK        -0.4424 
     20 C          20.5570  -24.3794  -44.2725 C.2       2 UNK         0.4918 
     21 O          21.5223  -23.6167  -44.3123 O.2       2 UNK        -0.4875 
     22 CA         19.1323  -23.8067  -44.4289 C.3       2 UNK         0.0481 
     23 CB         19.0397  -22.7559  -45.5551 C.3       2 UNK        -0.1831 
     24 N          18.0920  -24.8379  -44.5463 N.am      2 UNK        -0.4498 
     25 C          17.8538  -25.6649  -45.5752 C.2       1 UNK         0.5027 
     26 O          18.4396  -25.6050  -46.6569 O.2       1 UNK        -0.4969 
     27 C          22.4464  -26.2866  -42.3587 C.2       3 UNK         0.5005 
     28 O          23.0024  -27.2409  -41.8097 O.2       3 UNK        -0.5279 
     29 N          22.2547  -25.1043  -41.7538 N.am      4 UNK        -0.4463 
     30 CA         22.5870  -24.7627  -40.3688 C.3       4 UNK         0.0283 
     31 CB         22.1679  -23.3092  -40.0911 C.3       4 UNK        -0.1875 
     32 C          24.0765  -24.9806  -40.0601 C.2       4 UNK         0.4949 
     33 O          24.9192  -24.2485  -40.5808 O.2       4 UNK        -0.5039 
     34 N          24.3555  -26.0197  -39.2605 N.am      5 UNK        -0.4663 
     35 CA         25.6776  -26.5408  -38.8826 C.3       5 UNK         0.0242 
     36 CB         26.4908  -25.4844  -38.1040 C.3       5 UNK        -0.1982 
     37 C          26.4851  -27.1537  -40.0478 C.2       5 UNK         0.5017 
     38 O          27.6503  -27.4994  -39.8452 O.2       5 UNK        -0.5012 
     39 N          25.8673  -27.3058  -41.2274 N.am      6 UNK        -0.4439 
     40 CA         26.4590  -27.9411  -42.4059 C.3       6 UNK         0.0297 
     41 CB         26.0205  -27.1858  -43.6713 C.3       6 UNK        -0.2006 
     42 C          26.0621  -29.4216  -42.5012 C.2       6 UNK         0.4892 
     43 O          26.8465  -30.2190  -43.0166 O.2       6 UNK        -0.5089 
     44 N          24.8691  -29.7674  -42.0021 N.am      7 UNK        -0.4243 
     45 CA         24.3263  -31.1210  -41.9623 C.3       7 UNK         0.0196 
     46 CB         23.7126  -31.4750  -43.3300 C.3       7 UNK        -0.2007 
     47 C          23.2753  -31.2082  -40.8496 C.2       7 UNK         0.5020 
     48 O          22.8908  -30.1864  -40.2761 O.2       7 UNK        -0.5147 
     49 N          22.8100  -32.4301  -40.5835 N.am      8 UNK        -0.4734 
     50 CA         21.7039  -32.7342  -39.6827 C.3       8 UNK         0.0238 
     51 CB         22.2334  -32.9592  -38.2553 C.3       8 UNK        -0.1912 
     52 C          20.9923  -33.9816  -40.2164 C.2       8 UNK         0.5038 
     53 O          21.6464  -34.8337  -40.8250 O.2       8 UNK        -0.5046 
     54 N          19.6815  -34.0630  -39.9702 N.am      9 UNK        -0.4200 
     55 CA         18.8055  -35.1702  -40.3913 C.3       9 UNK         0.0839 
     56 C          18.2351  -35.9826  -39.1919 C.2       9 UNK         0.5513 
     57 N          18.6498  -35.7304  -37.9555 N.am      9 UNK        -0.7519 
     58 O          17.4119  -36.8738  -39.3848 O.2       9 UNK        -0.4960 
     59 C59        17.6807  -34.6703  -41.3383 C.3       10 UNK        -0.0876 
     60 S60        18.3189  -34.0426  -42.9304 S.3       10 UNK        -0.2414 
     61 C61        18.2276  -32.2439  -42.6823 C.3       10 UNK         0.0169 
     62 H62        17.2726  -29.3834  -41.9160 H         1 UNK         0.0903 
     63 H63        18.8791  -29.0400  -42.5777 H         1 UNK         0.0903 
     64 H64        18.3162  -28.1846  -41.1475 H         1 UNK         0.0903 
     65 H65        17.7254  -28.5993  -44.6794 H         1 UNK         0.3096 
     66 H66        15.9433  -26.3177  -44.8814 H         1 UNK         0.1121 
     67 H67        15.8946  -26.7896  -47.2695 H         1 UNK         0.0849 
     68 H68        17.2447  -27.8754  -47.1659 H         1 UNK         0.0849 
     69 H69        15.5091  -31.1964  -46.8566 H         1 UNK         0.0865 
     70 H70        16.4438  -30.1806  -47.9198 H         1 UNK         0.0865 
     71 H71        16.2865  -31.5910  -44.4668 H         1 UNK         0.1346 
     72 H72        20.5128  -31.2545  -43.8160 H         1 UNK         0.1412 
     73 H73        18.7599  -29.6454  -47.3812 H         1 UNK         0.1426 
     74 H74        21.2517  -30.1850  -47.1849 H         1 UNK         0.0716 
     75 H75        21.9491  -30.4188  -45.6091 H         1 UNK         0.0716 
     76 H76        22.7202  -28.4564  -44.0779 H         1 UNK         0.0695 
     77 H77        21.0338  -28.4270  -43.6147 H         1 UNK         0.0695 
     78 H78        22.6931  -25.9891  -44.4467 H         1 UNK         0.0983 
     79 H79        19.8292  -26.2401  -43.9999 H         1 UNK         0.3095 
     80 H80        18.9201  -23.2910  -43.4913 H         1 UNK         0.0454 
     81 H81        19.6893  -21.9049  -45.3472 H         1 UNK         0.0851 
     82 H82        18.0258  -22.3695  -45.6572 H         1 UNK         0.0851 
     83 H83        19.3450  -23.1616  -46.5198 H         1 UNK         0.0851 
     84 H84        17.5835  -25.0395  -43.6886 H         1 UNK         0.2976 
     85 H85        21.8710  -24.3591  -42.3211 H         1 UNK         0.3116 
     86 H86        21.9933  -25.4114  -39.7213 H         1 UNK         0.0646 
     87 H87        22.4016  -23.0259  -39.0639 H         1 UNK         0.0847 
     88 H88        21.0953  -23.1706  -40.2278 H         1 UNK         0.0847 
     89 H89        22.6838  -22.6068  -40.7473 H         1 UNK         0.0847 
     90 H90        23.5741  -26.5741  -38.9351 H         1 UNK         0.3040 
     91 H91        25.4839  -27.3694  -38.1993 H         1 UNK         0.1015 
     92 H92        27.3976  -25.9204  -37.6828 H         1 UNK         0.0786 
     93 H93        25.9166  -25.0735  -37.2736 H         1 UNK         0.0786 
     94 H94        26.7992  -24.6560  -38.7424 H         1 UNK         0.0786 
     95 H95        24.8880  -27.0430  -41.2965 H         1 UNK         0.3172 
     96 H96        27.5482  -27.8883  -42.3478 H         1 UNK         0.0595 
     97 H97        24.9464  -27.2589  -43.8378 H         1 UNK         0.0839 
     98 H98        26.5122  -27.5940  -44.5552 H         1 UNK         0.0839 
     99 H99        26.2814  -26.1288  -43.6138 H         1 UNK         0.0839 
    100 H100       24.2714  -29.0653  -41.5759 H         1 UNK         0.2998 
    101 H101       25.1294  -31.8221  -41.7245 H         1 UNK         0.0822 
    102 H102       24.4410  -31.3803  -44.1355 H         1 UNK         0.0787 
    103 H103       22.8730  -30.8207  -43.5578 H         1 UNK         0.0787 
    104 H104       23.3438  -32.5011  -43.3499 H         1 UNK         0.0787 
    105 H105       23.1347  -33.2257  -41.1206 H         1 UNK         0.3055 
    106 H106       20.9962  -31.9013  -39.6836 H         1 UNK         0.1106 
    107 H107       22.9393  -33.7898  -38.2141 H         1 UNK         0.0828 
    108 H108       22.7399  -32.0713  -37.8765 H         1 UNK         0.0828 
    109 H109       21.4200  -33.1856  -37.5650 H         1 UNK         0.0828 
    110 H110       19.2318  -33.3319  -39.4385 H         1 UNK         0.2931 
    111 H111       19.3915  -35.9007  -40.9519 H         1 UNK         0.0412 
    112 H112       19.3502  -35.0291  -37.7778 H         1 UNK         0.3472 
    113 H113       18.2743  -36.2712  -37.1917 H         1 UNK         0.3472 
    114 H114       16.9960  -35.4852  -41.5811 H         1 UNK         0.0970 
    115 H115       17.0716  -33.9098  -40.8471 H         1 UNK         0.0970 
    116 H116       18.9997  -31.9343  -41.9765 H         1 UNK         0.0612 
    117 H117       17.2693  -31.9834  -42.2307 H         1 UNK         0.0612 
@<TRIPOS>BOND
     1    1    2 1    
     2    1   62 1    
     3    1   63 1    
     4    1   64 1    
     5    2    3 2    
     6    2    4 am   BACKBONE|DICT|INTERRES
     7    4    5 1    
     8    4   65 1    
     9    5    6 1    
    10    5   25 1    
    11    5   66 1    
    12    6    7 1    
    13    6   67 1    
    14    6   68 1    
    15    7    8 1    
    16    8    9 1    
    17    8   69 1    
    18    8   70 1    
    19    9   10 ar   
    20    9   14 ar   
    21   10   11 ar   
    22   10   71 1    
    23   11   12 ar   
    24   11   61 1    
    25   12   13 ar   
    26   12   72 1    
    27   13   14 ar   
    28   13   15 1    
    29   14   73 1    
    30   15   16 1    
    31   15   74 1    
    32   15   75 1    
    33   16   17 1    
    34   17   18 1    
    35   17   76 1    
    36   17   77 1    
    37   18   19 1    
    38   18   27 1    
    39   18   78 1    
    40   19   20 am   BACKBONE|DICT|INTERRES
    41   19   79 1    
    42   20   21 2    
    43   20   22 1    
    44   22   23 1    
    45   22   24 1    
    46   22   80 1    
    47   23   81 1    
    48   23   82 1    
    49   23   83 1    
    50   24   25 am   BACKBONE|DICT|INTERRES
    51   24   84 1    
    52   25   26 2    
    53   27   28 2    
    54   27   29 am   BACKBONE|DICT|INTERRES
    55   29   30 1    
    56   29   85 1    
    57   30   31 1    
    58   30   32 1    
    59   30   86 1    
    60   31   87 1    
    61   31   88 1    
    62   31   89 1    
    63   32   33 2    
    64   32   34 am   BACKBONE|DICT|INTERRES
    65   34   35 1    
    66   34   90 1    
    67   35   36 1    
    68   35   37 1    
    69   35   91 1    
    70   36   92 1    
    71   36   93 1    
    72   36   94 1    
    73   37   38 2    
    74   37   39 am   BACKBONE|DICT|INTERRES
    75   39   40 1    
    76   39   95 1    
    77   40   41 1    
    78   40   42 1    
    79   40   96 1    
    80   41   97 1    
    81   41   98 1    
    82   41   99 1    
    83   42   43 2    
    84   42   44 am   BACKBONE|DICT|INTERRES
    85   44   45 1    
    86   44  100 1    
    87   45   46 1    
    88   45   47 1    
    89   45  101 1    
    90   46  102 1    
    91   46  103 1    
    92   46  104 1    
    93   47   48 2    
    94   47   49 am   BACKBONE|DICT|INTERRES
    95   49   50 1    
    96   49  105 1    
    97   50   51 1    
    98   50   52 1    
    99   50  106 1    
   100   51  107 1    
   101   51  108 1    
   102   51  109 1    
   103   52   53 2    
   104   52   54 am   BACKBONE|DICT|INTERRES
   105   54   55 1    
   106   54  110 1    
   107   55   56 1    
   108   55   59 1    
   109   55  111 1    
   110   56   57 am   BACKBONE|DICT|INTERRES
   111   56   58 2    
   112   57  112 1    
   113   57  113 1    
   114   59   60 1    
   115   59  114 1    
   116   59  115 1    
   117   60   61 1    
   118   61  116 1    
   119   61  117 1    
@<TRIPOS>SUBSTRUCTURE
     1 UNK         1 GROUP             0       ****    0 ROOT    
