@<TRIPOS>MOLECULE
3R8
117   119    1
SMALL
USER_CHARGES


@<TRIPOS>ATOM
      1 CA         16.3618  -23.6346  -46.6594 C.3       0 UNK        -0.2013 
      2 C          16.8260  -24.9993  -46.1723 C.2       0 UNK         0.4866 
      3 O          17.7231  -25.5840  -46.7750 O.2       0 UNK        -0.5176 
      4 N          16.2193  -25.4954  -45.0897 N.am      1 UNK        -0.4884 
      5 CA         16.5317  -26.7488  -44.3936 C.3       1 UNK         0.0853 
      6 C6         15.4679  -27.8434  -44.6910 C.3       10 UNK        -0.0849 
      7 S7         15.4652  -28.3885  -46.4337 S.3       10 UNK        -0.2776 
      8 C8         16.2847  -30.0229  -46.3500 C.3       10 UNK         0.0316 
      9 C9         17.7917  -29.9952  -46.0819 C.ar      10 UNK        -0.0863 
     10 C10        18.3950  -31.1153  -45.4977 C.ar      10 UNK        -0.1009 
     11 C11        19.7752  -31.1456  -45.2494 C.ar      10 UNK        -0.0712 
     12 C12        20.5467  -30.0391  -45.6082 C.ar      10 UNK        -0.0894 
     13 C13        19.9674  -28.9128  -46.1913 C.ar      10 UNK        -0.0745 
     14 C14        18.5940  -28.9056  -46.4432 C.ar      10 UNK        -0.0972 
     15 C15        20.8323  -27.7188  -46.5717 C.3       10 UNK         0.0209 
     16 S16        20.8453  -26.4259  -45.2870 S.3       10 UNK        -0.2568 
     17 C17        21.8653  -27.1713  -43.9670 C.3       10 UNK        -0.0983 
     18 CA         21.3424  -26.8161  -42.5497 C.3       3 UNK         0.0876 
     19 N          19.9334  -27.1746  -42.3474 N.am      3 UNK        -0.4424 
     20 C          19.4110  -28.4078  -42.2792 C.2       2 UNK         0.4918 
     21 O          20.0758  -29.4459  -42.2477 O.2       2 UNK        -0.4875 
     22 CA         17.8742  -28.5031  -42.2362 C.3       2 UNK         0.0481 
     23 CB         17.4134  -29.4491  -41.1164 C.3       2 UNK        -0.1831 
     24 N          17.2157  -27.2093  -42.0151 N.am      2 UNK        -0.4498 
     25 C          16.5802  -26.4110  -42.8855 C.2       1 UNK         0.5027 
     26 O          16.0161  -25.3886  -42.4878 O.2       1 UNK        -0.4969 
     27 C          22.2424  -27.3657  -41.4232 C.2       3 UNK         0.5005 
     28 O          23.1959  -28.1027  -41.6868 O.2       3 UNK        -0.5279 
     29 N          21.9124  -26.9935  -40.1763 N.am      4 UNK        -0.4463 
     30 CA         22.5909  -27.4068  -38.9390 C.3       4 UNK         0.0283 
     31 CB         21.8602  -26.7939  -37.7338 C.3       4 UNK        -0.1875 
     32 C          24.0940  -27.0744  -38.8773 C.2       4 UNK         0.4949 
     33 O          24.8374  -27.7678  -38.1842 O.2       4 UNK        -0.5039 
     34 N          24.5151  -26.0352  -39.6090 N.am      5 UNK        -0.4663 
     35 CA         25.9145  -25.6309  -39.7605 C.3       5 UNK         0.0242 
     36 CB         25.9534  -24.1475  -40.1666 C.3       5 UNK        -0.1982 
     37 C          26.7013  -26.4879  -40.7734 C.2       5 UNK         0.5017 
     38 O          27.9213  -26.3338  -40.8490 O.2       5 UNK        -0.5012 
     39 N          26.0125  -27.3406  -41.5444 N.am      6 UNK        -0.4439 
     40 CA         26.5818  -28.1841  -42.5909 C.3       6 UNK         0.0297 
     41 CB         26.1687  -27.6289  -43.9703 C.3       6 UNK        -0.2006 
     42 C          26.1651  -29.6417  -42.3398 C.2       6 UNK         0.4892 
     43 O          26.6335  -30.2342  -41.3667 O.2       6 UNK        -0.5089 
     44 N          25.3305  -30.2047  -43.2255 N.am      7 UNK        -0.4243 
     45 CA         24.9120  -31.6099  -43.2192 C.3       7 UNK         0.0196 
     46 CB         24.2088  -31.9336  -44.5459 C.3       7 UNK        -0.2007 
     47 C          24.0333  -32.0148  -42.0219 C.2       7 UNK         0.5020 
     48 O          24.0783  -33.1825  -41.6347 O.2       7 UNK        -0.5147 
     49 N          23.2810  -31.0571  -41.4571 N.am      8 UNK        -0.4734 
     50 CA         22.4657  -31.1656  -40.2415 C.3       8 UNK         0.0238 
     51 CB         23.3845  -31.2332  -39.0030 C.3       8 UNK        -0.1912 
     52 C          21.4405  -32.3151  -40.2776 C.2       8 UNK         0.5038 
     53 O          21.5728  -33.2868  -39.5299 O.2       8 UNK        -0.5046 
     54 N          20.4271  -32.1737  -41.1401 N.am      9 UNK        -0.4200 
     55 CA         19.3040  -33.1219  -41.2635 C.3       9 UNK         0.0839 
     56 C          18.3001  -33.1041  -40.0696 C.2       9 UNK         0.5513 
     57 N          18.3992  -32.1844  -39.1166 N.am      9 UNK        -0.7519 
     58 O          17.4141  -33.9521  -40.0041 O.2       9 UNK        -0.4960 
     59 C59        18.5714  -32.9578  -42.6227 C.3       10 UNK        -0.0876 
     60 S60        19.4767  -33.7137  -44.0125 S.3       10 UNK        -0.2414 
     61 C61        20.5041  -32.3308  -44.6113 C.3       10 UNK         0.0169 
     62 H62        17.1925  -22.9295  -46.6465 H         1 UNK         0.0903 
     63 H63        15.9929  -23.7081  -47.6821 H         1 UNK         0.0903 
     64 H64        15.5625  -23.2289  -46.0394 H         1 UNK         0.0903 
     65 H65        15.5493  -24.9235  -44.5907 H         1 UNK         0.3096 
     66 H66        17.5245  -27.0927  -44.6875 H         1 UNK         0.1121 
     67 H67        14.4700  -27.4631  -44.4641 H         1 UNK         0.0849 
     68 H68        15.5900  -28.7180  -44.0526 H         1 UNK         0.0849 
     69 H69        15.7791  -30.6269  -45.5948 H         1 UNK         0.0865 
     70 H70        16.1238  -30.5309  -47.3016 H         1 UNK         0.0865 
     71 H71        17.7783  -31.9658  -45.2463 H         1 UNK         0.1346 
     72 H72        21.6115  -30.0528  -45.4319 H         1 UNK         0.1412 
     73 H73        18.1550  -28.0435  -46.9230 H         1 UNK         0.1426 
     74 H74        21.8561  -28.0342  -46.7792 H         1 UNK         0.0716 
     75 H75        20.4565  -27.2811  -47.4978 H         1 UNK         0.0716 
     76 H76        21.9142  -28.2517  -44.0895 H         1 UNK         0.0695 
     77 H77        22.8833  -26.8026  -44.0971 H         1 UNK         0.0695 
     78 H78        21.3922  -25.7297  -42.4591 H         1 UNK         0.0983 
     79 H79        19.2888  -26.3983  -42.3387 H         1 UNK         0.3095 
     80 H80        17.5799  -28.9401  -43.1885 H         1 UNK         0.0454 
     81 H81        17.7101  -29.0876  -40.1311 H         1 UNK         0.0851 
     82 H82        16.3299  -29.5689  -41.1175 H         1 UNK         0.0851 
     83 H83        17.8408  -30.4401  -41.2355 H         1 UNK         0.0851 
     84 H84        17.2090  -26.9084  -41.0506 H         1 UNK         0.2976 
     85 H85        21.1057  -26.3966  -40.0609 H         1 UNK         0.3116 
     86 H86        22.5017  -28.4894  -38.8626 H         1 UNK         0.0646 
     87 H87        21.8805  -25.7037  -37.7601 H         1 UNK         0.0847 
     88 H88        20.8181  -27.1116  -37.6953 H         1 UNK         0.0847 
     89 H89        22.3241  -27.1047  -36.7965 H         1 UNK         0.0847 
     90 H90        23.8305  -25.5140  -40.1370 H         1 UNK         0.3040 
     91 H91        26.4163  -25.7341  -38.7955 H         1 UNK         0.1015 
     92 H92        25.4750  -23.9803  -41.1325 H         1 UNK         0.0786 
     93 H93        26.9810  -23.7899  -40.2465 H         1 UNK         0.0786 
     94 H94        25.4524  -23.5203  -39.4289 H         1 UNK         0.0786 
     95 H95        25.0163  -27.4643  -41.3823 H         1 UNK         0.3172 
     96 H96        27.6724  -28.1708  -42.5416 H         1 UNK         0.0595 
     97 H97        26.5765  -28.2350  -44.7806 H         1 UNK         0.0839 
     98 H98        26.5497  -26.6171  -44.1105 H         1 UNK         0.0839 
     99 H99        25.0865  -27.5884  -44.0900 H         1 UNK         0.0839 
    100 H100       24.9873  -29.6331  -43.9829 H         1 UNK         0.2998 
    101 H101       25.8179  -32.2178  -43.1642 H         1 UNK         0.0822 
    102 H102       23.8689  -32.9702  -44.5684 H         1 UNK         0.0787 
    103 H103       23.3378  -31.2998  -44.6987 H         1 UNK         0.0787 
    104 H104       24.8786  -31.7951  -45.3948 H         1 UNK         0.0787 
    105 H105       23.3277  -30.1214  -41.8508 H         1 UNK         0.3055 
    106 H106       21.8863  -30.2443  -40.1804 H         1 UNK         0.1106 
    107 H107       23.9770  -32.1487  -38.9881 H         1 UNK         0.0828 
    108 H108       24.0782  -30.3928  -38.9769 H         1 UNK         0.0828 
    109 H109       22.8023  -31.2059  -38.0813 H         1 UNK         0.0828 
    110 H110       20.3701  -31.3241  -41.6940 H         1 UNK         0.2931 
    111 H111       19.7319  -34.1264  -41.2448 H         1 UNK         0.0412 
    112 H112       17.7435  -32.1982  -38.3513 H         1 UNK         0.3472 
    113 H113       19.1313  -31.4949  -39.1410 H         1 UNK         0.3472 
    114 H114       17.5936  -33.4433  -42.6047 H         1 UNK         0.0970 
    115 H115       18.3738  -31.9081  -42.8354 H         1 UNK         0.0970 
    116 H116       21.1999  -32.7357  -45.3471 H         1 UNK         0.0612 
    117 H117       21.1136  -31.9696  -43.7827 H         1 UNK         0.0612 
@<TRIPOS>BOND
     1    1    2 1    
     2    1   62 1    
     3    1   63 1    
     4    1   64 1    
     5    2    3 2    
     6    2    4 am   BACKBONE|DICT|INTERRES
     7    4    5 1    
     8    4   65 1    
     9    5    6 1    
    10    5   25 1    
    11    5   66 1    
    12    6    7 1    
    13    6   67 1    
    14    6   68 1    
    15    7    8 1    
    16    8    9 1    
    17    8   69 1    
    18    8   70 1    
    19    9   10 ar   
    20    9   14 ar   
    21   10   11 ar   
    22   10   71 1    
    23   11   12 ar   
    24   11   61 1    
    25   12   13 ar   
    26   12   72 1    
    27   13   14 ar   
    28   13   15 1    
    29   14   73 1    
    30   15   16 1    
    31   15   74 1    
    32   15   75 1    
    33   16   17 1    
    34   17   18 1    
    35   17   76 1    
    36   17   77 1    
    37   18   19 1    
    38   18   27 1    
    39   18   78 1    
    40   19   20 am   BACKBONE|DICT|INTERRES
    41   19   79 1    
    42   20   21 2    
    43   20   22 1    
    44   22   23 1    
    45   22   24 1    
    46   22   80 1    
    47   23   81 1    
    48   23   82 1    
    49   23   83 1    
    50   24   25 am   BACKBONE|DICT|INTERRES
    51   24   84 1    
    52   25   26 2    
    53   27   28 2    
    54   27   29 am   BACKBONE|DICT|INTERRES
    55   29   30 1    
    56   29   85 1    
    57   30   31 1    
    58   30   32 1    
    59   30   86 1    
    60   31   87 1    
    61   31   88 1    
    62   31   89 1    
    63   32   33 2    
    64   32   34 am   BACKBONE|DICT|INTERRES
    65   34   35 1    
    66   34   90 1    
    67   35   36 1    
    68   35   37 1    
    69   35   91 1    
    70   36   92 1    
    71   36   93 1    
    72   36   94 1    
    73   37   38 2    
    74   37   39 am   BACKBONE|DICT|INTERRES
    75   39   40 1    
    76   39   95 1    
    77   40   41 1    
    78   40   42 1    
    79   40   96 1    
    80   41   97 1    
    81   41   98 1    
    82   41   99 1    
    83   42   43 2    
    84   42   44 am   BACKBONE|DICT|INTERRES
    85   44   45 1    
    86   44  100 1    
    87   45   46 1    
    88   45   47 1    
    89   45  101 1    
    90   46  102 1    
    91   46  103 1    
    92   46  104 1    
    93   47   48 2    
    94   47   49 am   BACKBONE|DICT|INTERRES
    95   49   50 1    
    96   49  105 1    
    97   50   51 1    
    98   50   52 1    
    99   50  106 1    
   100   51  107 1    
   101   51  108 1    
   102   51  109 1    
   103   52   53 2    
   104   52   54 am   BACKBONE|DICT|INTERRES
   105   54   55 1    
   106   54  110 1    
   107   55   56 1    
   108   55   59 1    
   109   55  111 1    
   110   56   57 am   BACKBONE|DICT|INTERRES
   111   56   58 2    
   112   57  112 1    
   113   57  113 1    
   114   59   60 1    
   115   59  114 1    
   116   59  115 1    
   117   60   61 1    
   118   61  116 1    
   119   61  117 1    
@<TRIPOS>SUBSTRUCTURE
     1 UNK         1 GROUP             0       ****    0 ROOT    
