@<TRIPOS>MOLECULE
3R8
117   119    1
SMALL
USER_CHARGES


@<TRIPOS>ATOM
      1 CA         14.4557  -24.5988  -42.8467 C.3       0 UNK        -0.2013 
      2 C          15.5381  -25.5990  -43.2244 C.2       0 UNK         0.4866 
      3 O          16.4007  -25.2857  -44.0460 O.2       0 UNK        -0.5176 
      4 N          15.4946  -26.8025  -42.6383 N.am      1 UNK        -0.4884 
      5 CA         16.4856  -27.8639  -42.8502 C.3       1 UNK         0.0853 
      6 C6         15.9236  -29.2639  -42.4977 C.3       10 UNK        -0.0849 
      7 S7         14.7278  -29.7930  -43.7716 S.3       10 UNK        -0.2776 
      8 C8         15.7001  -30.9754  -44.7705 C.3       10 UNK         0.0316 
      9 C9         17.0624  -30.4345  -45.1973 C.ar      10 UNK        -0.0863 
     10 C10        18.2298  -31.0565  -44.7478 C.ar      10 UNK        -0.1009 
     11 C11        19.4920  -30.5747  -45.1188 C.ar      10 UNK        -0.0712 
     12 C12        19.5654  -29.4627  -45.9661 C.ar      10 UNK        -0.0894 
     13 C13        18.4061  -28.8292  -46.4364 C.ar      10 UNK        -0.0745 
     14 C14        17.1590  -29.3334  -46.0529 C.ar      10 UNK        -0.0972 
     15 C15        18.4490  -27.6567  -47.4207 C.3       10 UNK         0.0209 
     16 S16        19.9895  -26.6702  -47.4195 S.3       10 UNK        -0.2568 
     17 C17        19.6221  -25.2895  -46.2725 C.3       10 UNK        -0.0983 
     18 CA         20.4986  -25.2610  -44.9937 C.3       3 UNK         0.0876 
     19 N          20.2603  -26.4491  -44.1698 N.am      3 UNK        -0.4424 
     20 C          20.7585  -26.6877  -42.9485 C.2       2 UNK         0.4918 
     21 O          21.5664  -25.9542  -42.3789 O.2       2 UNK        -0.4875 
     22 CA         20.2884  -27.9912  -42.2801 C.3       2 UNK         0.0481 
     23 CB         20.6086  -28.0543  -40.7701 C.3       2 UNK        -0.1831 
     24 N          18.8735  -28.2639  -42.5687 N.am      2 UNK        -0.4498 
     25 C          17.8146  -27.5641  -42.1302 C.2       1 UNK         0.5027 
     26 O          17.8631  -26.7104  -41.2410 O.2       1 UNK        -0.4969 
     27 C          21.9907  -25.0068  -45.3122 C.2       3 UNK         0.5005 
     28 O          22.4060  -23.8512  -45.4103 O.2       3 UNK        -0.5279 
     29 N          22.7668  -26.0921  -45.4367 N.am      4 UNK        -0.4463 
     30 CA         24.2089  -26.0899  -45.6891 C.3       4 UNK         0.0283 
     31 CB         24.5431  -27.2998  -46.5807 C.3       4 UNK        -0.1875 
     32 C          25.0516  -26.1140  -44.3975 C.2       4 UNK         0.4949 
     33 O          26.2712  -26.2510  -44.4947 O.2       4 UNK        -0.5039 
     34 N          24.4061  -26.0178  -43.2218 N.am      5 UNK        -0.4663 
     35 CA         24.9862  -26.1492  -41.8760 C.3       5 UNK         0.0242 
     36 CB         25.9782  -25.0042  -41.5777 C.3       5 UNK        -0.1982 
     37 C          25.5804  -27.5513  -41.6286 C.2       5 UNK         0.5017 
     38 O          26.6481  -27.6805  -41.0279 O.2       5 UNK        -0.5012 
     39 N          24.8669  -28.5785  -42.1136 N.am      6 UNK        -0.4439 
     40 CA         25.2669  -29.9894  -42.0831 C.3       6 UNK         0.0297 
     41 CB         24.3439  -30.7847  -43.0220 C.3       6 UNK        -0.2006 
     42 C          25.2677  -30.6310  -40.6831 C.2       6 UNK         0.4892 
     43 O          25.8810  -31.6859  -40.5164 O.2       6 UNK        -0.5089 
     44 N          24.5562  -30.0186  -39.7237 N.am      7 UNK        -0.4243 
     45 CA         24.3500  -30.4197  -38.3221 C.3       7 UNK         0.0196 
     46 CB         25.6810  -30.5112  -37.5504 C.3       7 UNK        -0.2007 
     47 C          23.5124  -31.6989  -38.1442 C.2       7 UNK         0.5020 
     48 O          22.5647  -31.6908  -37.3592 O.2       7 UNK        -0.5147 
     49 N          23.8339  -32.7583  -38.8980 N.am      8 UNK        -0.4734 
     50 CA         23.1209  -34.0431  -38.9216 C.3       8 UNK         0.0238 
     51 CB         23.9046  -35.0376  -39.7929 C.3       8 UNK        -0.1912 
     52 C          21.6638  -33.9324  -39.4086 C.2       8 UNK         0.5038 
     53 O          20.8277  -34.7454  -39.0128 O.2       8 UNK        -0.5046 
     54 N          21.3920  -32.9142  -40.2328 N.am      9 UNK        -0.4200 
     55 CA         20.0521  -32.4977  -40.6671 C.3       9 UNK         0.0839 
     56 C          19.2072  -31.7927  -39.5629 C.2       9 UNK         0.5513 
     57 N          19.7529  -31.4565  -38.3994 N.am      9 UNK        -0.7519 
     58 O          18.0233  -31.5431  -39.7723 O.2       9 UNK        -0.4960 
     59 C59        20.1373  -31.6169  -41.9387 C.3       10 UNK        -0.0876 
     60 S60        20.6786  -32.5507  -43.4075 S.3       10 UNK        -0.2414 
     61 C61        20.8035  -31.2328  -44.6719 C.3       10 UNK         0.0169 
     62 H62        13.8953  -24.3005  -43.7324 H         1 UNK         0.0903 
     63 H63        13.7526  -25.0116  -42.1236 H         1 UNK         0.0903 
     64 H64        14.9057  -23.7070  -42.4114 H         1 UNK         0.0903 
     65 H65        14.7743  -27.0018  -41.9591 H         1 UNK         0.3096 
     66 H66        16.7287  -27.8499  -43.9126 H         1 UNK         0.1121 
     67 H67        16.7094  -30.0172  -42.4170 H         1 UNK         0.0849 
     68 H68        15.4297  -29.2500  -41.5245 H         1 UNK         0.0849 
     69 H69        15.1273  -31.2388  -45.6607 H         1 UNK         0.0865 
     70 H70        15.8121  -31.8993  -44.2007 H         1 UNK         0.0865 
     71 H71        18.1408  -31.9294  -44.1176 H         1 UNK         0.1346 
     72 H72        20.5380  -29.1132  -46.2829 H         1 UNK         0.1412 
     73 H73        16.2538  -28.8673  -46.4194 H         1 UNK         0.1426 
     74 H74        17.5964  -26.9952  -47.2595 H         1 UNK         0.0716 
     75 H75        18.3226  -28.0676  -48.4231 H         1 UNK         0.0716 
     76 H76        18.5693  -25.3228  -45.9878 H         1 UNK         0.0695 
     77 H77        19.7394  -24.3554  -46.8249 H         1 UNK         0.0695 
     78 H78        20.1708  -24.4079  -44.3953 H         1 UNK         0.0983 
     79 H79        19.6120  -27.1149  -44.5617 H         1 UNK         0.3095 
     80 H80        20.8549  -28.7813  -42.7694 H         1 UNK         0.0454 
     81 H81        20.1904  -28.9455  -40.3042 H         1 UNK         0.0851 
     82 H82        20.2183  -27.1885  -40.2346 H         1 UNK         0.0851 
     83 H83        21.6855  -28.0719  -40.6016 H         1 UNK         0.0851 
     84 H84        18.7082  -28.9611  -43.2832 H         1 UNK         0.2976 
     85 H85        22.3229  -26.9950  -45.3595 H         1 UNK         0.3116 
     86 H86        24.4802  -25.1833  -46.2340 H         1 UNK         0.0646 
     87 H87        25.5964  -27.3006  -46.8645 H         1 UNK         0.0847 
     88 H88        23.9641  -27.2842  -47.5044 H         1 UNK         0.0847 
     89 H89        24.3427  -28.2447  -46.0740 H         1 UNK         0.0847 
     90 H90        23.4006  -25.8789  -43.2378 H         1 UNK         0.3040 
     91 H91        24.1556  -26.0477  -41.1751 H         1 UNK         0.1015 
     92 H92        25.5235  -24.0298  -41.7560 H         1 UNK         0.0786 
     93 H93        26.8775  -25.0724  -42.1903 H         1 UNK         0.0786 
     94 H94        26.2961  -25.0263  -40.5346 H         1 UNK         0.0786 
     95 H95        24.0165  -28.3600  -42.6096 H         1 UNK         0.3172 
     96 H96        26.2863  -30.0548  -42.4692 H         1 UNK         0.0595 
     97 H97        23.3078  -30.7602  -42.6844 H         1 UNK         0.0839 
     98 H98        24.6428  -31.8331  -43.0692 H         1 UNK         0.0839 
     99 H99        24.3784  -30.3973  -44.0404 H         1 UNK         0.0839 
    100 H100       24.0829  -29.1687  -39.9932 H         1 UNK         0.2998 
    101 H101       23.7734  -29.6100  -37.8713 H         1 UNK         0.0822 
    102 H102       26.3158  -31.3178  -37.9181 H         1 UNK         0.0787 
    103 H103       26.2453  -29.5814  -37.6242 H         1 UNK         0.0787 
    104 H104       25.5026  -30.6993  -36.4909 H         1 UNK         0.0787 
    105 H105       24.6344  -32.6540  -39.5185 H         1 UNK         0.3055 
    106 H106       23.0905  -34.4257  -37.8989 H         1 UNK         0.1106 
    107 H107       24.9124  -35.1942  -39.4077 H         1 UNK         0.0828 
    108 H108       23.4126  -36.0111  -39.8145 H         1 UNK         0.0828 
    109 H109       23.9893  -34.6913  -40.8238 H         1 UNK         0.0828 
    110 H110       22.1558  -32.3143  -40.5012 H         1 UNK         0.2931 
    111 H111       19.4961  -33.4012  -40.9252 H         1 UNK         0.0412 
    112 H112       19.1775  -31.0049  -37.7066 H         1 UNK         0.3472 
    113 H113       20.7231  -31.6571  -38.1857 H         1 UNK         0.3472 
    114 H114       19.1719  -31.1613  -42.1592 H         1 UNK         0.0970 
    115 H115       20.8353  -30.7989  -41.7707 H         1 UNK         0.0970 
    116 H116       21.4886  -30.4665  -44.3096 H         1 UNK         0.0612 
    117 H117       21.2770  -31.6682  -45.5528 H         1 UNK         0.0612 
@<TRIPOS>BOND
     1    1    2 1    
     2    1   62 1    
     3    1   63 1    
     4    1   64 1    
     5    2    3 2    
     6    2    4 am   BACKBONE|DICT|INTERRES
     7    4    5 1    
     8    4   65 1    
     9    5    6 1    
    10    5   25 1    
    11    5   66 1    
    12    6    7 1    
    13    6   67 1    
    14    6   68 1    
    15    7    8 1    
    16    8    9 1    
    17    8   69 1    
    18    8   70 1    
    19    9   10 ar   
    20    9   14 ar   
    21   10   11 ar   
    22   10   71 1    
    23   11   12 ar   
    24   11   61 1    
    25   12   13 ar   
    26   12   72 1    
    27   13   14 ar   
    28   13   15 1    
    29   14   73 1    
    30   15   16 1    
    31   15   74 1    
    32   15   75 1    
    33   16   17 1    
    34   17   18 1    
    35   17   76 1    
    36   17   77 1    
    37   18   19 1    
    38   18   27 1    
    39   18   78 1    
    40   19   20 am   BACKBONE|DICT|INTERRES
    41   19   79 1    
    42   20   21 2    
    43   20   22 1    
    44   22   23 1    
    45   22   24 1    
    46   22   80 1    
    47   23   81 1    
    48   23   82 1    
    49   23   83 1    
    50   24   25 am   BACKBONE|DICT|INTERRES
    51   24   84 1    
    52   25   26 2    
    53   27   28 2    
    54   27   29 am   BACKBONE|DICT|INTERRES
    55   29   30 1    
    56   29   85 1    
    57   30   31 1    
    58   30   32 1    
    59   30   86 1    
    60   31   87 1    
    61   31   88 1    
    62   31   89 1    
    63   32   33 2    
    64   32   34 am   BACKBONE|DICT|INTERRES
    65   34   35 1    
    66   34   90 1    
    67   35   36 1    
    68   35   37 1    
    69   35   91 1    
    70   36   92 1    
    71   36   93 1    
    72   36   94 1    
    73   37   38 2    
    74   37   39 am   BACKBONE|DICT|INTERRES
    75   39   40 1    
    76   39   95 1    
    77   40   41 1    
    78   40   42 1    
    79   40   96 1    
    80   41   97 1    
    81   41   98 1    
    82   41   99 1    
    83   42   43 2    
    84   42   44 am   BACKBONE|DICT|INTERRES
    85   44   45 1    
    86   44  100 1    
    87   45   46 1    
    88   45   47 1    
    89   45  101 1    
    90   46  102 1    
    91   46  103 1    
    92   46  104 1    
    93   47   48 2    
    94   47   49 am   BACKBONE|DICT|INTERRES
    95   49   50 1    
    96   49  105 1    
    97   50   51 1    
    98   50   52 1    
    99   50  106 1    
   100   51  107 1    
   101   51  108 1    
   102   51  109 1    
   103   52   53 2    
   104   52   54 am   BACKBONE|DICT|INTERRES
   105   54   55 1    
   106   54  110 1    
   107   55   56 1    
   108   55   59 1    
   109   55  111 1    
   110   56   57 am   BACKBONE|DICT|INTERRES
   111   56   58 2    
   112   57  112 1    
   113   57  113 1    
   114   59   60 1    
   115   59  114 1    
   116   59  115 1    
   117   60   61 1    
   118   61  116 1    
   119   61  117 1    
@<TRIPOS>SUBSTRUCTURE
     1 UNK         1 GROUP             0       ****    0 ROOT    
