@<TRIPOS>MOLECULE
3R8
117   119    1
SMALL
USER_CHARGES


@<TRIPOS>ATOM
      1 CA         17.3650  -24.2242  -49.7129 C.3       0 UNK        -0.2013 
      2 C          17.5085  -25.5499  -48.9799 C.2       0 UNK         0.4866 
      3 O          16.9830  -26.5627  -49.4429 O.2       0 UNK        -0.5176 
      4 N          18.2191  -25.5478  -47.8477 N.am      1 UNK        -0.4884 
      5 CA         18.5086  -26.7213  -47.0234 C.3       1 UNK         0.0853 
      6 C6         17.6956  -26.7202  -45.7033 C.3       10 UNK        -0.0849 
      7 S7         16.0065  -27.3771  -45.8934 S.3       10 UNK        -0.2776 
      8 C8         16.1672  -29.0329  -45.1210 C.3       10 UNK         0.0316 
      9 C9         16.4651  -29.0692  -43.6154 C.ar      10 UNK        -0.0863 
     10 C10        16.6239  -30.3176  -43.0013 C.ar      10 UNK        -0.1009 
     11 C11        16.8872  -30.4171  -41.6310 C.ar      10 UNK        -0.0712 
     12 C12        17.0182  -29.2524  -40.8697 C.ar      10 UNK        -0.0894 
     13 C13        16.8858  -27.9973  -41.4689 C.ar      10 UNK        -0.0745 
     14 C14        16.5842  -27.9140  -42.8297 C.ar      10 UNK        -0.0972 
     15 C15        17.0740  -26.7257  -40.6542 C.3       10 UNK         0.0209 
     16 S16        18.8018  -26.5026  -40.1201 S.3       10 UNK        -0.2568 
     17 C17        19.7269  -26.4306  -41.7006 C.3       10 UNK        -0.0983 
     18 CA         20.3271  -27.7792  -42.1937 C.3       3 UNK         0.0876 
     19 N          20.9195  -27.6100  -43.5319 N.am      3 UNK        -0.4424 
     20 C          21.5595  -28.5339  -44.2677 C.2       2 UNK         0.4918 
     21 O          21.8717  -29.6482  -43.8575 O.2       2 UNK        -0.4875 
     22 CA         21.8067  -28.1741  -45.7451 C.3       2 UNK         0.0481 
     23 CB         22.4925  -29.3090  -46.5324 C.3       2 UNK        -0.1831 
     24 N          20.5082  -27.9217  -46.3634 N.am      2 UNK        -0.4498 
     25 C          20.0058  -26.7250  -46.6820 C.2       1 UNK         0.5027 
     26 O          20.6359  -25.6658  -46.6238 O.2       1 UNK        -0.4969 
     27 C          21.2766  -28.4203  -41.1538 C.2       3 UNK         0.5005 
     28 O          22.4955  -28.2711  -41.2557 O.2       3 UNK        -0.5279 
     29 N          20.6818  -29.1034  -40.1632 N.am      4 UNK        -0.4463 
     30 CA         21.2972  -29.8778  -39.0781 C.3       4 UNK         0.0283 
     31 CB         20.2496  -30.1311  -37.9798 C.3       4 UNK        -0.1875 
     32 C          22.5597  -29.2653  -38.4519 C.2       4 UNK         0.4949 
     33 O          23.5707  -29.9558  -38.3263 O.2       4 UNK        -0.5039 
     34 N          22.4779  -27.9782  -38.0941 N.am      5 UNK        -0.4663 
     35 CA         23.5628  -27.2208  -37.4663 C.3       5 UNK         0.0242 
     36 CB         22.9733  -25.9509  -36.8303 C.3       5 UNK        -0.1982 
     37 C          24.7125  -26.8554  -38.4235 C.2       5 UNK         0.5017 
     38 O          25.7998  -26.5312  -37.9438 O.2       5 UNK        -0.5012 
     39 N          24.4577  -26.8862  -39.7377 N.am      6 UNK        -0.4439 
     40 CA         25.4119  -26.5210  -40.7818 C.3       6 UNK         0.0297 
     41 CB         24.7082  -25.6410  -41.8300 C.3       6 UNK        -0.2006 
     42 C          26.0254  -27.7597  -41.4473 C.2       6 UNK         0.4892 
     43 O          27.2443  -27.7990  -41.6211 O.2       6 UNK        -0.5089 
     44 N          25.1845  -28.7293  -41.8337 N.am      7 UNK        -0.4243 
     45 CA         25.5750  -29.8578  -42.6816 C.3       7 UNK         0.0196 
     46 CB         25.6623  -29.3905  -44.1487 C.3       7 UNK        -0.2007 
     47 C          24.6885  -31.1004  -42.4824 C.2       7 UNK         0.5020 
     48 O          24.4953  -31.8685  -43.4264 O.2       7 UNK        -0.5147 
     49 N          24.2021  -31.3120  -41.2496 N.am      8 UNK        -0.4734 
     50 CA         23.5644  -32.5483  -40.7627 C.3       8 UNK         0.0238 
     51 CB         24.6134  -33.6786  -40.6739 C.3       8 UNK        -0.1912 
     52 C          22.2965  -32.9910  -41.5291 C.2       8 UNK         0.5038 
     53 O          22.0106  -34.1889  -41.5758 O.2       8 UNK        -0.5046 
     54 N          21.5637  -32.0296  -42.1072 N.am      9 UNK        -0.4200 
     55 CA         20.3742  -32.2269  -42.9589 C.3       9 UNK         0.0839 
     56 C          20.7028  -32.7904  -44.3758 C.2       9 UNK         0.5513 
     57 N          21.9560  -32.8072  -44.8166 N.am      9 UNK        -0.7519 
     58 O          19.8019  -33.1998  -45.1039 O.2       9 UNK        -0.4960 
     59 C59        19.2073  -32.9934  -42.2695 C.3       10 UNK        -0.0876 
     60 S60        18.7172  -32.2757  -40.6647 S.3       10 UNK        -0.2414 
     61 C61        16.9915  -31.7777  -40.9572 C.3       10 UNK         0.0169 
     62 H62        17.8751  -23.4130  -49.1936 H         1 UNK         0.0903 
     63 H63        17.7848  -24.3020  -50.7155 H         1 UNK         0.0903 
     64 H64        16.3121  -23.9585  -49.8038 H         1 UNK         0.0903 
     65 H65        18.6946  -24.7050  -47.5504 H         1 UNK         0.3096 
     66 H66        18.3014  -27.6363  -47.5840 H         1 UNK         0.1121 
     67 H67        18.1957  -27.3116  -44.9346 H         1 UNK         0.0849 
     68 H68        17.6310  -25.7109  -45.2921 H         1 UNK         0.0849 
     69 H69        15.2363  -29.5736  -45.2979 H         1 UNK         0.0865 
     70 H70        16.9449  -29.5863  -45.6495 H         1 UNK         0.0865 
     71 H71        16.5248  -31.2192  -43.5907 H         1 UNK         0.1346 
     72 H72        17.2256  -29.3225  -39.8104 H         1 UNK         0.1412 
     73 H73        16.4561  -26.9351  -43.2667 H         1 UNK         0.1426 
     74 H74        16.4340  -26.7673  -39.7718 H         1 UNK         0.0716 
     75 H75        16.7597  -25.8462  -41.2185 H         1 UNK         0.0716 
     76 H76        19.0616  -26.0196  -42.4618 H         1 UNK         0.0695 
     77 H77        20.5251  -25.6958  -41.5797 H         1 UNK         0.0695 
     78 H78        19.5073  -28.4849  -42.3380 H         1 UNK         0.0983 
     79 H79        20.7574  -26.7133  -43.9648 H         1 UNK         0.3095 
     80 H80        22.4436  -27.2879  -45.7788 H         1 UNK         0.0454 
     81 H81        21.8973  -30.2231  -46.5248 H         1 UNK         0.0851 
     82 H82        22.6535  -29.0256  -47.5724 H         1 UNK         0.0851 
     83 H83        23.4651  -29.5616  -46.1156 H         1 UNK         0.0851 
     84 H84        19.8990  -28.7263  -46.4192 H         1 UNK         0.2976 
     85 H85        19.6720  -29.1170  -40.1711 H         1 UNK         0.3116 
     86 H86        21.5690  -30.8419  -39.5016 H         1 UNK         0.0646 
     87 H87        20.6696  -30.7284  -37.1691 H         1 UNK         0.0847 
     88 H88        19.3860  -30.6745  -38.3593 H         1 UNK         0.0847 
     89 H89        19.8866  -29.1999  -37.5430 H         1 UNK         0.0847 
     90 H90        21.6106  -27.4870  -38.2598 H         1 UNK         0.3040 
     91 H91        23.9917  -27.8348  -36.6709 H         1 UNK         0.1015 
     92 H92        22.2134  -26.1944  -36.0874 H         1 UNK         0.0786 
     93 H93        22.5178  -25.2995  -37.5775 H         1 UNK         0.0786 
     94 H94        23.7462  -25.3727  -36.3218 H         1 UNK         0.0786 
     95 H95        23.5627  -27.2487  -40.0553 H         1 UNK         0.3172 
     96 H96        26.2279  -25.9333  -40.3555 H         1 UNK         0.0595 
     97 H97        24.3235  -24.7248  -41.3819 H         1 UNK         0.0839 
     98 H98        23.8720  -26.1566  -42.3042 H         1 UNK         0.0839 
     99 H99        25.4004  -25.3485  -42.6208 H         1 UNK         0.0839 
    100 H100       24.1847  -28.6172  -41.6586 H         1 UNK         0.2998 
    101 H101       26.5720  -30.1875  -42.3818 H         1 UNK         0.0822 
    102 H102       26.4815  -28.6853  -44.2889 H         1 UNK         0.0787 
    103 H103       25.8367  -30.2189  -44.8362 H         1 UNK         0.0787 
    104 H104       24.7443  -28.8886  -44.4479 H         1 UNK         0.0787 
    105 H105       24.3856  -30.6126  -40.5407 H         1 UNK         0.3055 
    106 H106       23.2401  -32.3461  -39.7419 H         1 UNK         0.1106 
    107 H107       24.9497  -33.9954  -41.6618 H         1 UNK         0.0828 
    108 H108       25.4889  -33.3649  -40.1055 H         1 UNK         0.0828 
    109 H109       24.2056  -34.5574  -40.1726 H         1 UNK         0.0828 
    110 H110       21.9307  -31.0868  -42.1119 H         1 UNK         0.2931 
    111 H111       19.9934  -31.2232  -43.1464 H         1 UNK         0.0412 
    112 H112       22.1518  -33.1682  -45.7358 H         1 UNK         0.3472 
    113 H113       22.7101  -32.4353  -44.2481 H         1 UNK         0.3472 
    114 H114       19.4743  -34.0386  -42.1093 H         1 UNK         0.0970 
    115 H115       18.3359  -33.0136  -42.9255 H         1 UNK         0.0970 
    116 H116       16.4743  -32.5432  -41.5377 H         1 UNK         0.0612 
    117 H117       16.4792  -31.7377  -39.9948 H         1 UNK         0.0612 
@<TRIPOS>BOND
     1    1    2 1    
     2    1   62 1    
     3    1   63 1    
     4    1   64 1    
     5    2    3 2    
     6    2    4 am   BACKBONE|DICT|INTERRES
     7    4    5 1    
     8    4   65 1    
     9    5    6 1    
    10    5   25 1    
    11    5   66 1    
    12    6    7 1    
    13    6   67 1    
    14    6   68 1    
    15    7    8 1    
    16    8    9 1    
    17    8   69 1    
    18    8   70 1    
    19    9   10 ar   
    20    9   14 ar   
    21   10   11 ar   
    22   10   71 1    
    23   11   12 ar   
    24   11   61 1    
    25   12   13 ar   
    26   12   72 1    
    27   13   14 ar   
    28   13   15 1    
    29   14   73 1    
    30   15   16 1    
    31   15   74 1    
    32   15   75 1    
    33   16   17 1    
    34   17   18 1    
    35   17   76 1    
    36   17   77 1    
    37   18   19 1    
    38   18   27 1    
    39   18   78 1    
    40   19   20 am   BACKBONE|DICT|INTERRES
    41   19   79 1    
    42   20   21 2    
    43   20   22 1    
    44   22   23 1    
    45   22   24 1    
    46   22   80 1    
    47   23   81 1    
    48   23   82 1    
    49   23   83 1    
    50   24   25 am   BACKBONE|DICT|INTERRES
    51   24   84 1    
    52   25   26 2    
    53   27   28 2    
    54   27   29 am   BACKBONE|DICT|INTERRES
    55   29   30 1    
    56   29   85 1    
    57   30   31 1    
    58   30   32 1    
    59   30   86 1    
    60   31   87 1    
    61   31   88 1    
    62   31   89 1    
    63   32   33 2    
    64   32   34 am   BACKBONE|DICT|INTERRES
    65   34   35 1    
    66   34   90 1    
    67   35   36 1    
    68   35   37 1    
    69   35   91 1    
    70   36   92 1    
    71   36   93 1    
    72   36   94 1    
    73   37   38 2    
    74   37   39 am   BACKBONE|DICT|INTERRES
    75   39   40 1    
    76   39   95 1    
    77   40   41 1    
    78   40   42 1    
    79   40   96 1    
    80   41   97 1    
    81   41   98 1    
    82   41   99 1    
    83   42   43 2    
    84   42   44 am   BACKBONE|DICT|INTERRES
    85   44   45 1    
    86   44  100 1    
    87   45   46 1    
    88   45   47 1    
    89   45  101 1    
    90   46  102 1    
    91   46  103 1    
    92   46  104 1    
    93   47   48 2    
    94   47   49 am   BACKBONE|DICT|INTERRES
    95   49   50 1    
    96   49  105 1    
    97   50   51 1    
    98   50   52 1    
    99   50  106 1    
   100   51  107 1    
   101   51  108 1    
   102   51  109 1    
   103   52   53 2    
   104   52   54 am   BACKBONE|DICT|INTERRES
   105   54   55 1    
   106   54  110 1    
   107   55   56 1    
   108   55   59 1    
   109   55  111 1    
   110   56   57 am   BACKBONE|DICT|INTERRES
   111   56   58 2    
   112   57  112 1    
   113   57  113 1    
   114   59   60 1    
   115   59  114 1    
   116   59  115 1    
   117   60   61 1    
   118   61  116 1    
   119   61  117 1    
@<TRIPOS>SUBSTRUCTURE
     1 UNK         1 GROUP             0       ****    0 ROOT    
