@<TRIPOS>MOLECULE
3R8
117   119    1
SMALL
USER_CHARGES


@<TRIPOS>ATOM
      1 CA         17.0518  -21.8694  -42.2950 C.3       0 UNK        -0.2013 
      2 C          17.6573  -22.6228  -43.4698 C.2       0 UNK         0.4866 
      3 O          18.4405  -22.0495  -44.2278 O.2       0 UNK        -0.5176 
      4 N          17.2937  -23.9005  -43.6320 N.am      1 UNK        -0.4884 
      5 CA         17.8359  -24.8147  -44.6412 C.3       1 UNK         0.0853 
      6 C6         16.9529  -26.0793  -44.8349 C.3       10 UNK        -0.0849 
      7 S7         16.2573  -26.7820  -43.2950 S.3       10 UNK        -0.2776 
      8 C8         15.4069  -28.2718  -43.9070 C.3       10 UNK         0.0316 
      9 C9         16.3630  -29.4493  -44.0197 C.ar      10 UNK        -0.0863 
     10 C10        16.5418  -30.3202  -42.9400 C.ar      10 UNK        -0.1009 
     11 C11        17.4452  -31.3856  -43.0214 C.ar      10 UNK        -0.0712 
     12 C12        18.1598  -31.5820  -44.2081 C.ar      10 UNK        -0.0894 
     13 C13        17.9811  -30.7244  -45.2963 C.ar      10 UNK        -0.0745 
     14 C14        17.0729  -29.6682  -45.2012 C.ar      10 UNK        -0.0972 
     15 C15        18.7635  -30.9317  -46.5812 C.3       10 UNK         0.0209 
     16 S16        20.0020  -29.6221  -46.8199 S.3       10 UNK        -0.2568 
     17 C17        21.3115  -30.0970  -45.6318 C.3       10 UNK        -0.0983 
     18 CA         21.7994  -28.9740  -44.6655 C.3       3 UNK         0.0876 
     19 N          21.4898  -27.6159  -45.1221 N.am      3 UNK        -0.4424 
     20 C          22.1227  -26.5131  -44.7071 C.2       2 UNK         0.4918 
     21 O          23.0436  -26.5205  -43.8930 O.2       2 UNK        -0.4875 
     22 CA         21.6255  -25.1729  -45.2682 C.3       2 UNK         0.0481 
     23 CB         22.2613  -24.8980  -46.6397 C.3       2 UNK        -0.1831 
     24 N          20.1661  -25.0642  -45.3693 N.am      2 UNK        -0.4498 
     25 C          19.3115  -25.1551  -44.3388 C.2       1 UNK         0.5027 
     26 O          19.6486  -25.4796  -43.1969 O.2       1 UNK        -0.4969 
     27 C          21.4153  -29.2162  -43.1896 C.2       3 UNK         0.5005 
     28 O          22.0917  -30.0093  -42.5331 O.2       3 UNK        -0.5279 
     29 N          20.4081  -28.4997  -42.6653 N.am      4 UNK        -0.4463 
     30 CA         20.0976  -28.4827  -41.2326 C.3       4 UNK         0.0283 
     31 CB         18.6684  -27.9831  -40.9873 C.3       4 UNK        -0.1875 
     32 C          21.0933  -27.6143  -40.4541 C.2       4 UNK         0.4949 
     33 O          21.5566  -28.0361  -39.3959 O.2       4 UNK        -0.5039 
     34 N          21.4237  -26.4325  -40.9972 N.am      5 UNK        -0.4663 
     35 CA         22.3797  -25.4835  -40.4145 C.3       5 UNK         0.0242 
     36 CB         22.3667  -24.1771  -41.2240 C.3       5 UNK        -0.1982 
     37 C          23.8060  -26.0522  -40.3079 C.2       5 UNK         0.5017 
     38 O          24.4641  -25.8543  -39.2864 O.2       5 UNK        -0.5012 
     39 N          24.2363  -26.7821  -41.3456 N.am      6 UNK        -0.4439 
     40 CA         25.4940  -27.5328  -41.3870 C.3       6 UNK         0.0297 
     41 CB         25.8400  -27.8381  -42.8542 C.3       6 UNK        -0.2006 
     42 C          25.4600  -28.8404  -40.5715 C.2       6 UNK         0.4892 
     43 O          26.5208  -29.4276  -40.3554 O.2       6 UNK        -0.5089 
     44 N          24.2598  -29.2820  -40.1619 N.am      7 UNK        -0.4243 
     45 CA         23.9525  -30.5397  -39.4705 C.3       7 UNK         0.0196 
     46 CB         24.5479  -30.5471  -38.0469 C.3       7 UNK        -0.2007 
     47 C          24.3365  -31.7845  -40.2939 C.2       7 UNK         0.5020 
     48 O          24.7705  -32.7907  -39.7309 O.2       7 UNK        -0.5147 
     49 N          24.1497  -31.7061  -41.6185 N.am      8 UNK        -0.4734 
     50 CA         24.4390  -32.7810  -42.5718 C.3       8 UNK         0.0238 
     51 CB         24.4083  -32.2154  -44.0008 C.3       8 UNK        -0.1912 
     52 C          23.4673  -33.9634  -42.4329 C.2       8 UNK         0.5038 
     53 O          23.8673  -35.1062  -42.6572 O.2       8 UNK        -0.5046 
     54 N          22.2244  -33.6631  -42.0382 N.am      9 UNK        -0.4200 
     55 CA         21.1937  -34.6377  -41.6595 C.3       9 UNK         0.0839 
     56 C          21.3030  -35.1542  -40.1930 C.2       9 UNK         0.5513 
     57 N          22.2877  -34.7408  -39.4023 N.am      9 UNK        -0.7519 
     58 O          20.4862  -35.9670  -39.7675 O.2       9 UNK        -0.4960 
     59 C59        19.7737  -34.1275  -42.0194 C.3       10 UNK        -0.0876 
     60 S60        19.3489  -32.5035  -41.2926 S.3       10 UNK        -0.2414 
     61 C61        17.6153  -32.3278  -41.8330 C.3       10 UNK         0.0169 
     62 H62        16.4991  -21.0003  -42.6507 H         1 UNK         0.0903 
     63 H63        16.3687  -22.4936  -41.7192 H         1 UNK         0.0903 
     64 H64        17.8394  -21.5229  -41.6264 H         1 UNK         0.0903 
     65 H65        16.6711  -24.3369  -42.9656 H         1 UNK         0.3096 
     66 H66        17.8219  -24.2722  -45.5895 H         1 UNK         0.1121 
     67 H67        17.5008  -26.8525  -45.3748 H         1 UNK         0.0849 
     68 H68        16.1081  -25.8213  -45.4755 H         1 UNK         0.0849 
     69 H69        14.9332  -28.0658  -44.8681 H         1 UNK         0.0865 
     70 H70        14.5969  -28.5198  -43.2193 H         1 UNK         0.0865 
     71 H71        15.9850  -30.1563  -42.0274 H         1 UNK         0.1346 
     72 H72        18.8590  -32.3996  -44.2887 H         1 UNK         0.1412 
     73 H73        16.9332  -29.0089  -46.0467 H         1 UNK         0.1426 
     74 H74        18.0727  -30.9208  -47.4254 H         1 UNK         0.0716 
     75 H75        19.2512  -31.9077  -46.5978 H         1 UNK         0.0716 
     76 H76        22.1575  -30.4266  -46.2370 H         1 UNK         0.0695 
     77 H77        21.0033  -30.9896  -45.0838 H         1 UNK         0.0695 
     78 H78        22.8902  -29.0412  -44.6653 H         1 UNK         0.0983 
     79 H79        20.7472  -27.5397  -45.8028 H         1 UNK         0.3095 
     80 H80        21.9581  -24.3905  -44.5835 H         1 UNK         0.0454 
     81 H81        21.9356  -25.6188  -47.3908 H         1 UNK         0.0851 
     82 H82        23.3494  -24.9561  -46.5837 H         1 UNK         0.0851 
     83 H83        22.0125  -23.9000  -47.0008 H         1 UNK         0.0851 
     84 H84        19.8042  -24.7994  -46.2745 H         1 UNK         0.2976 
     85 H85        19.9186  -27.8346  -43.2479 H         1 UNK         0.3116 
     86 H86        20.1634  -29.5035  -40.8495 H         1 UNK         0.0646 
     87 H87        17.9414  -28.6001  -41.5068 H         1 UNK         0.0847 
     88 H88        18.5312  -26.9531  -41.3158 H         1 UNK         0.0847 
     89 H89        18.4208  -28.0201  -39.9259 H         1 UNK         0.0847 
     90 H90        20.9531  -26.1448  -41.8508 H         1 UNK         0.3040 
     91 H91        22.0410  -25.2595  -39.4005 H         1 UNK         0.1015 
     92 H92        23.0221  -23.4321  -40.7711 H         1 UNK         0.0786 
     93 H93        21.3659  -23.7465  -41.2679 H         1 UNK         0.0786 
     94 H94        22.7085  -24.3320  -42.2473 H         1 UNK         0.0786 
     95 H95        23.6584  -26.8144  -42.1841 H         1 UNK         0.3172 
     96 H96        26.2851  -26.9053  -40.9715 H         1 UNK         0.0595 
     97 H97        25.0886  -28.4771  -43.3199 H         1 UNK         0.0839 
     98 H98        26.7989  -28.3523  -42.9327 H         1 UNK         0.0839 
     99 H99        25.9140  -26.9242  -43.4439 H         1 UNK         0.0839 
    100 H100       23.4538  -28.7071  -40.3716 H         1 UNK         0.2998 
    101 H101       22.8661  -30.5705  -39.3726 H         1 UNK         0.0822 
    102 H102       24.2442  -29.6622  -37.4875 H         1 UNK         0.0787 
    103 H103       24.2067  -31.4175  -37.4852 H         1 UNK         0.0787 
    104 H104       25.6377  -30.5777  -38.0631 H         1 UNK         0.0787 
    105 H105       23.6655  -30.8888  -41.9841 H         1 UNK         0.3055 
    106 H106       25.4451  -33.1545  -42.3677 H         1 UNK         0.1106 
    107 H107       24.6663  -32.9847  -44.7298 H         1 UNK         0.0828 
    108 H108       25.1234  -31.4015  -44.1214 H         1 UNK         0.0828 
    109 H109       23.4202  -31.8365  -44.2631 H         1 UNK         0.0828 
    110 H110       21.9914  -32.6929  -41.8761 H         1 UNK         0.2931 
    111 H111       21.3522  -35.5281  -42.2708 H         1 UNK         0.0412 
    112 H112       22.9989  -34.1041  -39.7350 H         1 UNK         0.3472 
    113 H113       22.3388  -35.0972  -38.4610 H         1 UNK         0.3472 
    114 H114       19.6933  -34.0574  -43.1032 H         1 UNK         0.0970 
    115 H115       19.0196  -34.8586  -41.7218 H         1 UNK         0.0970 
    116 H116       17.0406  -31.9652  -40.9795 H         1 UNK         0.0612 
    117 H117       17.1953  -33.3018  -42.0865 H         1 UNK         0.0612 
@<TRIPOS>BOND
     1    1    2 1    
     2    1   62 1    
     3    1   63 1    
     4    1   64 1    
     5    2    3 2    
     6    2    4 am   BACKBONE|DICT|INTERRES
     7    4    5 1    
     8    4   65 1    
     9    5    6 1    
    10    5   25 1    
    11    5   66 1    
    12    6    7 1    
    13    6   67 1    
    14    6   68 1    
    15    7    8 1    
    16    8    9 1    
    17    8   69 1    
    18    8   70 1    
    19    9   10 ar   
    20    9   14 ar   
    21   10   11 ar   
    22   10   71 1    
    23   11   12 ar   
    24   11   61 1    
    25   12   13 ar   
    26   12   72 1    
    27   13   14 ar   
    28   13   15 1    
    29   14   73 1    
    30   15   16 1    
    31   15   74 1    
    32   15   75 1    
    33   16   17 1    
    34   17   18 1    
    35   17   76 1    
    36   17   77 1    
    37   18   19 1    
    38   18   27 1    
    39   18   78 1    
    40   19   20 am   BACKBONE|DICT|INTERRES
    41   19   79 1    
    42   20   21 2    
    43   20   22 1    
    44   22   23 1    
    45   22   24 1    
    46   22   80 1    
    47   23   81 1    
    48   23   82 1    
    49   23   83 1    
    50   24   25 am   BACKBONE|DICT|INTERRES
    51   24   84 1    
    52   25   26 2    
    53   27   28 2    
    54   27   29 am   BACKBONE|DICT|INTERRES
    55   29   30 1    
    56   29   85 1    
    57   30   31 1    
    58   30   32 1    
    59   30   86 1    
    60   31   87 1    
    61   31   88 1    
    62   31   89 1    
    63   32   33 2    
    64   32   34 am   BACKBONE|DICT|INTERRES
    65   34   35 1    
    66   34   90 1    
    67   35   36 1    
    68   35   37 1    
    69   35   91 1    
    70   36   92 1    
    71   36   93 1    
    72   36   94 1    
    73   37   38 2    
    74   37   39 am   BACKBONE|DICT|INTERRES
    75   39   40 1    
    76   39   95 1    
    77   40   41 1    
    78   40   42 1    
    79   40   96 1    
    80   41   97 1    
    81   41   98 1    
    82   41   99 1    
    83   42   43 2    
    84   42   44 am   BACKBONE|DICT|INTERRES
    85   44   45 1    
    86   44  100 1    
    87   45   46 1    
    88   45   47 1    
    89   45  101 1    
    90   46  102 1    
    91   46  103 1    
    92   46  104 1    
    93   47   48 2    
    94   47   49 am   BACKBONE|DICT|INTERRES
    95   49   50 1    
    96   49  105 1    
    97   50   51 1    
    98   50   52 1    
    99   50  106 1    
   100   51  107 1    
   101   51  108 1    
   102   51  109 1    
   103   52   53 2    
   104   52   54 am   BACKBONE|DICT|INTERRES
   105   54   55 1    
   106   54  110 1    
   107   55   56 1    
   108   55   59 1    
   109   55  111 1    
   110   56   57 am   BACKBONE|DICT|INTERRES
   111   56   58 2    
   112   57  112 1    
   113   57  113 1    
   114   59   60 1    
   115   59  114 1    
   116   59  115 1    
   117   60   61 1    
   118   61  116 1    
   119   61  117 1    
@<TRIPOS>SUBSTRUCTURE
     1 UNK         1 GROUP             0       ****    0 ROOT    
