@<TRIPOS>MOLECULE
3R8
117   119    1
SMALL
USER_CHARGES


@<TRIPOS>ATOM
      1 CA         17.8050  -22.8345  -46.7739 C.3       0 UNK        -0.2013 
      2 C          16.6924  -23.4409  -45.9223 C.2       0 UNK         0.4866 
      3 O          15.7243  -22.7492  -45.6139 O.2       0 UNK        -0.5176 
      4 N          16.7723  -24.7179  -45.5178 N.am      1 UNK        -0.4884 
      5 CA         17.8713  -25.6635  -45.7704 C.3       1 UNK         0.0853 
      6 C6         17.3863  -27.1314  -45.6158 C.3       10 UNK        -0.0849 
      7 S7         18.2000  -28.2736  -46.7854 S.3       10 UNK        -0.2776 
      8 C8         19.3876  -29.1554  -45.7225 C.3       10 UNK         0.0316 
      9 C9         18.7173  -30.2215  -44.8676 C.ar      10 UNK        -0.0863 
     10 C10        18.4570  -31.4890  -45.3985 C.ar      10 UNK        -0.1009 
     11 C11        17.8820  -32.4867  -44.6052 C.ar      10 UNK        -0.0712 
     12 C12        17.5720  -32.2092  -43.2708 C.ar      10 UNK        -0.0894 
     13 C13        17.8291  -30.9476  -42.7252 C.ar      10 UNK        -0.0745 
     14 C14        18.3923  -29.9559  -43.5345 C.ar      10 UNK        -0.0972 
     15 C15        17.4720  -30.6642  -41.2705 C.3       10 UNK         0.0209 
     16 S16        18.9092  -30.1379  -40.2764 S.3       10 UNK        -0.2568 
     17 C17        18.8071  -28.3178  -40.3776 C.3       10 UNK        -0.0983 
     18 CA         20.0691  -27.6610  -40.9950 C.3       3 UNK         0.0876 
     19 N          19.7383  -26.3546  -41.5820 N.am      3 UNK        -0.4424 
     20 C          20.5860  -25.4613  -42.1120 C.2       2 UNK         0.4918 
     21 O          21.8118  -25.5725  -42.0899 O.2       2 UNK        -0.4875 
     22 CA         19.9288  -24.2452  -42.7908 C.3       2 UNK         0.0481 
     23 CB         20.9575  -23.2740  -43.4082 C.3       2 UNK        -0.1831 
     24 N          18.9200  -24.6444  -43.7824 N.am      2 UNK        -0.4498 
     25 C          19.1128  -25.3803  -44.8916 C.2       1 UNK         0.5027 
     26 O          20.2088  -25.8142  -45.2442 O.2       1 UNK        -0.4969 
     27 C          21.2351  -27.6266  -39.9843 C.2       3 UNK         0.5005 
     28 O          22.1464  -28.4487  -40.0830 O.2       3 UNK        -0.5279 
     29 N          21.2081  -26.6495  -39.0662 N.am      4 UNK        -0.4463 
     30 CA         22.2236  -26.4555  -38.0262 C.3       4 UNK         0.0283 
     31 CB         21.7250  -25.4062  -37.0196 C.3       4 UNK        -0.1875 
     32 C          23.6114  -26.0623  -38.5654 C.2       4 UNK         0.4949 
     33 O          24.6129  -26.3840  -37.9257 O.2       4 UNK        -0.5039 
     34 N          23.6511  -25.3771  -39.7158 N.am      5 UNK        -0.4663 
     35 CA         24.8863  -24.9940  -40.4009 C.3       5 UNK         0.0242 
     36 CB         24.6677  -23.6685  -41.1495 C.3       5 UNK        -0.1982 
     37 C          25.3491  -26.0927  -41.3684 C.2       5 UNK         0.5017 
     38 O          26.5454  -26.3773  -41.4325 O.2       5 UNK        -0.5012 
     39 N          24.3957  -26.6786  -42.1059 N.am      6 UNK        -0.4439 
     40 CA         24.6243  -27.7191  -43.1073 C.3       6 UNK         0.0297 
     41 CB         23.3462  -27.9088  -43.9435 C.3       6 UNK        -0.2006 
     42 C          25.0727  -29.0605  -42.5061 C.2       6 UNK         0.4892 
     43 O          25.9299  -29.7186  -43.0966 O.2       6 UNK        -0.5089 
     44 N          24.4645  -29.4497  -41.3726 N.am      7 UNK        -0.4243 
     45 CA         24.6026  -30.7463  -40.6913 C.3       7 UNK         0.0196 
     46 CB         26.0179  -30.9099  -40.0980 C.3       7 UNK        -0.2007 
     47 C          24.1764  -31.9381  -41.5767 C.2       7 UNK         0.5020 
     48 O          24.7206  -33.0363  -41.4467 O.2       7 UNK        -0.5147 
     49 N          23.2233  -31.6889  -42.4828 N.am      8 UNK        -0.4734 
     50 CA         22.7218  -32.6455  -43.4655 C.3       8 UNK         0.0238 
     51 CB         22.0672  -31.8628  -44.6152 C.3       8 UNK        -0.1912 
     52 C          21.7159  -33.6290  -42.8503 C.2       8 UNK         0.5038 
     53 O          21.0217  -33.2822  -41.8920 O.2       8 UNK        -0.5046 
     54 N          21.6351  -34.8210  -43.4552 N.am      9 UNK        -0.4200 
     55 CA         20.6530  -35.8810  -43.1637 C.3       9 UNK         0.0839 
     56 C          20.7673  -36.5224  -41.7465 C.2       9 UNK         0.5513 
     57 N          21.8782  -36.3643  -41.0370 N.am      9 UNK        -0.7519 
     58 O          19.8519  -37.2062  -41.2948 O.2       9 UNK        -0.4960 
     59 C59        19.1976  -35.4608  -43.5223 C.3       10 UNK        -0.0876 
     60 S60        19.0332  -34.9335  -45.2650 S.3       10 UNK        -0.2414 
     61 C61        17.5697  -33.8537  -45.1983 C.3       10 UNK         0.0169 
     62 H62        17.9331  -23.3878  -47.7036 H         1 UNK         0.0903 
     63 H63        17.5625  -21.8051  -47.0375 H         1 UNK         0.0903 
     64 H64        18.7518  -22.8200  -46.2356 H         1 UNK         0.0903 
     65 H65        16.0062  -25.0860  -44.9707 H         1 UNK         0.3096 
     66 H66        18.1868  -25.5248  -46.8063 H         1 UNK         0.1121 
     67 H67        17.4795  -27.4869  -44.5891 H         1 UNK         0.0849 
     68 H68        16.3206  -27.1978  -45.8418 H         1 UNK         0.0849 
     69 H69        19.9305  -28.4459  -45.0968 H         1 UNK         0.0865 
     70 H70        20.1402  -29.6252  -46.3577 H         1 UNK         0.0865 
     71 H71        18.7045  -31.7010  -46.4298 H         1 UNK         0.1346 
     72 H72        17.1234  -32.9779  -42.6568 H         1 UNK         0.1412 
     73 H73        18.5876  -28.9778  -43.1236 H         1 UNK         0.1426 
     74 H74        17.0646  -31.5622  -40.8036 H         1 UNK         0.0716 
     75 H75        16.6746  -29.9217  -41.2252 H         1 UNK         0.0716 
     76 H76        18.6025  -27.9244  -39.3798 H         1 UNK         0.0695 
     77 H77        17.9287  -28.0573  -40.9690 H         1 UNK         0.0695 
     78 H78        20.4071  -28.2779  -41.8297 H         1 UNK         0.0983 
     79 H79        18.7536  -26.1424  -41.6430 H         1 UNK         0.3095 
     80 H80        19.3968  -23.7034  -42.0076 H         1 UNK         0.0454 
     81 H81        21.6291  -22.8823  -42.6437 H         1 UNK         0.0851 
     82 H82        20.4675  -22.4200  -43.8753 H         1 UNK         0.0851 
     83 H83        21.5766  -23.7600  -44.1631 H         1 UNK         0.0851 
     84 H84        17.9761  -24.3325  -43.5976 H         1 UNK         0.2976 
     85 H85        20.4305  -26.0051  -39.0728 H         1 UNK         0.3116 
     86 H86        22.3391  -27.4043  -37.4977 H         1 UNK         0.0646 
     87 H87        22.4491  -25.2619  -36.2164 H         1 UNK         0.0847 
     88 H88        21.5663  -24.4358  -37.4916 H         1 UNK         0.0847 
     89 H89        20.7879  -25.7132  -36.5550 H         1 UNK         0.0847 
     90 H90        22.7845  -25.2041  -40.2095 H         1 UNK         0.3040 
     91 H91        25.6801  -24.8383  -39.6664 H         1 UNK         0.1015 
     92 H92        25.5847  -23.3466  -41.6449 H         1 UNK         0.0786 
     93 H93        24.3721  -22.8721  -40.4664 H         1 UNK         0.0786 
     94 H94        23.8975  -23.7556  -41.9166 H         1 UNK         0.0786 
     95 H95        23.4404  -26.3369  -42.0159 H         1 UNK         0.3172 
     96 H96        25.4166  -27.3713  -43.7735 H         1 UNK         0.0595 
     97 H97        22.5044  -28.2323  -43.3305 H         1 UNK         0.0839 
     98 H98        23.4941  -28.6602  -44.7202 H         1 UNK         0.0839 
     99 H99        23.0549  -26.9828  -44.4406 H         1 UNK         0.0839 
    100 H100       23.7449  -28.8460  -40.9783 H         1 UNK         0.2998 
    101 H101       23.8970  -30.7246  -39.8593 H         1 UNK         0.0822 
    102 H102       26.0789  -31.8010  -39.4722 H         1 UNK         0.0787 
    103 H103       26.7750  -31.0076  -40.8766 H         1 UNK         0.0787 
    104 H104       26.2860  -30.0573  -39.4739 H         1 UNK         0.0787 
    105 H105       22.7911  -30.7776  -42.4756 H         1 UNK         0.3055 
    106 H106       23.5685  -33.2109  -43.8622 H         1 UNK         0.1106 
    107 H107       22.7861  -31.2150  -45.1170 H         1 UNK         0.0828 
    108 H108       21.6543  -32.5351  -45.3688 H         1 UNK         0.0828 
    109 H109       21.2488  -31.2410  -44.2529 H         1 UNK         0.0828 
    110 H110       22.2539  -35.0149  -44.2289 H         1 UNK         0.2931 
    111 H111       20.9170  -36.6951  -43.8397 H         1 UNK         0.0412 
    112 H112       22.6359  -35.8028  -41.3928 H         1 UNK         0.3472 
    113 H113       21.9494  -36.7921  -40.1270 H         1 UNK         0.3472 
    114 H114       18.5058  -36.2901  -43.3651 H         1 UNK         0.0970 
    115 H115       18.8681  -34.6612  -42.8592 H         1 UNK         0.0970 
    116 H116       17.1860  -33.7263  -46.2116 H         1 UNK         0.0612 
    117 H117       16.7775  -34.3496  -44.6351 H         1 UNK         0.0612 
@<TRIPOS>BOND
     1    1    2 1    
     2    1   62 1    
     3    1   63 1    
     4    1   64 1    
     5    2    3 2    
     6    2    4 am   BACKBONE|DICT|INTERRES
     7    4    5 1    
     8    4   65 1    
     9    5    6 1    
    10    5   25 1    
    11    5   66 1    
    12    6    7 1    
    13    6   67 1    
    14    6   68 1    
    15    7    8 1    
    16    8    9 1    
    17    8   69 1    
    18    8   70 1    
    19    9   10 ar   
    20    9   14 ar   
    21   10   11 ar   
    22   10   71 1    
    23   11   12 ar   
    24   11   61 1    
    25   12   13 ar   
    26   12   72 1    
    27   13   14 ar   
    28   13   15 1    
    29   14   73 1    
    30   15   16 1    
    31   15   74 1    
    32   15   75 1    
    33   16   17 1    
    34   17   18 1    
    35   17   76 1    
    36   17   77 1    
    37   18   19 1    
    38   18   27 1    
    39   18   78 1    
    40   19   20 am   BACKBONE|DICT|INTERRES
    41   19   79 1    
    42   20   21 2    
    43   20   22 1    
    44   22   23 1    
    45   22   24 1    
    46   22   80 1    
    47   23   81 1    
    48   23   82 1    
    49   23   83 1    
    50   24   25 am   BACKBONE|DICT|INTERRES
    51   24   84 1    
    52   25   26 2    
    53   27   28 2    
    54   27   29 am   BACKBONE|DICT|INTERRES
    55   29   30 1    
    56   29   85 1    
    57   30   31 1    
    58   30   32 1    
    59   30   86 1    
    60   31   87 1    
    61   31   88 1    
    62   31   89 1    
    63   32   33 2    
    64   32   34 am   BACKBONE|DICT|INTERRES
    65   34   35 1    
    66   34   90 1    
    67   35   36 1    
    68   35   37 1    
    69   35   91 1    
    70   36   92 1    
    71   36   93 1    
    72   36   94 1    
    73   37   38 2    
    74   37   39 am   BACKBONE|DICT|INTERRES
    75   39   40 1    
    76   39   95 1    
    77   40   41 1    
    78   40   42 1    
    79   40   96 1    
    80   41   97 1    
    81   41   98 1    
    82   41   99 1    
    83   42   43 2    
    84   42   44 am   BACKBONE|DICT|INTERRES
    85   44   45 1    
    86   44  100 1    
    87   45   46 1    
    88   45   47 1    
    89   45  101 1    
    90   46  102 1    
    91   46  103 1    
    92   46  104 1    
    93   47   48 2    
    94   47   49 am   BACKBONE|DICT|INTERRES
    95   49   50 1    
    96   49  105 1    
    97   50   51 1    
    98   50   52 1    
    99   50  106 1    
   100   51  107 1    
   101   51  108 1    
   102   51  109 1    
   103   52   53 2    
   104   52   54 am   BACKBONE|DICT|INTERRES
   105   54   55 1    
   106   54  110 1    
   107   55   56 1    
   108   55   59 1    
   109   55  111 1    
   110   56   57 am   BACKBONE|DICT|INTERRES
   111   56   58 2    
   112   57  112 1    
   113   57  113 1    
   114   59   60 1    
   115   59  114 1    
   116   59  115 1    
   117   60   61 1    
   118   61  116 1    
   119   61  117 1    
@<TRIPOS>SUBSTRUCTURE
     1 UNK         1 GROUP             0       ****    0 ROOT    
