@<TRIPOS>MOLECULE
3R8
117   119    1
SMALL
USER_CHARGES


@<TRIPOS>ATOM
      1 CA         14.2927  -25.6043  -41.7634 C.3       0 UNK        -0.2013 
      2 C          14.8610  -27.0105  -41.5870 C.2       0 UNK         0.4866 
      3 O          14.6111  -27.6345  -40.5579 O.2       0 UNK        -0.5176 
      4 N          15.6175  -27.5609  -42.5481 N.am      1 UNK        -0.4884 
      5 CA         16.0437  -26.9488  -43.8155 C.3       1 UNK         0.0853 
      6 C6         16.6659  -27.9997  -44.7621 C.3       10 UNK        -0.0849 
      7 S7         15.4255  -29.1504  -45.4595 S.3       10 UNK        -0.2776 
      8 C8         16.2893  -30.7682  -45.5368 C.3       10 UNK         0.0316 
      9 C9         17.7833  -30.6802  -45.8437 C.ar      10 UNK        -0.0863 
     10 C10        18.6887  -31.4340  -45.0899 C.ar      10 UNK        -0.1009 
     11 C11        20.0671  -31.2662  -45.2546 C.ar      10 UNK        -0.0712 
     12 C12        20.5386  -30.3666  -46.2126 C.ar      10 UNK        -0.0894 
     13 C13        19.6444  -29.5998  -46.9641 C.ar      10 UNK        -0.0745 
     14 C14        18.2709  -29.7981  -46.8137 C.ar      10 UNK        -0.0972 
     15 C15        20.1529  -28.4753  -47.8519 C.3       10 UNK         0.0209 
     16 S16        20.0971  -26.8785  -46.9637 S.3       10 UNK        -0.2568 
     17 C17        21.3888  -27.1422  -45.7055 C.3       10 UNK        -0.0983 
     18 CA         21.5260  -25.9882  -44.6848 C.3       3 UNK         0.0876 
     19 N          20.3397  -25.8449  -43.8335 N.am      3 UNK        -0.4424 
     20 C          20.0332  -24.7395  -43.1413 C.2       2 UNK         0.4918 
     21 O          20.6623  -23.6843  -43.2355 O.2       2 UNK        -0.4875 
     22 CA         18.8488  -24.8389  -42.1550 C.3       2 UNK         0.0481 
     23 CB         18.2150  -23.4681  -41.8347 C.3       2 UNK        -0.1831 
     24 N          17.8273  -25.8196  -42.5466 N.am      2 UNK        -0.4498 
     25 C          17.0284  -25.7750  -43.6238 C.2       1 UNK         0.5027 
     26 O          17.0324  -24.8596  -44.4467 O.2       1 UNK        -0.4969 
     27 C          22.7833  -26.2361  -43.8288 C.2       3 UNK         0.5005 
     28 O          23.8511  -25.7185  -44.1581 O.2       3 UNK        -0.5279 
     29 N          22.6342  -27.0591  -42.7761 N.am      4 UNK        -0.4463 
     30 CA         23.6850  -27.5531  -41.8738 C.3       4 UNK         0.0283 
     31 CB         24.2842  -26.4039  -41.0378 C.3       4 UNK        -0.1875 
     32 C          24.7638  -28.4122  -42.5639 C.2       4 UNK         0.4949 
     33 O          25.8590  -28.5590  -42.0211 O.2       4 UNK        -0.5039 
     34 N          24.4325  -29.0119  -43.7175 N.am      5 UNK        -0.4663 
     35 CA         25.3283  -29.8658  -44.5084 C.3       5 UNK         0.0242 
     36 CB         24.6681  -30.1849  -45.8586 C.3       5 UNK        -0.1982 
     37 C          25.7295  -31.1635  -43.7848 C.2       5 UNK         0.5017 
     38 O          26.8616  -31.6205  -43.9418 O.2       5 UNK        -0.5012 
     39 N          24.8022  -31.7025  -42.9837 N.am      6 UNK        -0.4439 
     40 CA         25.0023  -32.8431  -42.0873 C.3       6 UNK         0.0297 
     41 CB         23.9095  -33.8922  -42.3661 C.3       6 UNK        -0.2006 
     42 C          24.9986  -32.3986  -40.6111 C.2       6 UNK         0.4892 
     43 O          24.7418  -33.2264  -39.7356 O.2       6 UNK        -0.5089 
     44 N          25.2463  -31.1022  -40.3581 N.am      7 UNK        -0.4243 
     45 CA         25.2407  -30.3835  -39.0745 C.3       7 UNK         0.0196 
     46 CB         26.3001  -30.9415  -38.1044 C.3       7 UNK        -0.2007 
     47 C          23.8596  -30.2925  -38.4013 C.2       7 UNK         0.5020 
     48 O          23.4308  -29.1943  -38.0489 O.2       7 UNK        -0.5147 
     49 N          23.1808  -31.4352  -38.2444 N.am      8 UNK        -0.4734 
     50 CA         21.8622  -31.5661  -37.6156 C.3       8 UNK         0.0238 
     51 CB         21.5541  -33.0565  -37.3999 C.3       8 UNK        -0.1912 
     52 C          20.7287  -30.8921  -38.4077 C.2       8 UNK         0.5038 
     53 O          19.7467  -30.4612  -37.8029 O.2       8 UNK        -0.5046 
     54 N          20.8928  -30.8019  -39.7329 N.am      9 UNK        -0.4200 
     55 CA         19.9869  -30.1144  -40.6632 C.3       9 UNK         0.0839 
     56 C          20.2273  -28.5805  -40.7815 C.2       9 UNK         0.5513 
     57 N          20.8976  -27.9355  -39.8357 N.am      9 UNK        -0.7519 
     58 O          19.8233  -27.9611  -41.7626 O.2       9 UNK        -0.4960 
     59 C59        19.9276  -30.8347  -42.0339 C.3       10 UNK        -0.0876 
     60 S60        21.5212  -30.9361  -42.9229 S.3       10 UNK        -0.2414 
     61 C61        21.0461  -31.9868  -44.3383 C.3       10 UNK         0.0169 
     62 H62        13.8587  -25.4638  -42.7522 H         1 UNK         0.0903 
     63 H63        13.5026  -25.4225  -41.0350 H         1 UNK         0.0903 
     64 H64        15.0658  -24.8531  -41.6058 H         1 UNK         0.0903 
     65 H65        15.9404  -28.5073  -42.4071 H         1 UNK         0.3096 
     66 H66        15.1623  -26.5375  -44.3116 H         1 UNK         0.1121 
     67 H67        17.1517  -27.5122  -45.6106 H         1 UNK         0.0849 
     68 H68        17.4497  -28.5535  -44.2415 H         1 UNK         0.0849 
     69 H69        16.1309  -31.2743  -44.5833 H         1 UNK         0.0865 
     70 H70        15.8092  -31.3888  -46.2943 H         1 UNK         0.0865 
     71 H71        18.3231  -32.1106  -44.3295 H         1 UNK         0.1346 
     72 H72        21.6011  -30.2044  -46.3184 H         1 UNK         0.1412 
     73 H73        17.5811  -29.1940  -47.3870 H         1 UNK         0.1426 
     74 H74        19.5387  -28.4062  -48.7509 H         1 UNK         0.0716 
     75 H75        21.1716  -28.6756  -48.1879 H         1 UNK         0.0716 
     76 H76        21.1751  -28.0643  -45.1663 H         1 UNK         0.0695 
     77 H77        22.3283  -27.3030  -46.2392 H         1 UNK         0.0695 
     78 H78        21.6789  -25.0571  -45.2355 H         1 UNK         0.0983 
     79 H79        19.7936  -26.6779  -43.6598 H         1 UNK         0.3095 
     80 H80        19.2754  -25.2182  -41.2255 H         1 UNK         0.0454 
     81 H81        18.9474  -22.7930  -41.3906 H         1 UNK         0.0851 
     82 H82        17.3960  -23.5655  -41.1225 H         1 UNK         0.0851 
     83 H83        17.8277  -22.9794  -42.7290 H         1 UNK         0.0851 
     84 H84        17.7759  -26.6423  -41.9595 H         1 UNK         0.2976 
     85 H85        21.7011  -27.4077  -42.5834 H         1 UNK         0.3116 
     86 H86        23.1950  -28.2345  -41.1794 H         1 UNK         0.0646 
     87 H87        23.5048  -25.8280  -40.5394 H         1 UNK         0.0847 
     88 H88        24.9450  -26.7884  -40.2598 H         1 UNK         0.0847 
     89 H89        24.8694  -25.7185  -41.6513 H         1 UNK         0.0847 
     90 H90        23.5048  -28.8581  -44.0830 H         1 UNK         0.3040 
     91 H91        26.2431  -29.2996  -44.6976 H         1 UNK         0.1015 
     92 H92        25.3497  -30.7457  -46.4998 H         1 UNK         0.0786 
     93 H93        24.3940  -29.2765  -46.3957 H         1 UNK         0.0786 
     94 H94        23.7711  -30.7907  -45.7343 H         1 UNK         0.0786 
     95 H95        23.8961  -31.2529  -42.9399 H         1 UNK         0.3172 
     96 H96        25.9722  -33.3075  -42.2746 H         1 UNK         0.0595 
     97 H97        22.9173  -33.5260  -42.1008 H         1 UNK         0.0839 
     98 H98        24.0838  -34.8022  -41.7904 H         1 UNK         0.0839 
     99 H99        23.8916  -34.1769  -43.4182 H         1 UNK         0.0839 
    100 H100       25.4663  -30.5151  -41.1542 H         1 UNK         0.2998 
    101 H101       25.5332  -29.3598  -39.3150 H         1 UNK         0.0822 
    102 H102       26.3482  -30.3405  -37.1953 H         1 UNK         0.0787 
    103 H103       27.2931  -30.9283  -38.5538 H         1 UNK         0.0787 
    104 H104       26.0833  -31.9664  -37.8020 H         1 UNK         0.0787 
    105 H105       23.6218  -32.2839  -38.5944 H         1 UNK         0.3055 
    106 H106       21.9077  -31.0780  -36.6394 H         1 UNK         0.1106 
    107 H107       21.5255  -33.6035  -38.3433 H         1 UNK         0.0828 
    108 H108       22.3020  -33.5278  -36.7619 H         1 UNK         0.0828 
    109 H109       20.5861  -33.1901  -36.9149 H         1 UNK         0.0828 
    110 H110       21.7423  -31.1676  -40.1350 H         1 UNK         0.2931 
    111 H111       18.9792  -30.1908  -40.2512 H         1 UNK         0.0412 
    112 H112       21.0373  -26.9424  -39.9161 H         1 UNK         0.3472 
    113 H113       21.2692  -28.4306  -39.0388 H         1 UNK         0.3472 
    114 H114       19.5515  -31.8487  -41.8906 H         1 UNK         0.0970 
    115 H115       19.1974  -30.3379  -42.6738 H         1 UNK         0.0970 
    116 H116       21.9429  -32.2617  -44.8951 H         1 UNK         0.0612 
    117 H117       20.6159  -32.9202  -43.9723 H         1 UNK         0.0612 
@<TRIPOS>BOND
     1    1    2 1    
     2    1   62 1    
     3    1   63 1    
     4    1   64 1    
     5    2    3 2    
     6    2    4 am   BACKBONE|DICT|INTERRES
     7    4    5 1    
     8    4   65 1    
     9    5    6 1    
    10    5   25 1    
    11    5   66 1    
    12    6    7 1    
    13    6   67 1    
    14    6   68 1    
    15    7    8 1    
    16    8    9 1    
    17    8   69 1    
    18    8   70 1    
    19    9   10 ar   
    20    9   14 ar   
    21   10   11 ar   
    22   10   71 1    
    23   11   12 ar   
    24   11   61 1    
    25   12   13 ar   
    26   12   72 1    
    27   13   14 ar   
    28   13   15 1    
    29   14   73 1    
    30   15   16 1    
    31   15   74 1    
    32   15   75 1    
    33   16   17 1    
    34   17   18 1    
    35   17   76 1    
    36   17   77 1    
    37   18   19 1    
    38   18   27 1    
    39   18   78 1    
    40   19   20 am   BACKBONE|DICT|INTERRES
    41   19   79 1    
    42   20   21 2    
    43   20   22 1    
    44   22   23 1    
    45   22   24 1    
    46   22   80 1    
    47   23   81 1    
    48   23   82 1    
    49   23   83 1    
    50   24   25 am   BACKBONE|DICT|INTERRES
    51   24   84 1    
    52   25   26 2    
    53   27   28 2    
    54   27   29 am   BACKBONE|DICT|INTERRES
    55   29   30 1    
    56   29   85 1    
    57   30   31 1    
    58   30   32 1    
    59   30   86 1    
    60   31   87 1    
    61   31   88 1    
    62   31   89 1    
    63   32   33 2    
    64   32   34 am   BACKBONE|DICT|INTERRES
    65   34   35 1    
    66   34   90 1    
    67   35   36 1    
    68   35   37 1    
    69   35   91 1    
    70   36   92 1    
    71   36   93 1    
    72   36   94 1    
    73   37   38 2    
    74   37   39 am   BACKBONE|DICT|INTERRES
    75   39   40 1    
    76   39   95 1    
    77   40   41 1    
    78   40   42 1    
    79   40   96 1    
    80   41   97 1    
    81   41   98 1    
    82   41   99 1    
    83   42   43 2    
    84   42   44 am   BACKBONE|DICT|INTERRES
    85   44   45 1    
    86   44  100 1    
    87   45   46 1    
    88   45   47 1    
    89   45  101 1    
    90   46  102 1    
    91   46  103 1    
    92   46  104 1    
    93   47   48 2    
    94   47   49 am   BACKBONE|DICT|INTERRES
    95   49   50 1    
    96   49  105 1    
    97   50   51 1    
    98   50   52 1    
    99   50  106 1    
   100   51  107 1    
   101   51  108 1    
   102   51  109 1    
   103   52   53 2    
   104   52   54 am   BACKBONE|DICT|INTERRES
   105   54   55 1    
   106   54  110 1    
   107   55   56 1    
   108   55   59 1    
   109   55  111 1    
   110   56   57 am   BACKBONE|DICT|INTERRES
   111   56   58 2    
   112   57  112 1    
   113   57  113 1    
   114   59   60 1    
   115   59  114 1    
   116   59  115 1    
   117   60   61 1    
   118   61  116 1    
   119   61  117 1    
@<TRIPOS>SUBSTRUCTURE
     1 UNK         1 GROUP             0       ****    0 ROOT    
