@<TRIPOS>MOLECULE
3R8
117   119    1
SMALL
USER_CHARGES


@<TRIPOS>ATOM
      1 CA         24.7141  -27.1099  -45.6300 C.3       0 UNK        -0.2013 
      2 C          23.3712  -27.8243  -45.6592 C.2       0 UNK         0.4866 
      3 O          23.1726  -28.7142  -46.4858 O.2       0 UNK        -0.5176 
      4 N          22.4599  -27.4454  -44.7590 N.am      1 UNK        -0.4884 
      5 CA         21.1096  -27.9927  -44.6224 C.3       1 UNK         0.0853 
      6 C6         20.0649  -27.1355  -45.3880 C.3       10 UNK        -0.0849 
      7 S7         19.9255  -27.6459  -47.1326 S.3       10 UNK        -0.2776 
      8 C8         18.1637  -28.1011  -47.2699 C.3       10 UNK         0.0316 
      9 C9         17.6992  -29.0812  -46.1969 C.ar      10 UNK        -0.0863 
     10 C10        18.3537  -30.3035  -46.0109 C.ar      10 UNK        -0.1009 
     11 C11        17.9104  -31.2040  -45.0381 C.ar      10 UNK        -0.0712 
     12 C12        16.7986  -30.8799  -44.2541 C.ar      10 UNK        -0.0894 
     13 C13        16.1254  -29.6692  -44.4415 C.ar      10 UNK        -0.0745 
     14 C14        16.5872  -28.7702  -45.4069 C.ar      10 UNK        -0.0972 
     15 C15        14.8587  -29.3660  -43.6512 C.3       10 UNK         0.0209 
     16 S16        15.1861  -28.9932  -41.9011 S.3       10 UNK        -0.2568 
     17 C17        15.8736  -27.3050  -41.9886 C.3       10 UNK        -0.0983 
     18 CA         17.0662  -27.1257  -41.0186 C.3       3 UNK         0.0876 
     19 N          18.1583  -28.0481  -41.3381 N.am      3 UNK        -0.4424 
     20 C          19.1321  -28.4063  -40.4938 C.2       2 UNK         0.4918 
     21 O          19.1826  -28.0536  -39.3155 O.2       2 UNK        -0.4875 
     22 CA         20.2618  -29.2771  -41.0714 C.3       2 UNK         0.0481 
     23 CB         20.0253  -30.7507  -40.7138 C.3       2 UNK        -0.1831 
     24 N          20.4737  -29.1371  -42.5225 N.am      2 UNK        -0.4498 
     25 C          20.8136  -27.9850  -43.1208 C.2       1 UNK         0.5027 
     26 O          20.8770  -26.9099  -42.5278 O.2       1 UNK        -0.4969 
     27 C          17.5231  -25.6480  -40.9642 C.2       3 UNK         0.5005 
     28 O          16.7654  -24.8137  -40.4653 O.2       3 UNK        -0.5279 
     29 N          18.7281  -25.3419  -41.4675 N.am      4 UNK        -0.4463 
     30 CA         19.3479  -24.0205  -41.4504 C.3       4 UNK         0.0283 
     31 CB         19.6892  -23.5933  -42.8916 C.3       4 UNK        -0.1875 
     32 C          20.5836  -24.0580  -40.5397 C.2       4 UNK         0.4949 
     33 O          20.5077  -23.5823  -39.4067 O.2       4 UNK        -0.5039 
     34 N          21.6865  -24.6271  -41.0413 N.am      5 UNK        -0.4663 
     35 CA         22.9897  -24.7551  -40.3926 C.3       5 UNK         0.0242 
     36 CB         23.6047  -23.3615  -40.1295 C.3       5 UNK        -0.1982 
     37 C          23.9311  -25.5760  -41.2902 C.2       5 UNK         0.5017 
     38 O          23.6504  -25.7627  -42.4780 O.2       5 UNK        -0.5012 
     39 N          25.0660  -25.9850  -40.7056 N.am      6 UNK        -0.4439 
     40 CA         26.2583  -26.5421  -41.3593 C.3       6 UNK         0.0297 
     41 CB         26.8809  -25.5125  -42.3287 C.3       6 UNK        -0.2006 
     42 C          26.0841  -27.9325  -42.0033 C.2       6 UNK         0.4892 
     43 O          26.8484  -28.2738  -42.9079 O.2       6 UNK        -0.5089 
     44 N          25.1359  -28.7351  -41.5067 N.am      7 UNK        -0.4243 
     45 CA         24.9551  -30.1377  -41.8792 C.3       7 UNK         0.0196 
     46 CB         24.2680  -30.2559  -43.2524 C.3       7 UNK        -0.2007 
     47 C          24.1282  -30.8521  -40.8086 C.2       7 UNK         0.5020 
     48 O          23.4274  -30.1964  -40.0356 O.2       7 UNK        -0.5147 
     49 N          24.2036  -32.1870  -40.8168 N.am      8 UNK        -0.4734 
     50 CA         23.3537  -33.0817  -40.0230 C.3       8 UNK         0.0238 
     51 CB         24.2534  -34.0275  -39.2081 C.3       8 UNK        -0.1912 
     52 C          22.3810  -33.8899  -40.9048 C.2       8 UNK         0.5038 
     53 O          21.5172  -34.5758  -40.3565 O.2       8 UNK        -0.5046 
     54 N          22.5352  -33.8012  -42.2361 N.am      9 UNK        -0.4200 
     55 CA         21.8041  -34.5652  -43.2631 C.3       9 UNK         0.0839 
     56 C          22.0628  -36.1037  -43.1795 C.2       9 UNK         0.5513 
     57 N          21.2741  -36.9263  -43.8592 N.am      9 UNK        -0.7519 
     58 O          23.0127  -36.5658  -42.5496 O.2       9 UNK        -0.4960 
     59 C59        20.2973  -34.1786  -43.3418 C.3       10 UNK        -0.0876 
     60 S60        20.0371  -32.4178  -43.7528 S.3       10 UNK        -0.2414 
     61 C61        18.6026  -32.5455  -44.8611 C.3       10 UNK         0.0169 
     62 H62        25.5121  -27.8132  -45.3941 H         1 UNK         0.0903 
     63 H63        24.9255  -26.6677  -46.6030 H         1 UNK         0.0903 
     64 H64        24.7342  -26.3140  -44.8865 H         1 UNK         0.0903 
     65 H65        22.7105  -26.7662  -44.0429 H         1 UNK         0.3096 
     66 H66        21.0809  -29.0274  -44.9729 H         1 UNK         0.1121 
     67 H67        20.3314  -26.0775  -45.3540 H         1 UNK         0.0849 
     68 H68        19.0802  -27.1942  -44.9214 H         1 UNK         0.0849 
     69 H69        17.9902  -28.5446  -48.2512 H         1 UNK         0.0865 
     70 H70        17.5700  -27.1859  -47.2408 H         1 UNK         0.0865 
     71 H71        19.2072  -30.5548  -46.6263 H         1 UNK         0.1346 
     72 H72        16.4406  -31.5801  -43.5114 H         1 UNK         0.1412 
     73 H73        16.0630  -27.8365  -45.5602 H         1 UNK         0.1426 
     74 H74        14.1967  -30.2315  -43.7024 H         1 UNK         0.0716 
     75 H75        14.3059  -28.5383  -44.0985 H         1 UNK         0.0716 
     76 H76        15.0676  -26.6102  -41.7446 H         1 UNK         0.0695 
     77 H77        16.1764  -27.0762  -43.0117 H         1 UNK         0.0695 
     78 H78        16.7130  -27.3665  -40.0131 H         1 UNK         0.0983 
     79 H79        18.1718  -28.4189  -42.2766 H         1 UNK         0.3095 
     80 H80        21.1830  -28.9543  -40.5841 H         1 UNK         0.0454 
     81 H81        19.1148  -31.1380  -41.1724 H         1 UNK         0.0851 
     82 H82        19.9286  -30.8806  -39.6352 H         1 UNK         0.0851 
     83 H83        20.8602  -31.3704  -41.0358 H         1 UNK         0.0851 
     84 H84        20.4049  -29.9849  -43.0706 H         1 UNK         0.2976 
     85 H85        19.3266  -26.0923  -41.8029 H         1 UNK         0.3116 
     86 H86        18.6633  -23.2763  -41.0382 H         1 UNK         0.0646 
     87 H87        20.2232  -22.6423  -42.9006 H         1 UNK         0.0847 
     88 H88        18.7835  -23.4601  -43.4832 H         1 UNK         0.0847 
     89 H89        20.3124  -24.3245  -43.4071 H         1 UNK         0.0847 
     90 H90        21.6326  -25.1062  -41.9366 H         1 UNK         0.3040 
     91 H91        22.8536  -25.2884  -39.4495 H         1 UNK         0.1015 
     92 H92        23.0068  -22.7767  -39.4312 H         1 UNK         0.0786 
     93 H93        23.6972  -22.7866  -41.0518 H         1 UNK         0.0786 
     94 H94        24.6018  -23.4389  -39.6945 H         1 UNK         0.0786 
     95 H95        25.1737  -25.8002  -39.7173 H         1 UNK         0.3172 
     96 H96        26.9805  -26.6938  -40.5558 H         1 UNK         0.0595 
     97 H97        26.2473  -25.3402  -43.1987 H         1 UNK         0.0839 
     98 H98        27.8500  -25.8518  -42.6966 H         1 UNK         0.0839 
     99 H99        27.0438  -24.5529  -41.8382 H         1 UNK         0.0839 
    100 H100       24.5463  -28.4188  -40.7465 H         1 UNK         0.2998 
    101 H101       25.9366  -30.6154  -41.9217 H         1 UNK         0.0822 
    102 H102       24.8720  -29.8062  -44.0390 H         1 UNK         0.0787 
    103 H103       24.1110  -31.2967  -43.5354 H         1 UNK         0.0787 
    104 H104       23.2936  -29.7691  -43.2513 H         1 UNK         0.0787 
    105 H105       24.8556  -32.6314  -41.4485 H         1 UNK         0.3055 
    106 H106       22.7405  -32.5065  -39.3252 H         1 UNK         0.1106 
    107 H107       23.6572  -34.6892  -38.5781 H         1 UNK         0.0828 
    108 H108       24.8672  -34.6578  -39.8527 H         1 UNK         0.0828 
    109 H109       24.9195  -33.4701  -38.5493 H         1 UNK         0.0828 
    110 H110       23.2672  -33.2065  -42.5880 H         1 UNK         0.2931 
    111 H111       22.2620  -34.2690  -44.2076 H         1 UNK         0.0412 
    112 H112       20.5099  -36.5834  -44.4189 H         1 UNK         0.3472 
    113 H113       21.4577  -37.9172  -43.8205 H         1 UNK         0.3472 
    114 H114       19.7892  -34.3996  -42.4020 H         1 UNK         0.0970 
    115 H115       19.7909  -34.7734  -44.1022 H         1 UNK         0.0970 
    116 H116       17.8955  -33.2726  -44.4581 H         1 UNK         0.0612 
    117 H117       18.9272  -32.9329  -45.8281 H         1 UNK         0.0612 
@<TRIPOS>BOND
     1    1    2 1    
     2    1   62 1    
     3    1   63 1    
     4    1   64 1    
     5    2    3 2    
     6    2    4 am   BACKBONE|DICT|INTERRES
     7    4    5 1    
     8    4   65 1    
     9    5    6 1    
    10    5   25 1    
    11    5   66 1    
    12    6    7 1    
    13    6   67 1    
    14    6   68 1    
    15    7    8 1    
    16    8    9 1    
    17    8   69 1    
    18    8   70 1    
    19    9   10 ar   
    20    9   14 ar   
    21   10   11 ar   
    22   10   71 1    
    23   11   12 ar   
    24   11   61 1    
    25   12   13 ar   
    26   12   72 1    
    27   13   14 ar   
    28   13   15 1    
    29   14   73 1    
    30   15   16 1    
    31   15   74 1    
    32   15   75 1    
    33   16   17 1    
    34   17   18 1    
    35   17   76 1    
    36   17   77 1    
    37   18   19 1    
    38   18   27 1    
    39   18   78 1    
    40   19   20 am   BACKBONE|DICT|INTERRES
    41   19   79 1    
    42   20   21 2    
    43   20   22 1    
    44   22   23 1    
    45   22   24 1    
    46   22   80 1    
    47   23   81 1    
    48   23   82 1    
    49   23   83 1    
    50   24   25 am   BACKBONE|DICT|INTERRES
    51   24   84 1    
    52   25   26 2    
    53   27   28 2    
    54   27   29 am   BACKBONE|DICT|INTERRES
    55   29   30 1    
    56   29   85 1    
    57   30   31 1    
    58   30   32 1    
    59   30   86 1    
    60   31   87 1    
    61   31   88 1    
    62   31   89 1    
    63   32   33 2    
    64   32   34 am   BACKBONE|DICT|INTERRES
    65   34   35 1    
    66   34   90 1    
    67   35   36 1    
    68   35   37 1    
    69   35   91 1    
    70   36   92 1    
    71   36   93 1    
    72   36   94 1    
    73   37   38 2    
    74   37   39 am   BACKBONE|DICT|INTERRES
    75   39   40 1    
    76   39   95 1    
    77   40   41 1    
    78   40   42 1    
    79   40   96 1    
    80   41   97 1    
    81   41   98 1    
    82   41   99 1    
    83   42   43 2    
    84   42   44 am   BACKBONE|DICT|INTERRES
    85   44   45 1    
    86   44  100 1    
    87   45   46 1    
    88   45   47 1    
    89   45  101 1    
    90   46  102 1    
    91   46  103 1    
    92   46  104 1    
    93   47   48 2    
    94   47   49 am   BACKBONE|DICT|INTERRES
    95   49   50 1    
    96   49  105 1    
    97   50   51 1    
    98   50   52 1    
    99   50  106 1    
   100   51  107 1    
   101   51  108 1    
   102   51  109 1    
   103   52   53 2    
   104   52   54 am   BACKBONE|DICT|INTERRES
   105   54   55 1    
   106   54  110 1    
   107   55   56 1    
   108   55   59 1    
   109   55  111 1    
   110   56   57 am   BACKBONE|DICT|INTERRES
   111   56   58 2    
   112   57  112 1    
   113   57  113 1    
   114   59   60 1    
   115   59  114 1    
   116   59  115 1    
   117   60   61 1    
   118   61  116 1    
   119   61  117 1    
@<TRIPOS>SUBSTRUCTURE
     1 UNK         1 GROUP             0       ****    0 ROOT    
