@<TRIPOS>MOLECULE
3R8
117   119    1
SMALL
USER_CHARGES


@<TRIPOS>ATOM
      1 CA         14.5293  -24.2481  -43.9036 C.3       0 UNK        -0.2013 
      2 C          14.9327  -24.8207  -42.5464 C.2       0 UNK         0.4866 
      3 O          14.3429  -24.4422  -41.5360 O.2       0 UNK        -0.5176 
      4 N          15.9071  -25.7377  -42.4620 N.am      1 UNK        -0.4884 
      5 CA         16.7585  -26.2449  -43.5462 C.3       1 UNK         0.0853 
      6 C6         17.5865  -27.4741  -43.0920 C.3       10 UNK        -0.0849 
      7 S7         16.5477  -28.8792  -42.5660 S.3       10 UNK        -0.2776 
      8 C8         16.4006  -29.8500  -44.1010 C.3       10 UNK         0.0316 
      9 C9         17.6104  -30.7423  -44.3510 C.ar      10 UNK        -0.0863 
     10 C10        17.6534  -32.0329  -43.8123 C.ar      10 UNK        -0.1009 
     11 C11        18.7235  -32.8869  -44.0955 C.ar      10 UNK        -0.0712 
     12 C12        19.7685  -32.4245  -44.9013 C.ar      10 UNK        -0.0894 
     13 C13        19.7554  -31.1313  -45.4356 C.ar      10 UNK        -0.0745 
     14 C14        18.6576  -30.3025  -45.1672 C.ar      10 UNK        -0.0972 
     15 C15        20.9263  -30.7051  -46.3273 C.3       10 UNK         0.0209 
     16 S16        21.0409  -28.9243  -46.7231 S.3       10 UNK        -0.2568 
     17 C17        21.6778  -28.2314  -45.1610 C.3       10 UNK        -0.0983 
     18 CA         21.8593  -26.6945  -45.2456 C.3       3 UNK         0.0876 
     19 N          20.5783  -26.0309  -45.4974 N.am      3 UNK        -0.4424 
     20 C          20.4020  -24.7545  -45.8608 C.2       2 UNK         0.4918 
     21 O          21.3242  -23.9671  -46.0761 O.2       2 UNK        -0.4875 
     22 CA         18.9452  -24.2806  -46.0408 C.3       2 UNK         0.0481 
     23 CB         18.5991  -24.1763  -47.5351 C.3       2 UNK        -0.1831 
     24 N          17.9692  -25.1597  -45.3836 N.am      2 UNK        -0.4498 
     25 C          17.7117  -25.1497  -44.0680 C.2       1 UNK         0.5027 
     26 O          18.2140  -24.3488  -43.2767 O.2       1 UNK        -0.4969 
     27 C          22.5490  -26.1458  -43.9766 C.2       3 UNK         0.5005 
     28 O          21.8853  -25.5981  -43.0917 O.2       3 UNK        -0.5279 
     29 N          23.8764  -26.3161  -43.9158 N.am      4 UNK        -0.4463 
     30 CA         24.7356  -25.9202  -42.7957 C.3       4 UNK         0.0283 
     31 CB         26.2012  -25.9994  -43.2610 C.3       4 UNK        -0.1875 
     32 C          24.5225  -26.7832  -41.5369 C.2       4 UNK         0.4949 
     33 O          23.8407  -27.8087  -41.5904 O.2       4 UNK        -0.5039 
     34 N          25.1526  -26.3730  -40.4267 N.am      5 UNK        -0.4663 
     35 CA         25.1911  -27.1142  -39.1602 C.3       5 UNK         0.0242 
     36 CB         26.0282  -26.3301  -38.1373 C.3       5 UNK        -0.1982 
     37 C          25.7521  -28.5372  -39.3405 C.2       5 UNK         0.5017 
     38 O          26.7150  -28.7195  -40.0894 O.2       5 UNK        -0.5012 
     39 N          25.1065  -29.5163  -38.6925 N.am      6 UNK        -0.4439 
     40 CA         25.2946  -30.9716  -38.8107 C.3       6 UNK         0.0297 
     41 CB         26.7333  -31.4062  -38.4681 C.3       6 UNK        -0.2006 
     42 C          24.8365  -31.5572  -40.1616 C.2       6 UNK         0.4892 
     43 O          24.1951  -32.6086  -40.1644 O.2       6 UNK        -0.5089 
     44 N          25.1240  -30.8651  -41.2742 N.am      7 UNK        -0.4243 
     45 CA         24.6762  -31.2088  -42.6290 C.3       7 UNK         0.0196 
     46 CB         25.3307  -30.2645  -43.6504 C.3       7 UNK        -0.2007 
     47 C          23.1448  -31.1957  -42.7767 C.2       7 UNK         0.5020 
     48 O          22.6067  -32.0348  -43.4933 O.2       7 UNK        -0.5147 
     49 N          22.4788  -30.2865  -42.0516 N.am      8 UNK        -0.4734 
     50 CA         21.0236  -30.1639  -41.9083 C.3       8 UNK         0.0238 
     51 CB         20.7120  -28.7895  -41.2898 C.3       8 UNK        -0.1912 
     52 C          20.3373  -31.2896  -41.1072 C.2       8 UNK         0.5038 
     53 O          19.1398  -31.1799  -40.8423 O.2       8 UNK        -0.5046 
     54 N          21.0811  -32.3331  -40.7178 N.am      9 UNK        -0.4200 
     55 CA         20.5834  -33.5428  -40.0429 C.3       9 UNK         0.0839 
     56 C          20.1400  -33.3286  -38.5641 C.2       9 UNK         0.5513 
     57 N          20.4815  -32.2166  -37.9237 N.am      9 UNK        -0.7519 
     58 O          19.5051  -34.1981  -37.9720 O.2       9 UNK        -0.4960 
     59 C59        19.5220  -34.3160  -40.8827 C.3       10 UNK        -0.0876 
     60 S60        20.1248  -34.7699  -42.5466 S.3       10 UNK        -0.2414 
     61 C61        18.7094  -34.3342  -43.6113 C.3       10 UNK         0.0169 
     62 H62        13.5729  -23.7311  -43.8258 H         1 UNK         0.0903 
     63 H63        15.2666  -23.5258  -44.2526 H         1 UNK         0.0903 
     64 H64        14.4136  -25.0287  -44.6541 H         1 UNK         0.0903 
     65 H65        16.1380  -26.0987  -41.5476 H         1 UNK         0.3096 
     66 H66        16.1105  -26.5614  -44.3656 H         1 UNK         0.1121 
     67 H67        18.2641  -27.8088  -43.8771 H         1 UNK         0.0849 
     68 H68        18.2250  -27.1980  -42.2512 H         1 UNK         0.0849 
     69 H69        15.5044  -30.4686  -44.0323 H         1 UNK         0.0865 
     70 H70        16.2338  -29.1824  -44.9476 H         1 UNK         0.0865 
     71 H71        16.8359  -32.3816  -43.1961 H         1 UNK         0.1346 
     72 H72        20.5979  -33.0839  -45.1198 H         1 UNK         0.1412 
     73 H73        18.6020  -29.3173  -45.6046 H         1 UNK         0.1426 
     74 H74        21.8670  -31.0180  -45.8724 H         1 UNK         0.0716 
     75 H75        20.8467  -31.2511  -47.2681 H         1 UNK         0.0716 
     76 H76        22.6223  -28.7277  -44.9296 H         1 UNK         0.0695 
     77 H77        20.9869  -28.4870  -44.3582 H         1 UNK         0.0695 
     78 H78        22.5112  -26.4689  -46.0928 H         1 UNK         0.0983 
     79 H79        19.7594  -26.5975  -45.3551 H         1 UNK         0.3095 
     80 H80        18.8681  -23.2814  -45.6067 H         1 UNK         0.0454 
     81 H81        17.5926  -23.7850  -47.6839 H         1 UNK         0.0851 
     82 H82        18.6624  -25.1437  -48.0349 H         1 UNK         0.0851 
     83 H83        19.2851  -23.5007  -48.0480 H         1 UNK         0.0851 
     84 H84        17.5020  -25.8312  -45.9773 H         1 UNK         0.2976 
     85 H85        24.3344  -26.8013  -44.6732 H         1 UNK         0.3116 
     86 H86        24.5025  -24.8850  -42.5378 H         1 UNK         0.0646 
     87 H87        26.3724  -25.3847  -44.1449 H         1 UNK         0.0847 
     88 H88        26.8850  -25.6423  -42.4901 H         1 UNK         0.0847 
     89 H89        26.4933  -27.0227  -43.5013 H         1 UNK         0.0847 
     90 H90        25.7134  -25.5348  -40.4722 H         1 UNK         0.3040 
     91 H91        24.1644  -27.1828  -38.7941 H         1 UNK         0.1015 
     92 H92        27.0603  -26.2091  -38.4696 H         1 UNK         0.0786 
     93 H93        26.0543  -26.8454  -37.1760 H         1 UNK         0.0786 
     94 H94        25.6132  -25.3377  -37.9595 H         1 UNK         0.0786 
     95 H95        24.3241  -29.2455  -38.1120 H         1 UNK         0.3172 
     96 H96        24.6413  -31.4055  -38.0517 H         1 UNK         0.0595 
     97 H97        27.4561  -31.0625  -39.2083 H         1 UNK         0.0839 
     98 H98        26.8084  -32.4937  -38.4294 H         1 UNK         0.0839 
     99 H99        27.0423  -31.0255  -37.4946 H         1 UNK         0.0839 
    100 H100       25.6608  -30.0103  -41.1648 H         1 UNK         0.2998 
    101 H101       25.0161  -32.2255  -42.8373 H         1 UNK         0.0822 
    102 H102       26.4184  -30.3147  -43.5981 H         1 UNK         0.0787 
    103 H103       25.0415  -30.5323  -44.6676 H         1 UNK         0.0787 
    104 H104       25.0347  -29.2280  -43.4915 H         1 UNK         0.0787 
    105 H105       23.0313  -29.5701  -41.5868 H         1 UNK         0.3055 
    106 H106       20.5819  -30.2064  -42.9038 H         1 UNK         0.1106 
    107 H107       21.0553  -27.9772  -41.9292 H         1 UNK         0.0828 
    108 H108       19.6408  -28.6525  -41.1433 H         1 UNK         0.0828 
    109 H109       21.1891  -28.6707  -40.3166 H         1 UNK         0.0828 
    110 H110       22.0675  -32.3357  -40.9416 H         1 UNK         0.2931 
    111 H111       21.4573  -34.1908  -39.9670 H         1 UNK         0.0412 
    112 H112       21.0029  -31.4981  -38.3985 H         1 UNK         0.3472 
    113 H113       20.1998  -32.0910  -36.9641 H         1 UNK         0.3472 
    114 H114       18.6033  -33.7338  -40.9670 H         1 UNK         0.0970 
    115 H115       19.2408  -35.2432  -40.3803 H         1 UNK         0.0970 
    116 H116       17.7783  -34.5676  -43.0926 H         1 UNK         0.0612 
    117 H117       18.7337  -34.9838  -44.4872 H         1 UNK         0.0612 
@<TRIPOS>BOND
     1    1    2 1    
     2    1   62 1    
     3    1   63 1    
     4    1   64 1    
     5    2    3 2    
     6    2    4 am   BACKBONE|DICT|INTERRES
     7    4    5 1    
     8    4   65 1    
     9    5    6 1    
    10    5   25 1    
    11    5   66 1    
    12    6    7 1    
    13    6   67 1    
    14    6   68 1    
    15    7    8 1    
    16    8    9 1    
    17    8   69 1    
    18    8   70 1    
    19    9   10 ar   
    20    9   14 ar   
    21   10   11 ar   
    22   10   71 1    
    23   11   12 ar   
    24   11   61 1    
    25   12   13 ar   
    26   12   72 1    
    27   13   14 ar   
    28   13   15 1    
    29   14   73 1    
    30   15   16 1    
    31   15   74 1    
    32   15   75 1    
    33   16   17 1    
    34   17   18 1    
    35   17   76 1    
    36   17   77 1    
    37   18   19 1    
    38   18   27 1    
    39   18   78 1    
    40   19   20 am   BACKBONE|DICT|INTERRES
    41   19   79 1    
    42   20   21 2    
    43   20   22 1    
    44   22   23 1    
    45   22   24 1    
    46   22   80 1    
    47   23   81 1    
    48   23   82 1    
    49   23   83 1    
    50   24   25 am   BACKBONE|DICT|INTERRES
    51   24   84 1    
    52   25   26 2    
    53   27   28 2    
    54   27   29 am   BACKBONE|DICT|INTERRES
    55   29   30 1    
    56   29   85 1    
    57   30   31 1    
    58   30   32 1    
    59   30   86 1    
    60   31   87 1    
    61   31   88 1    
    62   31   89 1    
    63   32   33 2    
    64   32   34 am   BACKBONE|DICT|INTERRES
    65   34   35 1    
    66   34   90 1    
    67   35   36 1    
    68   35   37 1    
    69   35   91 1    
    70   36   92 1    
    71   36   93 1    
    72   36   94 1    
    73   37   38 2    
    74   37   39 am   BACKBONE|DICT|INTERRES
    75   39   40 1    
    76   39   95 1    
    77   40   41 1    
    78   40   42 1    
    79   40   96 1    
    80   41   97 1    
    81   41   98 1    
    82   41   99 1    
    83   42   43 2    
    84   42   44 am   BACKBONE|DICT|INTERRES
    85   44   45 1    
    86   44  100 1    
    87   45   46 1    
    88   45   47 1    
    89   45  101 1    
    90   46  102 1    
    91   46  103 1    
    92   46  104 1    
    93   47   48 2    
    94   47   49 am   BACKBONE|DICT|INTERRES
    95   49   50 1    
    96   49  105 1    
    97   50   51 1    
    98   50   52 1    
    99   50  106 1    
   100   51  107 1    
   101   51  108 1    
   102   51  109 1    
   103   52   53 2    
   104   52   54 am   BACKBONE|DICT|INTERRES
   105   54   55 1    
   106   54  110 1    
   107   55   56 1    
   108   55   59 1    
   109   55  111 1    
   110   56   57 am   BACKBONE|DICT|INTERRES
   111   56   58 2    
   112   57  112 1    
   113   57  113 1    
   114   59   60 1    
   115   59  114 1    
   116   59  115 1    
   117   60   61 1    
   118   61  116 1    
   119   61  117 1    
@<TRIPOS>SUBSTRUCTURE
     1 UNK         1 GROUP             0       ****    0 ROOT    
