@<TRIPOS>MOLECULE
3R8
117   119    1
SMALL
USER_CHARGES


@<TRIPOS>ATOM
      1 CA         18.5718  -27.8813  -41.8758 C.3       0 UNK        -0.2013 
      2 C          18.3282  -26.8121  -42.9263 C.2       0 UNK         0.4866 
      3 O          18.8783  -25.7146  -42.8274 O.2       0 UNK        -0.5176 
      4 N          17.4927  -27.1424  -43.9166 N.am      1 UNK        -0.4884 
      5 CA         16.9928  -26.2997  -45.0066 C.3       1 UNK         0.0853 
      6 C6         16.0381  -27.0739  -45.9665 C.3       10 UNK        -0.0849 
      7 S7         15.0054  -28.3581  -45.1667 S.3       10 UNK        -0.2776 
      8 C8         15.7777  -29.8956  -45.7852 C.3       10 UNK         0.0316 
      9 C9         17.1237  -30.1875  -45.1284 C.ar      10 UNK        -0.0863 
     10 C10        17.1942  -31.0081  -43.9976 C.ar      10 UNK        -0.1009 
     11 C11        18.4288  -31.3016  -43.4080 C.ar      10 UNK        -0.0712 
     12 C12        19.5959  -30.7486  -43.9415 C.ar      10 UNK        -0.0894 
     13 C13        19.5375  -29.9025  -45.0521 C.ar      10 UNK        -0.0745 
     14 C14        18.3032  -29.6538  -45.6593 C.ar      10 UNK        -0.0972 
     15 C15        20.8008  -29.2392  -45.5832 C.3       10 UNK         0.0209 
     16 S16        21.5338  -28.1362  -44.3330 S.3       10 UNK        -0.2568 
     17 C17        22.6446  -27.0891  -45.3392 C.3       10 UNK        -0.0983 
     18 CA         22.4758  -25.5677  -45.0896 C.3       3 UNK         0.0876 
     19 N          21.1657  -25.0852  -45.5346 N.am      3 UNK        -0.4424 
     20 C          20.8485  -23.8084  -45.7818 C.2       2 UNK         0.4918 
     21 O          21.6502  -22.8803  -45.6732 O.2       2 UNK        -0.4875 
     22 CA         19.4005  -23.4900  -46.2113 C.3       2 UNK         0.0481 
     23 CB         19.2835  -23.4476  -47.7475 C.3       2 UNK        -0.1831 
     24 N          18.3586  -24.3439  -45.6162 N.am      2 UNK        -0.4498 
     25 C          18.1488  -25.6556  -45.7992 C.2       1 UNK         0.5027 
     26 O          18.8492  -26.3648  -46.5245 O.2       1 UNK        -0.4969 
     27 C          22.8038  -25.1867  -43.6277 C.2       3 UNK         0.5005 
     28 O          23.9805  -25.1946  -43.2634 O.2       3 UNK        -0.5279 
     29 N          21.7701  -24.8811  -42.8245 N.am      4 UNK        -0.4463 
     30 CA         21.8183  -24.5769  -41.3902 C.3       4 UNK         0.0283 
     31 CB         22.6429  -23.3027  -41.1060 C.3       4 UNK        -0.1875 
     32 C          22.2589  -25.7946  -40.5560 C.2       4 UNK         0.4949 
     33 O          23.0949  -25.6619  -39.6611 O.2       4 UNK        -0.5039 
     34 N          21.6616  -26.9546  -40.8718 N.am      5 UNK        -0.4663 
     35 CA         21.8444  -28.2619  -40.2257 C.3       5 UNK         0.0242 
     36 CB         21.3329  -28.2275  -38.7702 C.3       5 UNK        -0.1982 
     37 C          23.2863  -28.7835  -40.3527 C.2       5 UNK         0.5017 
     38 O          23.9221  -29.1184  -39.3507 O.2       5 UNK        -0.5012 
     39 N          23.7789  -28.8359  -41.5975 N.am      6 UNK        -0.4439 
     40 CA         25.1142  -29.3128  -41.9592 C.3       6 UNK         0.0297 
     41 CB         25.4468  -28.8386  -43.3843 C.3       6 UNK        -0.2006 
     42 C          25.2352  -30.8415  -41.8172 C.2       6 UNK         0.4892 
     43 O          25.1263  -31.5629  -42.8101 O.2       6 UNK        -0.5089 
     44 N          25.4306  -31.3015  -40.5740 N.am      7 UNK        -0.4243 
     45 CA         25.6854  -32.6758  -40.1119 C.3       7 UNK         0.0196 
     46 CB         26.9738  -33.2433  -40.7392 C.3       7 UNK        -0.2007 
     47 C          24.5186  -33.6683  -40.2743 C.2       7 UNK         0.5020 
     48 O          24.3528  -34.5316  -39.4131 O.2       7 UNK        -0.5147 
     49 N          23.7265  -33.5371  -41.3454 N.am      8 UNK        -0.4734 
     50 CA         22.5966  -34.4103  -41.6887 C.3       8 UNK         0.0238 
     51 CB         22.0917  -34.0423  -43.0934 C.3       8 UNK        -0.1912 
     52 C          21.4361  -34.3832  -40.6763 C.2       8 UNK         0.5038 
     53 O          20.6996  -35.3656  -40.5794 O.2       8 UNK        -0.5046 
     54 N          21.2971  -33.2711  -39.9493 N.am      9 UNK        -0.4200 
     55 CA         20.2888  -33.0475  -38.9043 C.3       9 UNK         0.0839 
     56 C          20.7838  -32.0853  -37.7877 C.2       9 UNK         0.5513 
     57 N          22.0886  -31.9158  -37.6036 N.am      9 UNK        -0.7519 
     58 O          19.9853  -31.4992  -37.0617 O.2       9 UNK        -0.4960 
     59 C59        18.8826  -32.7092  -39.4778 C.3       10 UNK        -0.0876 
     60 S60        18.8654  -31.3231  -40.6691 S.3       10 UNK        -0.2414 
     61 C61        18.5098  -32.2293  -42.2065 C.3       10 UNK         0.0169 
     62 H62        18.7646  -27.4317  -40.9023 H         1 UNK         0.0903 
     63 H63        17.7088  -28.5394  -41.7737 H         1 UNK         0.0903 
     64 H64        19.4254  -28.4933  -42.1578 H         1 UNK         0.0903 
     65 H65        17.1347  -28.0885  -43.9474 H         1 UNK         0.3096 
     66 H66        16.4120  -25.5057  -44.5329 H         1 UNK         0.1121 
     67 H67        15.3656  -26.3629  -46.4495 H         1 UNK         0.0849 
     68 H68        16.5778  -27.5424  -46.7901 H         1 UNK         0.0849 
     69 H69        15.0928  -30.7245  -45.5997 H         1 UNK         0.0865 
     70 H70        15.8897  -29.8439  -46.8694 H         1 UNK         0.0865 
     71 H71        16.2881  -31.4296  -43.5838 H         1 UNK         0.1346 
     72 H72        20.5491  -30.9528  -43.4746 H         1 UNK         0.1412 
     73 H73        18.2619  -29.0168  -46.5312 H         1 UNK         0.1426 
     74 H74        20.5758  -28.6655  -46.4836 H         1 UNK         0.0716 
     75 H75        21.5273  -30.0016  -45.8671 H         1 UNK         0.0716 
     76 H76        22.4868  -27.3006  -46.3977 H         1 UNK         0.0695 
     77 H77        23.6737  -27.3864  -45.1398 H         1 UNK         0.0695 
     78 H78        23.2228  -25.0598  -45.7037 H         1 UNK         0.0983 
     79 H79        20.4509  -25.7888  -45.6987 H         1 UNK         0.3095 
     80 H80        19.1888  -22.4845  -45.8440 H         1 UNK         0.0454 
     81 H81        19.9822  -22.7243  -48.1699 H         1 UNK         0.0851 
     82 H82        18.2829  -23.1513  -48.0618 H         1 UNK         0.0851 
     83 H83        19.5066  -24.4129  -48.2028 H         1 UNK         0.0851 
     84 H84        17.7695  -23.8727  -44.9429 H         1 UNK         0.2976 
     85 H85        20.8346  -24.9612  -43.2109 H         1 UNK         0.3116 
     86 H86        20.7891  -24.3670  -41.0949 H         1 UNK         0.0646 
     87 H87        23.7046  -23.4494  -41.3053 H         1 UNK         0.0847 
     88 H88        22.2997  -22.4643  -41.7120 H         1 UNK         0.0847 
     89 H89        22.5502  -23.0063  -40.0606 H         1 UNK         0.0847 
     90 H90        21.0187  -26.9342  -41.6516 H         1 UNK         0.3040 
     91 H91        21.2238  -28.9777  -40.7660 H         1 UNK         0.1015 
     92 H92        21.3875  -29.2159  -38.3156 H         1 UNK         0.0786 
     93 H93        20.2916  -27.9095  -38.7227 H         1 UNK         0.0786 
     94 H94        21.9201  -27.5540  -38.1456 H         1 UNK         0.0786 
     95 H95        23.1847  -28.5437  -42.3614 H         1 UNK         0.3172 
     96 H96        25.8394  -28.8542  -41.2832 H         1 UNK         0.0595 
     97 H97        24.7483  -29.2430  -44.1180 H         1 UNK         0.0839 
     98 H98        26.4469  -29.1603  -43.6778 H         1 UNK         0.0839 
     99 H99        25.4238  -27.7509  -43.4551 H         1 UNK         0.0839 
    100 H100       25.3656  -30.6087  -39.8350 H         1 UNK         0.2998 
    101 H101       25.8602  -32.5884  -39.0381 H         1 UNK         0.0822 
    102 H102       27.2150  -34.2198  -40.3168 H         1 UNK         0.0787 
    103 H103       27.8268  -32.5908  -40.5527 H         1 UNK         0.0787 
    104 H104       26.8797  -33.3730  -41.8179 H         1 UNK         0.0787 
    105 H105       23.9922  -32.8269  -42.0242 H         1 UNK         0.3055 
    106 H106       22.9692  -35.4367  -41.7154 H         1 UNK         0.1106 
    107 H107       22.8718  -34.1778  -43.8429 H         1 UNK         0.0828 
    108 H108       21.2499  -34.6714  -43.3866 H         1 UNK         0.0828 
    109 H109       21.7585  -33.0057  -43.1423 H         1 UNK         0.0828 
    110 H110       21.9377  -32.5078  -40.1073 H         1 UNK         0.2931 
    111 H111       20.1780  -33.9938  -38.3715 H         1 UNK         0.0412 
    112 H112       22.4007  -31.2928  -36.8754 H         1 UNK         0.3472 
    113 H113       22.7608  -32.4624  -38.1163 H         1 UNK         0.3472 
    114 H114       18.4752  -33.5995  -39.9588 H         1 UNK         0.0970 
    115 H115       18.1795  -32.4823  -38.6746 H         1 UNK         0.0970 
    116 H116       19.2876  -32.9742  -42.3766 H         1 UNK         0.0612 
    117 H117       17.5752  -32.7799  -42.0890 H         1 UNK         0.0612 
@<TRIPOS>BOND
     1    1    2 1    
     2    1   62 1    
     3    1   63 1    
     4    1   64 1    
     5    2    3 2    
     6    2    4 am   BACKBONE|DICT|INTERRES
     7    4    5 1    
     8    4   65 1    
     9    5    6 1    
    10    5   25 1    
    11    5   66 1    
    12    6    7 1    
    13    6   67 1    
    14    6   68 1    
    15    7    8 1    
    16    8    9 1    
    17    8   69 1    
    18    8   70 1    
    19    9   10 ar   
    20    9   14 ar   
    21   10   11 ar   
    22   10   71 1    
    23   11   12 ar   
    24   11   61 1    
    25   12   13 ar   
    26   12   72 1    
    27   13   14 ar   
    28   13   15 1    
    29   14   73 1    
    30   15   16 1    
    31   15   74 1    
    32   15   75 1    
    33   16   17 1    
    34   17   18 1    
    35   17   76 1    
    36   17   77 1    
    37   18   19 1    
    38   18   27 1    
    39   18   78 1    
    40   19   20 am   BACKBONE|DICT|INTERRES
    41   19   79 1    
    42   20   21 2    
    43   20   22 1    
    44   22   23 1    
    45   22   24 1    
    46   22   80 1    
    47   23   81 1    
    48   23   82 1    
    49   23   83 1    
    50   24   25 am   BACKBONE|DICT|INTERRES
    51   24   84 1    
    52   25   26 2    
    53   27   28 2    
    54   27   29 am   BACKBONE|DICT|INTERRES
    55   29   30 1    
    56   29   85 1    
    57   30   31 1    
    58   30   32 1    
    59   30   86 1    
    60   31   87 1    
    61   31   88 1    
    62   31   89 1    
    63   32   33 2    
    64   32   34 am   BACKBONE|DICT|INTERRES
    65   34   35 1    
    66   34   90 1    
    67   35   36 1    
    68   35   37 1    
    69   35   91 1    
    70   36   92 1    
    71   36   93 1    
    72   36   94 1    
    73   37   38 2    
    74   37   39 am   BACKBONE|DICT|INTERRES
    75   39   40 1    
    76   39   95 1    
    77   40   41 1    
    78   40   42 1    
    79   40   96 1    
    80   41   97 1    
    81   41   98 1    
    82   41   99 1    
    83   42   43 2    
    84   42   44 am   BACKBONE|DICT|INTERRES
    85   44   45 1    
    86   44  100 1    
    87   45   46 1    
    88   45   47 1    
    89   45  101 1    
    90   46  102 1    
    91   46  103 1    
    92   46  104 1    
    93   47   48 2    
    94   47   49 am   BACKBONE|DICT|INTERRES
    95   49   50 1    
    96   49  105 1    
    97   50   51 1    
    98   50   52 1    
    99   50  106 1    
   100   51  107 1    
   101   51  108 1    
   102   51  109 1    
   103   52   53 2    
   104   52   54 am   BACKBONE|DICT|INTERRES
   105   54   55 1    
   106   54  110 1    
   107   55   56 1    
   108   55   59 1    
   109   55  111 1    
   110   56   57 am   BACKBONE|DICT|INTERRES
   111   56   58 2    
   112   57  112 1    
   113   57  113 1    
   114   59   60 1    
   115   59  114 1    
   116   59  115 1    
   117   60   61 1    
   118   61  116 1    
   119   61  117 1    
@<TRIPOS>SUBSTRUCTURE
     1 UNK         1 GROUP             0       ****    0 ROOT    
