@<TRIPOS>MOLECULE
3R8
117   119    1
SMALL
USER_CHARGES


@<TRIPOS>ATOM
      1 CA         14.2703  -25.5631  -39.9602 C.3       0 UNK        -0.2013 
      2 C          14.6770  -25.1839  -41.3766 C.2       0 UNK         0.4866 
      3 O          14.2475  -24.1449  -41.8799 O.2       0 UNK        -0.5176 
      4 N          15.4933  -26.0223  -42.0266 N.am      1 UNK        -0.4884 
      5 CA         16.0237  -25.7992  -43.3763 C.3       1 UNK         0.0853 
      6 C6         16.6643  -27.0827  -43.9631 C.3       10 UNK        -0.0849 
      7 S7         15.4966  -28.4829  -44.0615 S.3       10 UNK        -0.2776 
      8 C8         15.9248  -29.2239  -45.6721 C.3       10 UNK         0.0316 
      9 C9         17.3721  -29.6977  -45.7195 C.ar      10 UNK        -0.0863 
     10 C10        17.7801  -30.7966  -44.9573 C.ar      10 UNK        -0.1009 
     11 C11        19.1128  -31.2197  -44.9769 C.ar      10 UNK        -0.0712 
     12 C12        20.0376  -30.5469  -45.7810 C.ar      10 UNK        -0.0894 
     13 C13        19.6394  -29.4538  -46.5558 C.ar      10 UNK        -0.0745 
     14 C14        18.3052  -29.0358  -46.5233 C.ar      10 UNK        -0.0972 
     15 C15        20.6528  -28.7134  -47.4180 C.3       10 UNK         0.0209 
     16 S16        21.7416  -27.6426  -46.4256 S.3       10 UNK        -0.2568 
     17 C17        20.5202  -26.6075  -45.5541 C.3       10 UNK        -0.0983 
     18 CA         21.1155  -25.3180  -44.9321 C.3       3 UNK         0.0876 
     19 N          20.0521  -24.4013  -44.5383 N.am      3 UNK        -0.4424 
     20 C          19.3711  -23.5965  -45.3574 C.2       2 UNK         0.4918 
     21 O          19.6302  -23.4590  -46.5541 O.2       2 UNK        -0.4875 
     22 CA         18.1490  -22.8904  -44.7414 C.3       2 UNK         0.0481 
     23 CB         17.5740  -21.7940  -45.6570 C.3       2 UNK        -0.1831 
     24 N          17.1045  -23.8800  -44.4627 N.am      2 UNK        -0.4498 
     25 C          17.0644  -24.6612  -43.3750 C.2       1 UNK         0.5027 
     26 O          17.8526  -24.5537  -42.4311 O.2       1 UNK        -0.4969 
     27 C          21.9692  -25.6138  -43.6856 C.2       3 UNK         0.5005 
     28 O          21.4868  -25.4573  -42.5596 O.2       3 UNK        -0.5279 
     29 N          23.2131  -26.0503  -43.9087 N.am      4 UNK        -0.4463 
     30 CA         24.1689  -26.4527  -42.8782 C.3       4 UNK         0.0283 
     31 CB         24.9151  -25.2184  -42.3323 C.3       4 UNK        -0.1875 
     32 C          25.1073  -27.5321  -43.4407 C.2       4 UNK         0.4949 
     33 O          26.3245  -27.4353  -43.2814 O.2       4 UNK        -0.5039 
     34 N          24.5251  -28.5329  -44.1190 N.am      5 UNK        -0.4663 
     35 CA         25.2448  -29.6513  -44.7437 C.3       5 UNK         0.0242 
     36 CB         24.2706  -30.4599  -45.6158 C.3       5 UNK        -0.1982 
     37 C          25.9471  -30.5749  -43.7320 C.2       5 UNK         0.5017 
     38 O          27.0158  -31.1067  -44.0347 O.2       5 UNK        -0.5012 
     39 N          25.3388  -30.7318  -42.5531 N.am      6 UNK        -0.4439 
     40 CA         25.8393  -31.4688  -41.3998 C.3       6 UNK         0.0297 
     41 CB         25.7130  -32.9867  -41.6280 C.3       6 UNK        -0.2006 
     42 C          25.0256  -31.0192  -40.1827 C.2       6 UNK         0.4892 
     43 O          23.9028  -30.5315  -40.3528 O.2       6 UNK        -0.5089 
     44 N          25.5948  -31.1992  -38.9833 N.am      7 UNK        -0.4243 
     45 CA         24.9749  -30.8711  -37.6959 C.3       7 UNK         0.0196 
     46 CB         25.9790  -31.1400  -36.5622 C.3       7 UNK        -0.2007 
     47 C          23.6753  -31.6652  -37.4888 C.2       7 UNK         0.5020 
     48 O          23.7308  -32.8862  -37.3307 O.2       7 UNK        -0.5147 
     49 N          22.5354  -30.9637  -37.5741 N.am      8 UNK        -0.4734 
     50 CA         21.1650  -31.4991  -37.5655 C.3       8 UNK         0.0238 
     51 CB         20.8023  -32.0268  -36.1605 C.3       8 UNK        -0.1912 
     52 C          20.9055  -32.5413  -38.6767 C.2       8 UNK         0.5038 
     53 O          20.1038  -33.4557  -38.4766 O.2       8 UNK        -0.5046 
     54 N          21.6080  -32.3967  -39.8112 N.am      9 UNK        -0.4200 
     55 CA         21.6533  -33.3464  -40.9367 C.3       9 UNK         0.0839 
     56 C          22.3352  -34.7094  -40.5998 C.2       9 UNK         0.5513 
     57 N          23.0719  -34.8386  -39.5020 N.am      9 UNK        -0.7519 
     58 O          22.2295  -35.6623  -41.3675 O.2       9 UNK        -0.4960 
     59 C59        20.2835  -33.5155  -41.6569 C.3       10 UNK        -0.0876 
     60 S60        19.6804  -31.9483  -42.3724 S.3       10 UNK        -0.2414 
     61 C61        19.5500  -32.4034  -44.1291 C.3       10 UNK         0.0169 
     62 H62        14.7114  -26.5098  -39.6487 H         1 UNK         0.0903 
     63 H63        14.5910  -24.7928  -39.2594 H         1 UNK         0.0903 
     64 H64        13.1866  -25.6558  -39.8928 H         1 UNK         0.0903 
     65 H65        15.8204  -26.8596  -41.5660 H         1 UNK         0.3096 
     66 H66        15.1897  -25.5028  -44.0169 H         1 UNK         0.1121 
     67 H67        17.5222  -27.3995  -43.3656 H         1 UNK         0.0849 
     68 H68        17.0533  -26.8794  -44.9627 H         1 UNK         0.0849 
     69 H69        15.7229  -28.5021  -46.4652 H         1 UNK         0.0865 
     70 H70        15.2639  -30.0717  -45.8583 H         1 UNK         0.0865 
     71 H71        17.0636  -31.3104  -44.3307 H         1 UNK         0.1346 
     72 H72        21.0705  -30.8654  -45.7992 H         1 UNK         0.1412 
     73 H73        17.9968  -28.1856  -47.1162 H         1 UNK         0.1426 
     74 H74        20.1488  -28.1084  -48.1734 H         1 UNK         0.0716 
     75 H75        21.2649  -29.4340  -47.9622 H         1 UNK         0.0716 
     76 H76        20.0182  -27.2091  -44.7932 H         1 UNK         0.0695 
     77 H77        19.7510  -26.3429  -46.2813 H         1 UNK         0.0695 
     78 H78        21.7480  -24.8132  -45.6660 H         1 UNK         0.0983 
     79 H79        19.7949  -24.4560  -43.5573 H         1 UNK         0.3095 
     80 H80        18.4661  -22.4149  -43.8107 H         1 UNK         0.0454 
     81 H81        17.2192  -22.1986  -46.6058 H         1 UNK         0.0851 
     82 H82        18.3304  -21.0423  -45.8861 H         1 UNK         0.0851 
     83 H83        16.7404  -21.2778  -45.1808 H         1 UNK         0.0851 
     84 H84        16.4442  -24.0483  -45.2087 H         1 UNK         0.2976 
     85 H85        23.5182  -26.1829  -44.8650 H         1 UNK         0.3116 
     86 H86        23.6291  -26.9199  -42.0515 H         1 UNK         0.0646 
     87 H87        25.4828  -24.7139  -43.1149 H         1 UNK         0.0847 
     88 H88        25.6176  -25.5004  -41.5470 H         1 UNK         0.0847 
     89 H89        24.2244  -24.4947  -41.8996 H         1 UNK         0.0847 
     90 H90        23.5193  -28.5280  -44.2177 H         1 UNK         0.3040 
     91 H91        26.0183  -29.2320  -45.3907 H         1 UNK         0.1015 
     92 H92        23.8466  -29.8473  -46.4110 H         1 UNK         0.0786 
     93 H93        23.4481  -30.8696  -45.0290 H         1 UNK         0.0786 
     94 H94        24.7789  -31.2984  -46.0942 H         1 UNK         0.0786 
     95 H95        24.4736  -30.2364  -42.3715 H         1 UNK         0.3172 
     96 H96        26.8859  -31.2042  -41.2359 H         1 UNK         0.0595 
     97 H97        24.6946  -33.2711  -41.8892 H         1 UNK         0.0839 
     98 H98        25.9899  -33.5475  -40.7344 H         1 UNK         0.0839 
     99 H99        26.3665  -33.3230  -42.4329 H         1 UNK         0.0839 
    100 H100       26.5059  -31.6329  -38.9421 H         1 UNK         0.2998 
    101 H101       24.7443  -29.8035  -37.6972 H         1 UNK         0.0822 
    102 H102       26.8753  -30.5291  -36.6715 H         1 UNK         0.0787 
    103 H103       25.5421  -30.9022  -35.5913 H         1 UNK         0.0787 
    104 H104       26.2867  -32.1862  -36.5329 H         1 UNK         0.0787 
    105 H105       22.6084  -29.9713  -37.7563 H         1 UNK         0.3055 
    106 H106       20.5020  -30.6606  -37.7855 H         1 UNK         0.1106 
    107 H107       19.7483  -32.3015  -36.1041 H         1 UNK         0.0828 
    108 H108       20.9787  -31.2717  -35.3946 H         1 UNK         0.0828 
    109 H109       21.3828  -32.9122  -35.8991 H         1 UNK         0.0828 
    110 H110       22.2613  -31.6230  -39.8773 H         1 UNK         0.2931 
    111 H111       22.3293  -32.8855  -41.6574 H         1 UNK         0.0412 
    112 H112       23.1804  -34.0759  -38.8418 H         1 UNK         0.3472 
    113 H113       23.5119  -35.7248  -39.3122 H         1 UNK         0.3472 
    114 H114       20.3616  -34.2542  -42.4563 H         1 UNK         0.0970 
    115 H115       19.5272  -33.9051  -40.9749 H         1 UNK         0.0970 
    116 H116       18.8319  -33.2172  -44.2403 H         1 UNK         0.0612 
    117 H117       20.5122  -32.7856  -44.4743 H         1 UNK         0.0612 
@<TRIPOS>BOND
     1    1    2 1    
     2    1   62 1    
     3    1   63 1    
     4    1   64 1    
     5    2    3 2    
     6    2    4 am   BACKBONE|DICT|INTERRES
     7    4    5 1    
     8    4   65 1    
     9    5    6 1    
    10    5   25 1    
    11    5   66 1    
    12    6    7 1    
    13    6   67 1    
    14    6   68 1    
    15    7    8 1    
    16    8    9 1    
    17    8   69 1    
    18    8   70 1    
    19    9   10 ar   
    20    9   14 ar   
    21   10   11 ar   
    22   10   71 1    
    23   11   12 ar   
    24   11   61 1    
    25   12   13 ar   
    26   12   72 1    
    27   13   14 ar   
    28   13   15 1    
    29   14   73 1    
    30   15   16 1    
    31   15   74 1    
    32   15   75 1    
    33   16   17 1    
    34   17   18 1    
    35   17   76 1    
    36   17   77 1    
    37   18   19 1    
    38   18   27 1    
    39   18   78 1    
    40   19   20 am   BACKBONE|DICT|INTERRES
    41   19   79 1    
    42   20   21 2    
    43   20   22 1    
    44   22   23 1    
    45   22   24 1    
    46   22   80 1    
    47   23   81 1    
    48   23   82 1    
    49   23   83 1    
    50   24   25 am   BACKBONE|DICT|INTERRES
    51   24   84 1    
    52   25   26 2    
    53   27   28 2    
    54   27   29 am   BACKBONE|DICT|INTERRES
    55   29   30 1    
    56   29   85 1    
    57   30   31 1    
    58   30   32 1    
    59   30   86 1    
    60   31   87 1    
    61   31   88 1    
    62   31   89 1    
    63   32   33 2    
    64   32   34 am   BACKBONE|DICT|INTERRES
    65   34   35 1    
    66   34   90 1    
    67   35   36 1    
    68   35   37 1    
    69   35   91 1    
    70   36   92 1    
    71   36   93 1    
    72   36   94 1    
    73   37   38 2    
    74   37   39 am   BACKBONE|DICT|INTERRES
    75   39   40 1    
    76   39   95 1    
    77   40   41 1    
    78   40   42 1    
    79   40   96 1    
    80   41   97 1    
    81   41   98 1    
    82   41   99 1    
    83   42   43 2    
    84   42   44 am   BACKBONE|DICT|INTERRES
    85   44   45 1    
    86   44  100 1    
    87   45   46 1    
    88   45   47 1    
    89   45  101 1    
    90   46  102 1    
    91   46  103 1    
    92   46  104 1    
    93   47   48 2    
    94   47   49 am   BACKBONE|DICT|INTERRES
    95   49   50 1    
    96   49  105 1    
    97   50   51 1    
    98   50   52 1    
    99   50  106 1    
   100   51  107 1    
   101   51  108 1    
   102   51  109 1    
   103   52   53 2    
   104   52   54 am   BACKBONE|DICT|INTERRES
   105   54   55 1    
   106   54  110 1    
   107   55   56 1    
   108   55   59 1    
   109   55  111 1    
   110   56   57 am   BACKBONE|DICT|INTERRES
   111   56   58 2    
   112   57  112 1    
   113   57  113 1    
   114   59   60 1    
   115   59  114 1    
   116   59  115 1    
   117   60   61 1    
   118   61  116 1    
   119   61  117 1    
@<TRIPOS>SUBSTRUCTURE
     1 UNK         1 GROUP             0       ****    0 ROOT    
