@<TRIPOS>MOLECULE
3R8
117   119    1
SMALL
USER_CHARGES


@<TRIPOS>ATOM
      1 CA         18.1417  -29.1396  -47.6292 C.3       0 UNK        -0.2013 
      2 C          16.8447  -28.3781  -47.8942 C.2       0 UNK         0.4866 
      3 O          16.3810  -28.3564  -49.0327 O.2       0 UNK        -0.5176 
      4 N          16.2129  -27.7552  -46.8898 N.am      1 UNK        -0.4884 
      5 CA         16.6768  -27.6140  -45.5052 C.3       1 UNK         0.0853 
      6 C6         15.5139  -27.2744  -44.5410 C.3       10 UNK        -0.0849 
      7 S7         14.3317  -28.6613  -44.4225 S.3       10 UNK        -0.2776 
      8 C8         14.3677  -29.0698  -42.6408 C.3       10 UNK         0.0316 
      9 C9         15.7542  -29.3945  -42.0852 C.ar      10 UNK        -0.0863 
     10 C10        16.6739  -30.1603  -42.8094 C.ar      10 UNK        -0.1009 
     11 C11        17.9412  -30.4337  -42.2871 C.ar      10 UNK        -0.0712 
     12 C12        18.2725  -29.9814  -41.0061 C.ar      10 UNK        -0.0894 
     13 C13        17.3602  -29.2230  -40.2630 C.ar      10 UNK        -0.0745 
     14 C14        16.1075  -28.9330  -40.8135 C.ar      10 UNK        -0.0972 
     15 C15        17.6851  -28.7319  -38.8530 C.3       10 UNK         0.0209 
     16 S16        19.3644  -28.0479  -38.6450 S.3       10 UNK        -0.2568 
     17 C17        19.4246  -26.7095  -39.8838 C.3       10 UNK        -0.0983 
     18 CA         20.5289  -26.9564  -40.9462 C.3       3 UNK         0.0876 
     19 N          20.1409  -26.4202  -42.2587 N.am      3 UNK        -0.4424 
     20 C          20.8257  -26.5705  -43.4016 C.2       2 UNK         0.4918 
     21 O          21.9372  -27.0956  -43.4739 O.2       2 UNK        -0.4875 
     22 CA         20.1106  -26.0938  -44.6700 C.3       2 UNK         0.0481 
     23 CB         20.9890  -26.1975  -45.9325 C.3       2 UNK        -0.1831 
     24 N          18.9135  -26.9119  -44.8267 N.am      2 UNK        -0.4498 
     25 C          17.7819  -26.5446  -45.4334 C.2       1 UNK         0.5027 
     26 O          17.5900  -25.4306  -45.9259 O.2       1 UNK        -0.4969 
     27 C          21.9204  -26.4929  -40.4505 C.2       3 UNK         0.5005 
     28 O          22.5532  -27.2028  -39.6678 O.2       3 UNK        -0.5279 
     29 N          22.4037  -25.3477  -40.9577 N.am      4 UNK        -0.4463 
     30 CA         23.7594  -24.8275  -40.7511 C.3       4 UNK         0.0283 
     31 CB         23.9004  -23.4788  -41.4742 C.3       4 UNK        -0.1875 
     32 C          24.8794  -25.7908  -41.1933 C.2       4 UNK         0.4949 
     33 O          25.9677  -25.7449  -40.6184 O.2       4 UNK        -0.5039 
     34 N          24.5981  -26.6800  -42.1583 N.am      5 UNK        -0.4663 
     35 CA         25.4816  -27.7703  -42.5806 C.3       5 UNK         0.0242 
     36 CB         25.1205  -28.1807  -44.0192 C.3       5 UNK        -0.1982 
     37 C          25.4209  -28.9526  -41.5918 C.2       5 UNK         0.5017 
     38 O          25.0227  -30.0573  -41.9704 O.2       5 UNK        -0.5012 
     39 N          25.7889  -28.6777  -40.3305 N.am      6 UNK        -0.4439 
     40 CA         25.9184  -29.5992  -39.1912 C.3       6 UNK         0.0297 
     41 CB         27.1676  -30.4848  -39.3840 C.3       6 UNK        -0.2006 
     42 C          24.6574  -30.4369  -38.8864 C.2       6 UNK         0.4892 
     43 O          24.7810  -31.5588  -38.3924 O.2       6 UNK        -0.5089 
     44 N          23.4749  -29.8993  -39.2240 N.am      7 UNK        -0.4243 
     45 CA         22.1562  -30.5474  -39.2194 C.3       7 UNK         0.0196 
     46 CB         21.7036  -30.8666  -37.7797 C.3       7 UNK        -0.2007 
     47 C          22.0301  -31.7684  -40.1567 C.2       7 UNK         0.5020 
     48 O          21.0311  -32.4838  -40.0767 O.2       7 UNK        -0.5147 
     49 N          23.0200  -31.9895  -41.0312 N.am      8 UNK        -0.4734 
     50 CA         23.0879  -33.1268  -41.9475 C.3       8 UNK         0.0238 
     51 CB         24.5445  -33.6133  -42.0253 C.3       8 UNK        -0.1912 
     52 C          22.5708  -32.7739  -43.3475 C.2       8 UNK         0.5038 
     53 O          22.1067  -33.6732  -44.0490 O.2       8 UNK        -0.5046 
     54 N          22.6667  -31.4914  -43.7304 N.am      9 UNK        -0.4200 
     55 CA         22.2890  -30.9602  -45.0532 C.3       9 UNK         0.0839 
     56 C          23.1759  -31.4798  -46.2270 C.2       9 UNK         0.5513 
     57 N          24.3918  -31.9487  -45.9716 N.am      9 UNK        -0.7519 
     58 O          22.7771  -31.4305  -47.3878 O.2       9 UNK        -0.4960 
     59 C59        20.7627  -31.0692  -45.3372 C.3       10 UNK        -0.0876 
     60 S60        19.7964  -29.9958  -44.2294 S.3       10 UNK        -0.2414 
     61 C61        18.9612  -31.1769  -43.1334 C.3       10 UNK         0.0169 
     62 H62        18.0006  -29.8983  -46.8601 H         1 UNK         0.0903 
     63 H63        18.4731  -29.6509  -48.5328 H         1 UNK         0.0903 
     64 H64        18.9409  -28.4659  -47.3231 H         1 UNK         0.0903 
     65 H65        15.3583  -27.2598  -47.0998 H         1 UNK         0.3096 
     66 H66        17.0995  -28.5664  -45.1824 H         1 UNK         0.1121 
     67 H67        14.9777  -26.3844  -44.8760 H         1 UNK         0.0849 
     68 H68        15.8931  -27.0386  -43.5446 H         1 UNK         0.0849 
     69 H69        13.7163  -29.9272  -42.4671 H         1 UNK         0.0865 
     70 H70        13.9252  -28.2351  -42.0946 H         1 UNK         0.0865 
     71 H71        16.4145  -30.5254  -43.7936 H         1 UNK         0.1346 
     72 H72        19.2447  -30.2104  -40.5938 H         1 UNK         0.1412 
     73 H73        15.3962  -28.3525  -40.2412 H         1 UNK         0.1426 
     74 H74        17.5647  -29.5666  -38.1615 H         1 UNK         0.0716 
     75 H75        16.9708  -27.9691  -38.5392 H         1 UNK         0.0716 
     76 H76        19.5633  -25.7542  -39.3738 H         1 UNK         0.0695 
     77 H77        18.4444  -26.6449  -40.3584 H         1 UNK         0.0695 
     78 H78        20.6147  -28.0331  -41.1071 H         1 UNK         0.0983 
     79 H79        19.2354  -25.9761  -42.3049 H         1 UNK         0.3095 
     80 H80        19.8305  -25.0494  -44.5183 H         1 UNK         0.0454 
     81 H81        21.2830  -27.2286  -46.1340 H         1 UNK         0.0851 
     82 H82        21.9028  -25.6127  -45.8214 H         1 UNK         0.0851 
     83 H83        20.4677  -25.8200  -46.8121 H         1 UNK         0.0851 
     84 H84        18.9899  -27.8469  -44.4406 H         1 UNK         0.2976 
     85 H85        21.8147  -24.8328  -41.5955 H         1 UNK         0.3116 
     86 H86        23.8826  -24.6575  -39.6795 H         1 UNK         0.0646 
     87 H87        23.7592  -23.5809  -42.5510 H         1 UNK         0.0847 
     88 H88        24.8924  -23.0533  -41.3155 H         1 UNK         0.0847 
     89 H89        23.1770  -22.7511  -41.1061 H         1 UNK         0.0847 
     90 H90        23.6637  -26.6880  -42.5576 H         1 UNK         0.3040 
     91 H91        26.5133  -27.4113  -42.5901 H         1 UNK         0.1015 
     92 H92        24.0941  -28.5369  -44.0854 H         1 UNK         0.0786 
     93 H93        25.7695  -28.9817  -44.3756 H         1 UNK         0.0786 
     94 H94        25.2276  -27.3438  -44.7093 H         1 UNK         0.0786 
     95 H95        26.0304  -27.7091  -40.1405 H         1 UNK         0.3172 
     96 H96        26.0843  -28.9747  -38.3124 H         1 UNK         0.0595 
     97 H97        27.3683  -31.0846  -38.4954 H         1 UNK         0.0839 
     98 H98        28.0570  -29.8833  -39.5713 H         1 UNK         0.0839 
     99 H99        27.0454  -31.1732  -40.2213 H         1 UNK         0.0839 
    100 H100       23.4666  -28.9400  -39.5618 H         1 UNK         0.2998 
    101 H101       21.4700  -29.8046  -39.6223 H         1 UNK         0.0822 
    102 H102       20.6658  -31.2015  -37.7612 H         1 UNK         0.0787 
    103 H103       22.3083  -31.6536  -37.3286 H         1 UNK         0.0787 
    104 H104       21.7661  -29.9844  -37.1424 H         1 UNK         0.0787 
    105 H105       23.7940  -31.3324  -41.0697 H         1 UNK         0.3055 
    106 H106       22.4754  -33.9479  -41.5676 H         1 UNK         0.1106 
    107 H107       24.6351  -34.4735  -42.6901 H         1 UNK         0.0828 
    108 H108       25.2126  -32.8370  -42.4008 H         1 UNK         0.0828 
    109 H109       24.9101  -33.9212  -41.0454 H         1 UNK         0.0828 
    110 H110       23.0996  -30.8341  -43.0962 H         1 UNK         0.2931 
    111 H111       22.5191  -29.8961  -45.0115 H         1 UNK         0.0412 
    112 H112       24.7414  -31.9766  -45.0274 H         1 UNK         0.3472 
    113 H113       24.9657  -32.2737  -46.7338 H         1 UNK         0.3472 
    114 H114       20.5354  -30.7416  -46.3528 H         1 UNK         0.0970 
    115 H115       20.4142  -32.1005  -45.2749 H         1 UNK         0.0970 
    116 H116       19.6978  -31.6800  -42.5053 H         1 UNK         0.0612 
    117 H117       18.4670  -31.9482  -43.7260 H         1 UNK         0.0612 
@<TRIPOS>BOND
     1    1    2 1    
     2    1   62 1    
     3    1   63 1    
     4    1   64 1    
     5    2    3 2    
     6    2    4 am   BACKBONE|DICT|INTERRES
     7    4    5 1    
     8    4   65 1    
     9    5    6 1    
    10    5   25 1    
    11    5   66 1    
    12    6    7 1    
    13    6   67 1    
    14    6   68 1    
    15    7    8 1    
    16    8    9 1    
    17    8   69 1    
    18    8   70 1    
    19    9   10 ar   
    20    9   14 ar   
    21   10   11 ar   
    22   10   71 1    
    23   11   12 ar   
    24   11   61 1    
    25   12   13 ar   
    26   12   72 1    
    27   13   14 ar   
    28   13   15 1    
    29   14   73 1    
    30   15   16 1    
    31   15   74 1    
    32   15   75 1    
    33   16   17 1    
    34   17   18 1    
    35   17   76 1    
    36   17   77 1    
    37   18   19 1    
    38   18   27 1    
    39   18   78 1    
    40   19   20 am   BACKBONE|DICT|INTERRES
    41   19   79 1    
    42   20   21 2    
    43   20   22 1    
    44   22   23 1    
    45   22   24 1    
    46   22   80 1    
    47   23   81 1    
    48   23   82 1    
    49   23   83 1    
    50   24   25 am   BACKBONE|DICT|INTERRES
    51   24   84 1    
    52   25   26 2    
    53   27   28 2    
    54   27   29 am   BACKBONE|DICT|INTERRES
    55   29   30 1    
    56   29   85 1    
    57   30   31 1    
    58   30   32 1    
    59   30   86 1    
    60   31   87 1    
    61   31   88 1    
    62   31   89 1    
    63   32   33 2    
    64   32   34 am   BACKBONE|DICT|INTERRES
    65   34   35 1    
    66   34   90 1    
    67   35   36 1    
    68   35   37 1    
    69   35   91 1    
    70   36   92 1    
    71   36   93 1    
    72   36   94 1    
    73   37   38 2    
    74   37   39 am   BACKBONE|DICT|INTERRES
    75   39   40 1    
    76   39   95 1    
    77   40   41 1    
    78   40   42 1    
    79   40   96 1    
    80   41   97 1    
    81   41   98 1    
    82   41   99 1    
    83   42   43 2    
    84   42   44 am   BACKBONE|DICT|INTERRES
    85   44   45 1    
    86   44  100 1    
    87   45   46 1    
    88   45   47 1    
    89   45  101 1    
    90   46  102 1    
    91   46  103 1    
    92   46  104 1    
    93   47   48 2    
    94   47   49 am   BACKBONE|DICT|INTERRES
    95   49   50 1    
    96   49  105 1    
    97   50   51 1    
    98   50   52 1    
    99   50  106 1    
   100   51  107 1    
   101   51  108 1    
   102   51  109 1    
   103   52   53 2    
   104   52   54 am   BACKBONE|DICT|INTERRES
   105   54   55 1    
   106   54  110 1    
   107   55   56 1    
   108   55   59 1    
   109   55  111 1    
   110   56   57 am   BACKBONE|DICT|INTERRES
   111   56   58 2    
   112   57  112 1    
   113   57  113 1    
   114   59   60 1    
   115   59  114 1    
   116   59  115 1    
   117   60   61 1    
   118   61  116 1    
   119   61  117 1    
@<TRIPOS>SUBSTRUCTURE
     1 UNK         1 GROUP             0       ****    0 ROOT    
