@<TRIPOS>MOLECULE
3R8
117   119    1
SMALL
USER_CHARGES


@<TRIPOS>ATOM
      1 CA         16.3841  -23.2724  -40.1115 C.3       0 UNK        -0.2013 
      2 C          16.3763  -23.5251  -41.6117 C.2       0 UNK         0.4866 
      3 O          15.9534  -22.6576  -42.3760 O.2       0 UNK        -0.5176 
      4 N          16.8409  -24.7074  -42.0396 N.am      1 UNK        -0.4884 
      5 CA         16.9133  -25.1154  -43.4503 C.3       1 UNK         0.0853 
      6 C6         17.0465  -26.6579  -43.5764 C.3       10 UNK        -0.0849 
      7 S7         16.3890  -27.2968  -45.1547 S.3       10 UNK        -0.2776 
      8 C8         16.1017  -29.0563  -44.7628 C.3       10 UNK         0.0316 
      9 C9         17.3932  -29.7884  -44.4220 C.ar      10 UNK        -0.0863 
     10 C10        17.5760  -30.3516  -43.1547 C.ar      10 UNK        -0.1009 
     11 C11        18.7721  -31.0009  -42.8355 C.ar      10 UNK        -0.0712 
     12 C12        19.7989  -31.0600  -43.7821 C.ar      10 UNK        -0.0894 
     13 C13        19.6292  -30.5025  -45.0527 C.ar      10 UNK        -0.0745 
     14 C14        18.4101  -29.8974  -45.3755 C.ar      10 UNK        -0.0972 
     15 C15        20.7778  -30.5381  -46.0580 C.3       10 UNK         0.0209 
     16 S16        21.1679  -28.9102  -46.7961 S.3       10 UNK        -0.2568 
     17 C17        20.9842  -27.7873  -45.3724 C.3       10 UNK        -0.0983 
     18 CA         21.7356  -26.4453  -45.5393 C.3       3 UNK         0.0876 
     19 N          21.0528  -25.4092  -44.7700 N.am      3 UNK        -0.4424 
     20 C          21.1148  -24.0913  -44.9791 C.2       2 UNK         0.4918 
     21 O          21.7819  -23.5684  -45.8733 O.2       2 UNK        -0.4875 
     22 CA         20.2705  -23.2240  -44.0189 C.3       2 UNK         0.0481 
     23 CB         19.9087  -21.8491  -44.6192 C.3       2 UNK        -0.1831 
     24 N          19.0698  -23.9122  -43.5110 N.am      2 UNK        -0.4498 
     25 C          18.0282  -24.3737  -44.2280 C.2       1 UNK         0.5027 
     26 O          17.9259  -24.2377  -45.4477 O.2       1 UNK        -0.4969 
     27 C          23.2062  -26.5776  -45.1005 C.2       3 UNK         0.5005 
     28 O          23.5454  -26.2390  -43.9634 O.2       3 UNK        -0.5279 
     29 N          24.0402  -27.1465  -45.9813 N.am      4 UNK        -0.4463 
     30 CA         25.4469  -27.4686  -45.7119 C.3       4 UNK         0.0283 
     31 CB         26.1250  -27.9077  -47.0197 C.3       4 UNK        -0.1875 
     32 C          25.6412  -28.5414  -44.6217 C.2       4 UNK         0.4949 
     33 O          26.6959  -28.5669  -43.9877 O.2       4 UNK        -0.5039 
     34 N          24.6250  -29.3906  -44.4187 N.am      5 UNK        -0.4663 
     35 CA         24.5813  -30.4325  -43.3907 C.3       5 UNK         0.0242 
     36 CB         24.5346  -31.8141  -44.0709 C.3       5 UNK        -0.1982 
     37 C          23.4023  -30.2201  -42.4247 C.2       5 UNK         0.5017 
     38 O          22.8991  -31.1971  -41.8676 O.2       5 UNK        -0.5012 
     39 N          22.9695  -28.9628  -42.2358 N.am      6 UNK        -0.4439 
     40 CA         21.9123  -28.5849  -41.2902 C.3       6 UNK         0.0297 
     41 CB         21.6120  -27.0840  -41.4163 C.3       6 UNK        -0.2006 
     42 C          22.2781  -28.9335  -39.8372 C.2       6 UNK         0.4892 
     43 O          23.4586  -28.9127  -39.4802 O.2       6 UNK        -0.5089 
     44 N          21.2545  -29.2662  -39.0390 N.am      7 UNK        -0.4243 
     45 CA         21.2942  -29.7396  -37.6456 C.3       7 UNK         0.0196 
     46 CB         21.9573  -28.7138  -36.7050 C.3       7 UNK        -0.2007 
     47 C          21.9105  -31.1411  -37.4702 C.2       7 UNK         0.5020 
     48 O          21.3625  -31.9397  -36.7107 O.2       7 UNK        -0.5147 
     49 N          23.0104  -31.4300  -38.1782 N.am      8 UNK        -0.4734 
     50 CA         23.6463  -32.7477  -38.2541 C.3       8 UNK         0.0238 
     51 CB         25.0159  -32.6224  -38.9433 C.3       8 UNK        -0.1912 
     52 C          22.7493  -33.7636  -38.9787 C.2       8 UNK         0.5038 
     53 O          22.4586  -34.8236  -38.4235 O.2       8 UNK        -0.5046 
     54 N          22.2961  -33.3891  -40.1824 N.am      9 UNK        -0.4200 
     55 CA         21.3062  -34.0985  -41.0038 C.3       9 UNK         0.0839 
     56 C          21.7290  -35.5107  -41.5108 C.2       9 UNK         0.5513 
     57 N          23.0152  -35.8388  -41.5353 N.am      9 UNK        -0.7519 
     58 O          20.8899  -36.3110  -41.9164 O.2       9 UNK        -0.4960 
     59 C59        19.8834  -34.0407  -40.3649 C.3       10 UNK        -0.0876 
     60 S60        18.6372  -33.4302  -41.5453 S.3       10 UNK        -0.2414 
     61 C61        18.9664  -31.6405  -41.4708 C.3       10 UNK         0.0169 
     62 H62        16.9961  -22.4006  -39.8812 H         1 UNK         0.0903 
     63 H63        15.3712  -23.0800  -39.7587 H         1 UNK         0.0903 
     64 H64        16.7807  -24.1216  -39.5554 H         1 UNK         0.0903 
     65 H65        17.1617  -25.3864  -41.3632 H         1 UNK         0.3096 
     66 H66        15.9671  -24.8198  -43.9107 H         1 UNK         0.1121 
     67 H67        18.0798  -26.9878  -43.4513 H         1 UNK         0.0849 
     68 H68        16.4816  -27.1435  -42.7787 H         1 UNK         0.0849 
     69 H69        15.6375  -29.5389  -45.6240 H         1 UNK         0.0865 
     70 H70        15.3810  -29.1296  -43.9468 H         1 UNK         0.0865 
     71 H71        16.7877  -30.2894  -42.4169 H         1 UNK         0.1346 
     72 H72        20.7306  -31.5449  -43.5244 H         1 UNK         0.1412 
     73 H73        18.2716  -29.4622  -46.3560 H         1 UNK         0.1426 
     74 H74        20.5304  -31.2385  -46.8565 H         1 UNK         0.0716 
     75 H75        21.6832  -30.9187  -45.5852 H         1 UNK         0.0716 
     76 H76        21.2698  -28.2994  -44.4516 H         1 UNK         0.0695 
     77 H77        19.9136  -27.5955  -45.2818 H         1 UNK         0.0695 
     78 H78        21.7119  -26.1439  -46.5894 H         1 UNK         0.0983 
     79 H79        20.5037  -25.7284  -43.9889 H         1 UNK         0.3095 
     80 H80        20.9024  -23.0428  -43.1484 H         1 UNK         0.0454 
     81 H81        19.3199  -21.2538  -43.9216 H         1 UNK         0.0851 
     82 H82        19.3371  -21.9467  -45.5425 H         1 UNK         0.0851 
     83 H83        20.8065  -21.2763  -44.8542 H         1 UNK         0.0851 
     84 H84        19.0378  -24.0548  -42.5110 H         1 UNK         0.2976 
     85 H85        23.6767  -27.4232  -46.8833 H         1 UNK         0.3116 
     86 H86        25.9362  -26.5570  -45.3623 H         1 UNK         0.0646 
     87 H87        27.1814  -28.1266  -46.8567 H         1 UNK         0.0847 
     88 H88        26.0728  -27.1260  -47.7777 H         1 UNK         0.0847 
     89 H89        25.6667  -28.8081  -47.4310 H         1 UNK         0.0847 
     90 H90        23.7984  -29.2875  -44.9902 H         1 UNK         0.3040 
     91 H91        25.4811  -30.3943  -42.7729 H         1 UNK         0.1015 
     92 H92        25.3812  -31.9518  -44.7436 H         1 UNK         0.0786 
     93 H93        23.6212  -31.9514  -44.6493 H         1 UNK         0.0786 
     94 H94        24.5773  -32.6176  -43.3341 H         1 UNK         0.0786 
     95 H95        23.4584  -28.2064  -42.6976 H         1 UNK         0.3172 
     96 H96        21.0134  -29.1406  -41.5651 H         1 UNK         0.0595 
     97 H97        22.5016  -26.4783  -41.2376 H         1 UNK         0.0839 
     98 H98        20.8532  -26.7698  -40.6983 H         1 UNK         0.0839 
     99 H99        21.2340  -26.8420  -42.4064 H         1 UNK         0.0839 
    100 H100       20.3297  -29.2505  -39.4459 H         1 UNK         0.2998 
    101 H101       20.2495  -29.8248  -37.3415 H         1 UNK         0.0822 
    102 H102       23.0219  -28.5962  -36.9085 H         1 UNK         0.0787 
    103 H103       21.4882  -27.7339  -36.7929 H         1 UNK         0.0787 
    104 H104       21.8626  -29.0266  -35.6643 H         1 UNK         0.0787 
    105 H105       23.3951  -30.6874  -38.7565 H         1 UNK         0.3055 
    106 H106       23.8043  -33.1096  -37.2356 H         1 UNK         0.1106 
    107 H107       25.5055  -33.5943  -39.0183 H         1 UNK         0.0828 
    108 H108       24.9304  -32.2195  -39.9534 H         1 UNK         0.0828 
    109 H109       25.6819  -31.9685  -38.3801 H         1 UNK         0.0828 
    110 H110       22.6191  -32.5116  -40.5833 H         1 UNK         0.2931 
    111 H111       21.2914  -33.5065  -41.9194 H         1 UNK         0.0412 
    112 H112       23.7131  -35.1878  -41.2133 H         1 UNK         0.3472 
    113 H113       23.2879  -36.7488  -41.8723 H         1 UNK         0.3472 
    114 H114       19.5707  -35.0158  -39.9870 H         1 UNK         0.0970 
    115 H115       19.8628  -33.3829  -39.4940 H         1 UNK         0.0970 
    116 H116       18.3100  -31.1840  -40.7286 H         1 UNK         0.0612 
    117 H117       19.9879  -31.4577  -41.1329 H         1 UNK         0.0612 
@<TRIPOS>BOND
     1    1    2 1    
     2    1   62 1    
     3    1   63 1    
     4    1   64 1    
     5    2    3 2    
     6    2    4 am   BACKBONE|DICT|INTERRES
     7    4    5 1    
     8    4   65 1    
     9    5    6 1    
    10    5   25 1    
    11    5   66 1    
    12    6    7 1    
    13    6   67 1    
    14    6   68 1    
    15    7    8 1    
    16    8    9 1    
    17    8   69 1    
    18    8   70 1    
    19    9   10 ar   
    20    9   14 ar   
    21   10   11 ar   
    22   10   71 1    
    23   11   12 ar   
    24   11   61 1    
    25   12   13 ar   
    26   12   72 1    
    27   13   14 ar   
    28   13   15 1    
    29   14   73 1    
    30   15   16 1    
    31   15   74 1    
    32   15   75 1    
    33   16   17 1    
    34   17   18 1    
    35   17   76 1    
    36   17   77 1    
    37   18   19 1    
    38   18   27 1    
    39   18   78 1    
    40   19   20 am   BACKBONE|DICT|INTERRES
    41   19   79 1    
    42   20   21 2    
    43   20   22 1    
    44   22   23 1    
    45   22   24 1    
    46   22   80 1    
    47   23   81 1    
    48   23   82 1    
    49   23   83 1    
    50   24   25 am   BACKBONE|DICT|INTERRES
    51   24   84 1    
    52   25   26 2    
    53   27   28 2    
    54   27   29 am   BACKBONE|DICT|INTERRES
    55   29   30 1    
    56   29   85 1    
    57   30   31 1    
    58   30   32 1    
    59   30   86 1    
    60   31   87 1    
    61   31   88 1    
    62   31   89 1    
    63   32   33 2    
    64   32   34 am   BACKBONE|DICT|INTERRES
    65   34   35 1    
    66   34   90 1    
    67   35   36 1    
    68   35   37 1    
    69   35   91 1    
    70   36   92 1    
    71   36   93 1    
    72   36   94 1    
    73   37   38 2    
    74   37   39 am   BACKBONE|DICT|INTERRES
    75   39   40 1    
    76   39   95 1    
    77   40   41 1    
    78   40   42 1    
    79   40   96 1    
    80   41   97 1    
    81   41   98 1    
    82   41   99 1    
    83   42   43 2    
    84   42   44 am   BACKBONE|DICT|INTERRES
    85   44   45 1    
    86   44  100 1    
    87   45   46 1    
    88   45   47 1    
    89   45  101 1    
    90   46  102 1    
    91   46  103 1    
    92   46  104 1    
    93   47   48 2    
    94   47   49 am   BACKBONE|DICT|INTERRES
    95   49   50 1    
    96   49  105 1    
    97   50   51 1    
    98   50   52 1    
    99   50  106 1    
   100   51  107 1    
   101   51  108 1    
   102   51  109 1    
   103   52   53 2    
   104   52   54 am   BACKBONE|DICT|INTERRES
   105   54   55 1    
   106   54  110 1    
   107   55   56 1    
   108   55   59 1    
   109   55  111 1    
   110   56   57 am   BACKBONE|DICT|INTERRES
   111   56   58 2    
   112   57  112 1    
   113   57  113 1    
   114   59   60 1    
   115   59  114 1    
   116   59  115 1    
   117   60   61 1    
   118   61  116 1    
   119   61  117 1    
@<TRIPOS>SUBSTRUCTURE
     1 UNK         1 GROUP             0       ****    0 ROOT    
