@<TRIPOS>MOLECULE
3R8
117   119    1
SMALL
USER_CHARGES


@<TRIPOS>ATOM
      1 CA         13.8013  -25.6994  -47.6428 C.3       0 UNK        -0.2013 
      2 C          15.1529  -25.9001  -46.9733 C.2       0 UNK         0.4866 
      3 O          15.2190  -25.9377  -45.7447 O.2       0 UNK        -0.5176 
      4 N          16.2172  -26.0356  -47.7785 N.am      1 UNK        -0.4884 
      5 CA         17.6200  -26.2192  -47.3701 C.3       1 UNK         0.0853 
      6 C6         17.8662  -27.5079  -46.5278 C.3       10 UNK        -0.0849 
      7 S7         17.1527  -29.0519  -47.1961 S.3       10 UNK        -0.2776 
      8 C8         15.9856  -29.5533  -45.8772 C.3       10 UNK         0.0316 
      9 C9         16.5827  -29.4730  -44.4735 C.ar      10 UNK        -0.0863 
     10 C10        17.7527  -30.1694  -44.1523 C.ar      10 UNK        -0.1009 
     11 C11        18.3336  -30.0322  -42.8881 C.ar      10 UNK        -0.0712 
     12 C12        17.7168  -29.2265  -41.9270 C.ar      10 UNK        -0.0894 
     13 C13        16.5542  -28.5177  -42.2373 C.ar      10 UNK        -0.0745 
     14 C14        15.9891  -28.6497  -43.5096 C.ar      10 UNK        -0.0972 
     15 C15        15.9168  -27.5938  -41.2093 C.3       10 UNK         0.0209 
     16 S16        16.4640  -25.8672  -41.4227 S.3       10 UNK        -0.2568 
     17 C17        18.0572  -25.8307  -40.5273 C.3       10 UNK        -0.0983 
     18 CA         19.2882  -26.0259  -41.4474 C.3       3 UNK         0.0876 
     19 N          19.3014  -25.0921  -42.5847 N.am      3 UNK        -0.4424 
     20 C          20.0399  -25.2640  -43.6877 C.2       2 UNK         0.4918 
     21 O          20.8698  -26.1664  -43.8209 O.2       2 UNK        -0.4875 
     22 CA         19.7829  -24.3082  -44.8565 C.3       2 UNK         0.0481 
     23 CB         21.0681  -23.5858  -45.2934 C.3       2 UNK        -0.1831 
     24 N          19.2967  -25.1614  -45.9298 N.am      2 UNK        -0.4498 
     25 C          18.1843  -24.9677  -46.6469 C.2       1 UNK         0.5027 
     26 O          17.6109  -23.8776  -46.7297 O.2       1 UNK        -0.4969 
     27 C          20.6010  -26.0331  -40.6309 C.2       3 UNK         0.5005 
     28 O          20.8193  -26.9552  -39.8433 O.2       3 UNK        -0.5279 
     29 N          21.4749  -25.0425  -40.8672 N.am      4 UNK        -0.4463 
     30 CA         22.8274  -24.9158  -40.3131 C.3       4 UNK         0.0283 
     31 CB         23.3781  -23.5257  -40.6749 C.3       4 UNK        -0.1875 
     32 C          23.8151  -26.0203  -40.7500 C.2       4 UNK         0.4949 
     33 O          24.9317  -26.0520  -40.2327 O.2       4 UNK        -0.5039 
     34 N          23.4013  -26.9031  -41.6738 N.am      5 UNK        -0.4663 
     35 CA         24.1317  -28.0901  -42.1335 C.3       5 UNK         0.0242 
     36 CB         23.2731  -28.8236  -43.1777 C.3       5 UNK        -0.1982 
     37 C          24.5420  -29.0565  -41.0051 C.2       5 UNK         0.5017 
     38 O          25.6050  -29.6709  -41.1055 O.2       5 UNK        -0.5012 
     39 N          23.7123  -29.1490  -39.9521 N.am      6 UNK        -0.4439 
     40 CA         23.9440  -29.8798  -38.6998 C.3       6 UNK         0.0297 
     41 CB         24.9655  -29.1159  -37.8275 C.3       6 UNK        -0.2006 
     42 C          24.3108  -31.3579  -38.9368 C.2       6 UNK         0.4892 
     43 O          23.4398  -32.1342  -39.3268 O.2       6 UNK        -0.5089 
     44 N          25.5856  -31.7197  -38.7337 N.am      7 UNK        -0.4243 
     45 CA         26.1301  -33.0630  -38.9556 C.3       7 UNK         0.0196 
     46 CB         27.5922  -33.0995  -38.4831 C.3       7 UNK        -0.2007 
     47 C          26.0242  -33.5545  -40.4117 C.2       7 UNK         0.5020 
     48 O          25.9340  -34.7629  -40.6298 O.2       7 UNK        -0.5147 
     49 N          26.0010  -32.6275  -41.3812 N.am      8 UNK        -0.4734 
     50 CA         25.8154  -32.9320  -42.8043 C.3       8 UNK         0.0238 
     51 CB         26.3571  -31.7695  -43.6529 C.3       8 UNK        -0.1912 
     52 C          24.3575  -33.2667  -43.1790 C.2       8 UNK         0.5038 
     53 O          24.1231  -33.7047  -44.3060 O.2       8 UNK        -0.5046 
     54 N          23.4105  -33.0736  -42.2484 N.am      9 UNK        -0.4200 
     55 CA         22.0027  -33.4785  -42.3868 C.3       9 UNK         0.0839 
     56 C          21.7758  -35.0202  -42.3431 C.2       9 UNK         0.5513 
     57 N          22.7261  -35.8184  -41.8676 N.am      9 UNK        -0.7519 
     58 O          20.7267  -35.5032  -42.7597 O.2       9 UNK        -0.4960 
     59 C59        21.1154  -32.7364  -41.3508 C.3       10 UNK        -0.0876 
     60 S60        19.4264  -32.3902  -41.9431 S.3       10 UNK        -0.2414 
     61 C61        19.6583  -30.7032  -42.5728 C.3       10 UNK         0.0169 
     62 H62        13.3659  -24.7506  -47.3303 H         1 UNK         0.0903 
     63 H63        13.8792  -25.6953  -48.7298 H         1 UNK         0.0903 
     64 H64        13.1189  -26.4989  -47.3552 H         1 UNK         0.0903 
     65 H65        16.0769  -25.9714  -48.7772 H         1 UNK         0.3096 
     66 H66        18.1908  -26.3124  -48.2955 H         1 UNK         0.1121 
     67 H67        17.5074  -27.3401  -45.5126 H         1 UNK         0.0849 
     68 H68        18.9350  -27.7042  -46.4304 H         1 UNK         0.0849 
     69 H69        15.0957  -28.9262  -45.9512 H         1 UNK         0.0865 
     70 H70        15.6548  -30.5753  -46.0657 H         1 UNK         0.0865 
     71 H71        18.2314  -30.7875  -44.8998 H         1 UNK         0.1346 
     72 H72        18.1637  -29.1218  -40.9475 H         1 UNK         0.1412 
     73 H73        15.1004  -28.0844  -43.7573 H         1 UNK         0.1426 
     74 H74        16.1289  -27.9346  -40.1948 H         1 UNK         0.0716 
     75 H75        14.8316  -27.6289  -41.3166 H         1 UNK         0.0716 
     76 H76        18.1231  -24.8706  -40.0121 H         1 UNK         0.0695 
     77 H77        18.0393  -26.5900  -39.7431 H         1 UNK         0.0695 
     78 H78        19.2185  -27.0249  -41.8778 H         1 UNK         0.0983 
     79 H79        18.6155  -24.3508  -42.5571 H         1 UNK         0.3095 
     80 H80        19.0300  -23.5708  -44.5698 H         1 UNK         0.0454 
     81 H81        21.4568  -22.9608  -44.4887 H         1 UNK         0.0851 
     82 H82        21.8555  -24.2871  -45.5728 H         1 UNK         0.0851 
     83 H83        20.8823  -22.9362  -46.1488 H         1 UNK         0.0851 
     84 H84        19.7150  -26.0826  -45.9303 H         1 UNK         0.2976 
     85 H85        21.2000  -24.3379  -41.5358 H         1 UNK         0.3116 
     86 H86        22.7447  -24.9785  -39.2262 H         1 UNK         0.0646 
     87 H87        24.3653  -23.3685  -40.2380 H         1 UNK         0.0847 
     88 H88        22.7334  -22.7309  -40.2994 H         1 UNK         0.0847 
     89 H89        23.4771  -23.3992  -41.7538 H         1 UNK         0.0847 
     90 H90        22.4861  -26.7597  -42.0797 H         1 UNK         0.3040 
     91 H91        25.0496  -27.7460  -42.6147 H         1 UNK         0.1015 
     92 H92        23.0656  -28.1864  -44.0379 H         1 UNK         0.0786 
     93 H93        22.3169  -29.1399  -42.7606 H         1 UNK         0.0786 
     94 H94        23.7744  -29.7163  -43.5515 H         1 UNK         0.0786 
     95 H95        22.8554  -28.6119  -39.9914 H         1 UNK         0.3172 
     96 H96        22.9934  -29.8850  -38.1643 H         1 UNK         0.0595 
     97 H97        24.5970  -28.1191  -37.5840 H         1 UNK         0.0839 
     98 H98        25.9270  -28.9904  -38.3269 H         1 UNK         0.0839 
     99 H99        25.1423  -29.6291  -36.8811 H         1 UNK         0.0839 
    100 H100       26.2403  -31.0063  -38.4475 H         1 UNK         0.2998 
    101 H101       25.5530  -33.7557  -38.3393 H         1 UNK         0.0822 
    102 H102       27.6753  -32.8459  -37.4260 H         1 UNK         0.0787 
    103 H103       28.0185  -34.0959  -38.6095 H         1 UNK         0.0787 
    104 H104       28.2157  -32.4044  -39.0470 H         1 UNK         0.0787 
    105 H105       26.0396  -31.6438  -41.1268 H         1 UNK         0.3055 
    106 H106       26.4074  -33.8185  -43.0436 H         1 UNK         0.1106 
    107 H107       25.8085  -30.8459  -43.4770 H         1 UNK         0.0828 
    108 H108       27.4086  -31.5788  -43.4377 H         1 UNK         0.0828 
    109 H109       26.2819  -31.9936  -44.7178 H         1 UNK         0.0828 
    110 H110       23.6838  -32.7330  -41.3340 H         1 UNK         0.2931 
    111 H111       21.6943  -33.1527  -43.3823 H         1 UNK         0.0412 
    112 H112       22.5701  -36.8142  -41.8507 H         1 UNK         0.3472 
    113 H113       23.5963  -35.4388  -41.5251 H         1 UNK         0.3472 
    114 H114       21.5688  -31.7820  -41.0810 H         1 UNK         0.0970 
    115 H115       21.0563  -33.2918  -40.4125 H         1 UNK         0.0970 
    116 H116       20.2873  -30.7345  -43.4640 H         1 UNK         0.0612 
    117 H117       20.1973  -30.1059  -41.8357 H         1 UNK         0.0612 
@<TRIPOS>BOND
     1    1    2 1    
     2    1   62 1    
     3    1   63 1    
     4    1   64 1    
     5    2    3 2    
     6    2    4 am   BACKBONE|DICT|INTERRES
     7    4    5 1    
     8    4   65 1    
     9    5    6 1    
    10    5   25 1    
    11    5   66 1    
    12    6    7 1    
    13    6   67 1    
    14    6   68 1    
    15    7    8 1    
    16    8    9 1    
    17    8   69 1    
    18    8   70 1    
    19    9   10 ar   
    20    9   14 ar   
    21   10   11 ar   
    22   10   71 1    
    23   11   12 ar   
    24   11   61 1    
    25   12   13 ar   
    26   12   72 1    
    27   13   14 ar   
    28   13   15 1    
    29   14   73 1    
    30   15   16 1    
    31   15   74 1    
    32   15   75 1    
    33   16   17 1    
    34   17   18 1    
    35   17   76 1    
    36   17   77 1    
    37   18   19 1    
    38   18   27 1    
    39   18   78 1    
    40   19   20 am   BACKBONE|DICT|INTERRES
    41   19   79 1    
    42   20   21 2    
    43   20   22 1    
    44   22   23 1    
    45   22   24 1    
    46   22   80 1    
    47   23   81 1    
    48   23   82 1    
    49   23   83 1    
    50   24   25 am   BACKBONE|DICT|INTERRES
    51   24   84 1    
    52   25   26 2    
    53   27   28 2    
    54   27   29 am   BACKBONE|DICT|INTERRES
    55   29   30 1    
    56   29   85 1    
    57   30   31 1    
    58   30   32 1    
    59   30   86 1    
    60   31   87 1    
    61   31   88 1    
    62   31   89 1    
    63   32   33 2    
    64   32   34 am   BACKBONE|DICT|INTERRES
    65   34   35 1    
    66   34   90 1    
    67   35   36 1    
    68   35   37 1    
    69   35   91 1    
    70   36   92 1    
    71   36   93 1    
    72   36   94 1    
    73   37   38 2    
    74   37   39 am   BACKBONE|DICT|INTERRES
    75   39   40 1    
    76   39   95 1    
    77   40   41 1    
    78   40   42 1    
    79   40   96 1    
    80   41   97 1    
    81   41   98 1    
    82   41   99 1    
    83   42   43 2    
    84   42   44 am   BACKBONE|DICT|INTERRES
    85   44   45 1    
    86   44  100 1    
    87   45   46 1    
    88   45   47 1    
    89   45  101 1    
    90   46  102 1    
    91   46  103 1    
    92   46  104 1    
    93   47   48 2    
    94   47   49 am   BACKBONE|DICT|INTERRES
    95   49   50 1    
    96   49  105 1    
    97   50   51 1    
    98   50   52 1    
    99   50  106 1    
   100   51  107 1    
   101   51  108 1    
   102   51  109 1    
   103   52   53 2    
   104   52   54 am   BACKBONE|DICT|INTERRES
   105   54   55 1    
   106   54  110 1    
   107   55   56 1    
   108   55   59 1    
   109   55  111 1    
   110   56   57 am   BACKBONE|DICT|INTERRES
   111   56   58 2    
   112   57  112 1    
   113   57  113 1    
   114   59   60 1    
   115   59  114 1    
   116   59  115 1    
   117   60   61 1    
   118   61  116 1    
   119   61  117 1    
@<TRIPOS>SUBSTRUCTURE
     1 UNK         1 GROUP             0       ****    0 ROOT    
