@<TRIPOS>MOLECULE
3R8
117   119    1
SMALL
USER_CHARGES


@<TRIPOS>ATOM
      1 CA         15.7727  -23.5783  -47.5348 C.3       0 UNK        -0.2013 
      2 C          15.6711  -24.6713  -46.4815 C.2       0 UNK         0.4866 
      3 O          14.7678  -24.6292  -45.6462 O.2       0 UNK        -0.5176 
      4 N          16.5970  -25.6408  -46.5146 N.am      1 UNK        -0.4884 
      5 CA         16.6796  -26.8052  -45.6157 C.3       1 UNK         0.0853 
      6 C6         15.4974  -27.8028  -45.7875 C.3       10 UNK        -0.0849 
      7 S7         15.5788  -28.6330  -47.4129 S.3       10 UNK        -0.2776 
      8 C8         16.1265  -30.3197  -46.9675 C.3       10 UNK         0.0316 
      9 C9         17.3421  -30.3286  -46.0462 C.ar      10 UNK        -0.0863 
     10 C10        17.2383  -30.8554  -44.7536 C.ar      10 UNK        -0.1009 
     11 C11        18.3361  -30.8360  -43.8885 C.ar      10 UNK        -0.0712 
     12 C12        19.5405  -30.2789  -44.3243 C.ar      10 UNK        -0.0894 
     13 C13        19.6628  -29.7564  -45.6138 C.ar      10 UNK        -0.0745 
     14 C14        18.5633  -29.7988  -46.4768 C.ar      10 UNK        -0.0972 
     15 C15        20.9797  -29.1515  -46.0783 C.3       10 UNK         0.0209 
     16 S16        21.0726  -27.3719  -45.7033 S.3       10 UNK        -0.2568 
     17 C17        21.8030  -27.3864  -44.0310 C.3       10 UNK        -0.0983 
     18 CA         21.9097  -25.9606  -43.4312 C.3       3 UNK         0.0876 
     19 N          20.5955  -25.3146  -43.2631 N.am      3 UNK        -0.4424 
     20 C          19.5790  -25.6680  -42.4620 C.2       2 UNK         0.4918 
     21 O          19.6411  -26.5590  -41.6154 O.2       2 UNK        -0.4875 
     22 CA         18.2603  -24.9077  -42.6668 C.3       2 UNK         0.0481 
     23 CB         18.4457  -23.3800  -42.6171 C.3       2 UNK        -0.1831 
     24 N          17.6750  -25.3022  -43.9469 N.am      2 UNK        -0.4498 
     25 C          16.9694  -26.4258  -44.1451 C.2       1 UNK         0.5027 
     26 O          16.5868  -27.1563  -43.2293 O.2       1 UNK        -0.4969 
     27 C          22.8392  -25.9191  -42.1914 C.2       3 UNK         0.5005 
     28 O          24.0587  -25.8805  -42.3674 O.2       3 UNK        -0.5279 
     29 N          22.2755  -25.8865  -40.9753 N.am      4 UNK        -0.4463 
     30 CA         22.9375  -25.7260  -39.6760 C.3       4 UNK         0.0283 
     31 CB         23.4299  -24.2703  -39.5094 C.3       4 UNK        -0.1875 
     32 C          24.0260  -26.7916  -39.4467 C.2       4 UNK         0.4949 
     33 O          23.7053  -27.9792  -39.4196 O.2       4 UNK        -0.5039 
     34 N          25.2912  -26.3707  -39.3172 N.am      5 UNK        -0.4663 
     35 CA         26.4528  -27.2464  -39.1301 C.3       5 UNK         0.0242 
     36 CB         27.6907  -26.3817  -38.8415 C.3       5 UNK        -0.1982 
     37 C          26.7254  -28.1990  -40.3104 C.2       5 UNK         0.5017 
     38 O          27.3647  -29.2312  -40.1056 O.2       5 UNK        -0.5012 
     39 N          26.2354  -27.8528  -41.5092 N.am      6 UNK        -0.4439 
     40 CA         26.3527  -28.6658  -42.7202 C.3       6 UNK         0.0297 
     41 CB         26.5242  -27.7307  -43.9307 C.3       6 UNK        -0.2006 
     42 C          25.1545  -29.6114  -42.9294 C.2       6 UNK         0.4892 
     43 O          25.1550  -30.3386  -43.9232 O.2       6 UNK        -0.5089 
     44 N          24.1471  -29.5779  -42.0405 N.am      7 UNK        -0.4243 
     45 CA         22.9130  -30.3547  -42.1754 C.3       7 UNK         0.0196 
     46 CB         21.8534  -29.8499  -41.1775 C.3       7 UNK        -0.2007 
     47 C          23.1283  -31.8645  -42.0090 C.2       7 UNK         0.5020 
     48 O          22.7952  -32.6289  -42.9135 O.2       7 UNK        -0.5147 
     49 N          23.6440  -32.2554  -40.8331 N.am      8 UNK        -0.4734 
     50 CA         23.8204  -33.6377  -40.3567 C.3       8 UNK         0.0238 
     51 CB         24.8715  -34.3818  -41.2084 C.3       8 UNK        -0.1912 
     52 C          22.5010  -34.4343  -40.2184 C.2       8 UNK         0.5038 
     53 O          22.5382  -35.6655  -40.1789 O.2       8 UNK        -0.5046 
     54 N          21.3656  -33.7265  -40.1316 N.am      9 UNK        -0.4200 
     55 CA         20.0131  -34.2949  -39.9978 C.3       9 UNK         0.0839 
     56 C          19.6582  -34.7772  -38.5608 C.2       9 UNK         0.5513 
     57 N          20.4691  -34.5083  -37.5442 N.am      9 UNK        -0.7519 
     58 O          18.6272  -35.4159  -38.3663 O.2       9 UNK        -0.4960 
     59 C59        18.9258  -33.3307  -40.5477 C.3       10 UNK        -0.0876 
     60 S60        19.1516  -32.9595  -42.3199 S.3       10 UNK        -0.2414 
     61 C61        18.2263  -31.4004  -42.4790 C.3       10 UNK         0.0169 
     62 H62        14.8632  -23.5509  -48.1344 H         1 UNK         0.0903 
     63 H63        15.8949  -22.6066  -47.0570 H         1 UNK         0.0903 
     64 H64        16.6163  -23.7344  -48.2069 H         1 UNK         0.0903 
     65 H65        17.3040  -25.6127  -47.2370 H         1 UNK         0.3096 
     66 H66        17.5883  -27.3285  -45.9135 H         1 UNK         0.1121 
     67 H67        14.5384  -27.2918  -45.6963 H         1 UNK         0.0849 
     68 H68        15.4937  -28.5665  -45.0088 H         1 UNK         0.0849 
     69 H69        15.2896  -30.8473  -46.5072 H         1 UNK         0.0865 
     70 H70        16.3652  -30.8676  -47.8801 H         1 UNK         0.0865 
     71 H71        16.2997  -31.2728  -44.4153 H         1 UNK         0.1346 
     72 H72        20.3841  -30.2615  -43.6545 H         1 UNK         0.1412 
     73 H73        18.6469  -29.3917  -47.4755 H         1 UNK         0.1426 
     74 H74        21.8239  -29.6752  -45.6267 H         1 UNK         0.0716 
     75 H75        21.0847  -29.2853  -47.1560 H         1 UNK         0.0716 
     76 H76        21.1957  -28.0257  -43.3925 H         1 UNK         0.0695 
     77 H77        22.7884  -27.8504  -44.1036 H         1 UNK         0.0695 
     78 H78        22.4258  -25.3459  -44.1710 H         1 UNK         0.0983 
     79 H79        20.4336  -24.5474  -43.8984 H         1 UNK         0.3095 
     80 H80        17.5823  -25.1838  -41.8563 H         1 UNK         0.0454 
     81 H81        19.0425  -23.0012  -43.4470 H         1 UNK         0.0851 
     82 H82        17.4825  -22.8704  -42.6470 H         1 UNK         0.0851 
     83 H83        18.9395  -23.0772  -41.6926 H         1 UNK         0.0851 
     84 H84        17.9331  -24.7618  -44.7598 H         1 UNK         0.2976 
     85 H85        21.2688  -26.0319  -40.9472 H         1 UNK         0.3116 
     86 H86        22.1748  -25.9058  -38.9171 H         1 UNK         0.0646 
     87 H87        24.1726  -23.9954  -40.2594 H         1 UNK         0.0847 
     88 H88        22.6013  -23.5680  -39.6008 H         1 UNK         0.0847 
     89 H89        23.8705  -24.1102  -38.5243 H         1 UNK         0.0847 
     90 H90        25.4739  -25.3792  -39.3756 H         1 UNK         0.3040 
     91 H91        26.2585  -27.8712  -38.2553 H         1 UNK         0.1015 
     92 H92        27.9225  -25.7176  -39.6752 H         1 UNK         0.0786 
     93 H93        28.5699  -27.0037  -38.6666 H         1 UNK         0.0786 
     94 H94        27.5491  -25.7687  -37.9511 H         1 UNK         0.0786 
     95 H95        25.6801  -27.0059  -41.5891 H         1 UNK         0.3172 
     96 H96        27.2465  -29.2899  -42.6559 H         1 UNK         0.0595 
     97 H97        26.7058  -28.3005  -44.8430 H         1 UNK         0.0839 
     98 H98        27.3724  -27.0590  -43.7977 H         1 UNK         0.0839 
     99 H99        25.6366  -27.1212  -44.1023 H         1 UNK         0.0839 
    100 H100       24.2179  -28.9685  -41.2332 H         1 UNK         0.2998 
    101 H101       22.5418  -30.1905  -43.1873 H         1 UNK         0.0822 
    102 H102       20.9089  -30.3759  -41.3109 H         1 UNK         0.0787 
    103 H103       22.1591  -30.0024  -40.1423 H         1 UNK         0.0787 
    104 H104       21.6529  -28.7866  -41.2989 H         1 UNK         0.0787 
    105 H105       23.8932  -31.5323  -40.1712 H         1 UNK         0.3055 
    106 H106       24.2200  -33.5596  -39.3443 H         1 UNK         0.1106 
    107 H107       25.7972  -33.8113  -41.2842 H         1 UNK         0.0828 
    108 H108       25.1237  -35.3466  -40.7666 H         1 UNK         0.0828 
    109 H109       24.5121  -34.5738  -42.2197 H         1 UNK         0.0828 
    110 H110       21.4247  -32.7215  -40.1749 H         1 UNK         0.2931 
    111 H111       19.9802  -35.1936  -40.6172 H         1 UNK         0.0412 
    112 H112       20.2269  -34.8317  -36.6205 H         1 UNK         0.3472 
    113 H113       21.3191  -33.9881  -37.6898 H         1 UNK         0.3472 
    114 H114       17.9302  -33.7632  -40.4299 H         1 UNK         0.0970 
    115 H115       18.9235  -32.3998  -39.9777 H         1 UNK         0.0970 
    116 H116       17.1826  -31.5772  -42.2144 H         1 UNK         0.0612 
    117 H117       18.6060  -30.6679  -41.7659 H         1 UNK         0.0612 
@<TRIPOS>BOND
     1    1    2 1    
     2    1   62 1    
     3    1   63 1    
     4    1   64 1    
     5    2    3 2    
     6    2    4 am   BACKBONE|DICT|INTERRES
     7    4    5 1    
     8    4   65 1    
     9    5    6 1    
    10    5   25 1    
    11    5   66 1    
    12    6    7 1    
    13    6   67 1    
    14    6   68 1    
    15    7    8 1    
    16    8    9 1    
    17    8   69 1    
    18    8   70 1    
    19    9   10 ar   
    20    9   14 ar   
    21   10   11 ar   
    22   10   71 1    
    23   11   12 ar   
    24   11   61 1    
    25   12   13 ar   
    26   12   72 1    
    27   13   14 ar   
    28   13   15 1    
    29   14   73 1    
    30   15   16 1    
    31   15   74 1    
    32   15   75 1    
    33   16   17 1    
    34   17   18 1    
    35   17   76 1    
    36   17   77 1    
    37   18   19 1    
    38   18   27 1    
    39   18   78 1    
    40   19   20 am   BACKBONE|DICT|INTERRES
    41   19   79 1    
    42   20   21 2    
    43   20   22 1    
    44   22   23 1    
    45   22   24 1    
    46   22   80 1    
    47   23   81 1    
    48   23   82 1    
    49   23   83 1    
    50   24   25 am   BACKBONE|DICT|INTERRES
    51   24   84 1    
    52   25   26 2    
    53   27   28 2    
    54   27   29 am   BACKBONE|DICT|INTERRES
    55   29   30 1    
    56   29   85 1    
    57   30   31 1    
    58   30   32 1    
    59   30   86 1    
    60   31   87 1    
    61   31   88 1    
    62   31   89 1    
    63   32   33 2    
    64   32   34 am   BACKBONE|DICT|INTERRES
    65   34   35 1    
    66   34   90 1    
    67   35   36 1    
    68   35   37 1    
    69   35   91 1    
    70   36   92 1    
    71   36   93 1    
    72   36   94 1    
    73   37   38 2    
    74   37   39 am   BACKBONE|DICT|INTERRES
    75   39   40 1    
    76   39   95 1    
    77   40   41 1    
    78   40   42 1    
    79   40   96 1    
    80   41   97 1    
    81   41   98 1    
    82   41   99 1    
    83   42   43 2    
    84   42   44 am   BACKBONE|DICT|INTERRES
    85   44   45 1    
    86   44  100 1    
    87   45   46 1    
    88   45   47 1    
    89   45  101 1    
    90   46  102 1    
    91   46  103 1    
    92   46  104 1    
    93   47   48 2    
    94   47   49 am   BACKBONE|DICT|INTERRES
    95   49   50 1    
    96   49  105 1    
    97   50   51 1    
    98   50   52 1    
    99   50  106 1    
   100   51  107 1    
   101   51  108 1    
   102   51  109 1    
   103   52   53 2    
   104   52   54 am   BACKBONE|DICT|INTERRES
   105   54   55 1    
   106   54  110 1    
   107   55   56 1    
   108   55   59 1    
   109   55  111 1    
   110   56   57 am   BACKBONE|DICT|INTERRES
   111   56   58 2    
   112   57  112 1    
   113   57  113 1    
   114   59   60 1    
   115   59  114 1    
   116   59  115 1    
   117   60   61 1    
   118   61  116 1    
   119   61  117 1    
@<TRIPOS>SUBSTRUCTURE
     1 UNK         1 GROUP             0       ****    0 ROOT    
