@<TRIPOS>MOLECULE
3R8
117   119    1
SMALL
USER_CHARGES


@<TRIPOS>ATOM
      1 CA         17.3550  -22.3401  -41.0782 C.3       0 UNK        -0.2013 
      2 C          17.1606  -22.7714  -42.5243 C.2       0 UNK         0.4866 
      3 O          17.2277  -21.9361  -43.4271 O.2       0 UNK        -0.5176 
      4 N          16.9110  -24.0676  -42.7478 N.am      1 UNK        -0.4884 
      5 CA         16.7767  -24.6858  -44.0707 C.3       1 UNK         0.0853 
      6 C6         15.8873  -25.9561  -44.0010 C.3       10 UNK        -0.0849 
      7 S7         16.6593  -27.3583  -43.1212 S.3       10 UNK        -0.2776 
      8 C8         16.6320  -28.6504  -44.4031 C.3       10 UNK         0.0316 
      9 C9         17.7787  -29.6265  -44.2086 C.ar      10 UNK        -0.0863 
     10 C10        17.7541  -30.5388  -43.1492 C.ar      10 UNK        -0.1009 
     11 C11        18.8149  -31.4276  -42.9582 C.ar      10 UNK        -0.0712 
     12 C12        19.8975  -31.4061  -43.8412 C.ar      10 UNK        -0.0894 
     13 C13        19.9305  -30.5022  -44.9069 C.ar      10 UNK        -0.0745 
     14 C14        18.8663  -29.6163  -45.0873 C.ar      10 UNK        -0.0972 
     15 C15        21.1117  -30.5016  -45.8646 C.3       10 UNK         0.0209 
     16 S16        22.6324  -29.9717  -45.0235 S.3       10 UNK        -0.2568 
     17 C17        22.8048  -28.2260  -45.5397 C.3       10 UNK        -0.0983 
     18 CA         21.9988  -27.1215  -44.7839 C.3       3 UNK         0.0876 
     19 N          20.7194  -26.7906  -45.4180 N.am      3 UNK        -0.4424 
     20 C          20.6119  -25.9751  -46.4750 C.2       2 UNK         0.4918 
     21 O          21.5845  -25.5173  -47.0767 O.2       2 UNK        -0.4875 
     22 CA         19.2045  -25.5696  -46.9589 C.3       2 UNK         0.0481 
     23 CB         18.7545  -26.4912  -48.1048 C.3       2 UNK        -0.1831 
     24 N          18.1200  -25.4698  -45.9695 N.am      2 UNK        -0.4498 
     25 C          18.1536  -24.9139  -44.7473 C.2       1 UNK         0.5027 
     26 O          19.1939  -24.5965  -44.1626 O.2       1 UNK        -0.4969 
     27 C          21.8552  -27.2592  -43.2548 C.2       3 UNK         0.5005 
     28 O          22.6220  -27.9902  -42.6287 O.2       3 UNK        -0.5279 
     29 N          20.9200  -26.5091  -42.6469 N.am      4 UNK        -0.4463 
     30 CA         20.6376  -26.5337  -41.2021 C.3       4 UNK         0.0283 
     31 CB         19.4644  -25.5934  -40.8928 C.3       4 UNK        -0.1875 
     32 C          21.8377  -26.1960  -40.2949 C.2       4 UNK         0.4949 
     33 O          21.8816  -26.6638  -39.1575 O.2       4 UNK        -0.5039 
     34 N          22.7952  -25.4148  -40.8144 N.am      5 UNK        -0.4663 
     35 CA         24.0654  -25.1058  -40.1524 C.3       5 UNK         0.0242 
     36 CB         24.7159  -23.9011  -40.8518 C.3       5 UNK        -0.1982 
     37 C          25.0424  -26.2975  -40.1152 C.2       5 UNK         0.5017 
     38 O          25.8840  -26.3481  -39.2175 O.2       5 UNK        -0.5012 
     39 N          24.9249  -27.2207  -41.0803 N.am      6 UNK        -0.4439 
     40 CA         25.7083  -28.4550  -41.1569 C.3       6 UNK         0.0297 
     41 CB         25.9918  -28.7979  -42.6296 C.3       6 UNK        -0.2006 
     42 C          24.9762  -29.6142  -40.4648 C.2       6 UNK         0.4892 
     43 O          25.6216  -30.3930  -39.7626 O.2       6 UNK        -0.5089 
     44 N          23.6507  -29.6899  -40.6696 N.am      7 UNK        -0.4243 
     45 CA         22.7134  -30.6818  -40.1330 C.3       7 UNK         0.0196 
     46 CB         22.5598  -30.5200  -38.6064 C.3       7 UNK        -0.2007 
     47 C          23.0807  -32.1151  -40.5577 C.2       7 UNK         0.5020 
     48 O          23.2350  -32.9991  -39.7122 O.2       7 UNK        -0.5147 
     49 N          23.2063  -32.3186  -41.8780 N.am      8 UNK        -0.4734 
     50 CA         23.6309  -33.5739  -42.5189 C.3       8 UNK         0.0238 
     51 CB         23.7660  -33.3427  -44.0331 C.3       8 UNK        -0.1912 
     52 C          22.7419  -34.8039  -42.2389 C.2       8 UNK         0.5038 
     53 O          23.1767  -35.9270  -42.4978 O.2       8 UNK        -0.5046 
     54 N          21.5333  -34.5781  -41.7104 N.am      9 UNK        -0.4200 
     55 CA         20.6101  -35.6076  -41.2093 C.3       9 UNK         0.0839 
     56 C          21.1278  -36.3639  -39.9504 C.2       9 UNK         0.5513 
     57 N          22.0823  -35.8261  -39.1978 N.am      9 UNK        -0.7519 
     58 O          20.6505  -37.4558  -39.6533 O.2       9 UNK        -0.4960 
     59 C59        19.1915  -35.0359  -40.9372 C.3       10 UNK        -0.0876 
     60 S60        18.5060  -34.1039  -42.3484 S.3       10 UNK        -0.2414 
     61 C61        18.8108  -32.3986  -41.7906 C.3       10 UNK         0.0169 
     62 H62        17.2364  -23.1722  -40.3843 H         1 UNK         0.0903 
     63 H63        18.3537  -21.9258  -40.9426 H         1 UNK         0.0903 
     64 H64        16.6282  -21.5724  -40.8139 H         1 UNK         0.0903 
     65 H65        16.8765  -24.7112  -41.9707 H         1 UNK         0.3096 
     66 H66        16.2526  -23.9693  -44.7080 H         1 UNK         0.1121 
     67 H67        14.9531  -25.7178  -43.4894 H         1 UNK         0.0849 
     68 H68        15.5808  -26.2594  -45.0027 H         1 UNK         0.0849 
     69 H69        15.6797  -29.1814  -44.3626 H         1 UNK         0.0865 
     70 H70        16.6926  -28.2036  -45.3961 H         1 UNK         0.0865 
     71 H71        16.9143  -30.5447  -42.4675 H         1 UNK         0.1346 
     72 H72        20.7174  -32.0958  -43.6994 H         1 UNK         0.1412 
     73 H73        18.8830  -28.9251  -45.9168 H         1 UNK         0.1426 
     74 H74        21.2573  -31.5129  -46.2469 H         1 UNK         0.0716 
     75 H75        20.9202  -29.8698  -46.7332 H         1 UNK         0.0716 
     76 H76        23.8661  -28.0015  -45.4223 H         1 UNK         0.0695 
     77 H77        22.6310  -28.1606  -46.6146 H         1 UNK         0.0695 
     78 H78        22.6118  -26.2202  -44.8627 H         1 UNK         0.0983 
     79 H79        19.8860  -27.1236  -44.9549 H         1 UNK         0.3095 
     80 H80        19.3108  -24.5656  -47.3741 H         1 UNK         0.0454 
     81 H81        18.5330  -27.4988  -47.7542 H         1 UNK         0.0851 
     82 H82        17.8633  -26.1054  -48.6000 H         1 UNK         0.0851 
     83 H83        19.5292  -26.5767  -48.8685 H         1 UNK         0.0851 
     84 H84        17.2091  -25.7137  -46.3296 H         1 UNK         0.2976 
     85 H85        20.3655  -25.8639  -43.2044 H         1 UNK         0.3116 
     86 H86        20.3298  -27.5516  -40.9535 H         1 UNK         0.0646 
     87 H87        19.2485  -25.5688  -39.8236 H         1 UNK         0.0847 
     88 H88        18.5583  -25.9274  -41.3935 H         1 UNK         0.0847 
     89 H89        19.6719  -24.5708  -41.2103 H         1 UNK         0.0847 
     90 H90        22.6635  -25.0551  -41.7485 H         1 UNK         0.3040 
     91 H91        23.8532  -24.8274  -39.1174 H         1 UNK         0.1015 
     92 H92        24.0671  -23.0255  -40.8204 H         1 UNK         0.0786 
     93 H93        24.9445  -24.1144  -41.8968 H         1 UNK         0.0786 
     94 H94        25.6519  -23.6257  -40.3635 H         1 UNK         0.0786 
     95 H95        24.1492  -27.1458  -41.7302 H         1 UNK         0.3172 
     96 H96        26.6688  -28.3133  -40.6566 H         1 UNK         0.0595 
     97 H97        26.5954  -29.7032  -42.7081 H         1 UNK         0.0839 
     98 H98        26.5426  -27.9975  -43.1236 H         1 UNK         0.0839 
     99 H99        25.0751  -28.9708  -43.1943 H         1 UNK         0.0839 
    100 H100       23.2435  -29.0236  -41.3261 H         1 UNK         0.2998 
    101 H101       21.7447  -30.4623  -40.5853 H         1 UNK         0.0822 
    102 H102       22.2659  -29.5030  -38.3455 H         1 UNK         0.0787 
    103 H103       21.7917  -31.1902  -38.2185 H         1 UNK         0.0787 
    104 H104       23.4864  -30.7471  -38.0782 H         1 UNK         0.0787 
    105 H105       23.0753  -31.5262  -42.4926 H         1 UNK         0.3055 
    106 H106       24.6199  -33.8143  -42.1227 H         1 UNK         0.1106 
    107 H107       24.1437  -34.2355  -44.5335 H         1 UNK         0.0828 
    108 H108       22.8085  -33.0955  -44.4920 H         1 UNK         0.0828 
    109 H109       24.4634  -32.5339  -44.2527 H         1 UNK         0.0828 
    110 H110       21.2730  -33.6228  -41.5290 H         1 UNK         0.2931 
    111 H111       20.5154  -36.3537  -42.0007 H         1 UNK         0.0412 
    112 H112       22.4102  -36.3251  -38.3860 H         1 UNK         0.3472 
    113 H113       22.4738  -34.9183  -39.4239 H         1 UNK         0.3472 
    114 H114       19.1937  -34.4005  -40.0492 H         1 UNK         0.0970 
    115 H115       18.4992  -35.8503  -40.7149 H         1 UNK         0.0970 
    116 H116       19.7716  -32.3349  -41.2789 H         1 UNK         0.0612 
    117 H117       18.0526  -32.1229  -41.0559 H         1 UNK         0.0612 
@<TRIPOS>BOND
     1    1    2 1    
     2    1   62 1    
     3    1   63 1    
     4    1   64 1    
     5    2    3 2    
     6    2    4 am   BACKBONE|DICT|INTERRES
     7    4    5 1    
     8    4   65 1    
     9    5    6 1    
    10    5   25 1    
    11    5   66 1    
    12    6    7 1    
    13    6   67 1    
    14    6   68 1    
    15    7    8 1    
    16    8    9 1    
    17    8   69 1    
    18    8   70 1    
    19    9   10 ar   
    20    9   14 ar   
    21   10   11 ar   
    22   10   71 1    
    23   11   12 ar   
    24   11   61 1    
    25   12   13 ar   
    26   12   72 1    
    27   13   14 ar   
    28   13   15 1    
    29   14   73 1    
    30   15   16 1    
    31   15   74 1    
    32   15   75 1    
    33   16   17 1    
    34   17   18 1    
    35   17   76 1    
    36   17   77 1    
    37   18   19 1    
    38   18   27 1    
    39   18   78 1    
    40   19   20 am   BACKBONE|DICT|INTERRES
    41   19   79 1    
    42   20   21 2    
    43   20   22 1    
    44   22   23 1    
    45   22   24 1    
    46   22   80 1    
    47   23   81 1    
    48   23   82 1    
    49   23   83 1    
    50   24   25 am   BACKBONE|DICT|INTERRES
    51   24   84 1    
    52   25   26 2    
    53   27   28 2    
    54   27   29 am   BACKBONE|DICT|INTERRES
    55   29   30 1    
    56   29   85 1    
    57   30   31 1    
    58   30   32 1    
    59   30   86 1    
    60   31   87 1    
    61   31   88 1    
    62   31   89 1    
    63   32   33 2    
    64   32   34 am   BACKBONE|DICT|INTERRES
    65   34   35 1    
    66   34   90 1    
    67   35   36 1    
    68   35   37 1    
    69   35   91 1    
    70   36   92 1    
    71   36   93 1    
    72   36   94 1    
    73   37   38 2    
    74   37   39 am   BACKBONE|DICT|INTERRES
    75   39   40 1    
    76   39   95 1    
    77   40   41 1    
    78   40   42 1    
    79   40   96 1    
    80   41   97 1    
    81   41   98 1    
    82   41   99 1    
    83   42   43 2    
    84   42   44 am   BACKBONE|DICT|INTERRES
    85   44   45 1    
    86   44  100 1    
    87   45   46 1    
    88   45   47 1    
    89   45  101 1    
    90   46  102 1    
    91   46  103 1    
    92   46  104 1    
    93   47   48 2    
    94   47   49 am   BACKBONE|DICT|INTERRES
    95   49   50 1    
    96   49  105 1    
    97   50   51 1    
    98   50   52 1    
    99   50  106 1    
   100   51  107 1    
   101   51  108 1    
   102   51  109 1    
   103   52   53 2    
   104   52   54 am   BACKBONE|DICT|INTERRES
   105   54   55 1    
   106   54  110 1    
   107   55   56 1    
   108   55   59 1    
   109   55  111 1    
   110   56   57 am   BACKBONE|DICT|INTERRES
   111   56   58 2    
   112   57  112 1    
   113   57  113 1    
   114   59   60 1    
   115   59  114 1    
   116   59  115 1    
   117   60   61 1    
   118   61  116 1    
   119   61  117 1    
@<TRIPOS>SUBSTRUCTURE
     1 UNK         1 GROUP             0       ****    0 ROOT    
