@<TRIPOS>MOLECULE
3R8
117   119    1
SMALL
USER_CHARGES


@<TRIPOS>ATOM
      1 CA         15.7703  -25.6117  -48.8933 C.3       0 UNK        -0.2013 
      2 C          15.7709  -26.0483  -47.4354 C.2       0 UNK         0.4866 
      3 O          14.8355  -25.7195  -46.7047 O.2       0 UNK        -0.5176 
      4 N          16.8112  -26.7868  -47.0222 N.am      1 UNK        -0.4884 
      5 CA         17.0578  -27.3022  -45.6653 C.3       1 UNK         0.0853 
      6 C6         15.9547  -28.2857  -45.1692 C.3       10 UNK        -0.0849 
      7 S7         16.0758  -29.8792  -46.0489 S.3       10 UNK        -0.2776 
      8 C8         16.7530  -30.9788  -44.7564 C.3       10 UNK         0.0316 
      9 C9         17.9989  -30.4171  -44.0777 C.ar      10 UNK        -0.0863 
     10 C10        18.0094  -30.2031  -42.6963 C.ar      10 UNK        -0.1009 
     11 C11        19.1500  -29.7028  -42.0611 C.ar      10 UNK        -0.0712 
     12 C12        20.2877  -29.4094  -42.8194 C.ar      10 UNK        -0.0894 
     13 C13        20.2862  -29.6101  -44.2033 C.ar      10 UNK        -0.0745 
     14 C14        19.1426  -30.1206  -44.8241 C.ar      10 UNK        -0.0972 
     15 C15        21.5150  -29.2898  -45.0387 C.3       10 UNK         0.0209 
     16 S16        21.5541  -27.5357  -45.5256 S.3       10 UNK        -0.2568 
     17 C17        22.5000  -26.7852  -44.1565 C.3       10 UNK        -0.0983 
     18 CA         21.7791  -25.5872  -43.4853 C.3       3 UNK         0.0876 
     19 N          20.4462  -25.9655  -42.9984 N.am      3 UNK        -0.4424 
     20 C          19.4948  -25.1267  -42.5667 C.2       2 UNK         0.4918 
     21 O          19.6577  -23.9145  -42.4236 O.2       2 UNK        -0.4875 
     22 CA         18.1292  -25.7773  -42.2709 C.3       2 UNK         0.0481 
     23 CB         17.0505  -24.7619  -41.8388 C.3       2 UNK        -0.1831 
     24 N          17.6651  -26.6022  -43.3949 N.am      2 UNK        -0.4498 
     25 C          17.3999  -26.1901  -44.6468 C.2       1 UNK         0.5027 
     26 O          17.4769  -25.0129  -45.0085 O.2       1 UNK        -0.4969 
     27 C          22.7092  -24.9693  -42.4157 C.2       3 UNK         0.5005 
     28 O          23.7684  -24.4572  -42.7803 O.2       3 UNK        -0.5279 
     29 N          22.3583  -25.0870  -41.1244 N.am      4 UNK        -0.4463 
     30 CA         23.1037  -24.6730  -39.9206 C.3       4 UNK         0.0283 
     31 CB         23.4309  -23.1670  -39.9306 C.3       4 UNK        -0.1875 
     32 C          24.3610  -25.5173  -39.6341 C.2       4 UNK         0.4949 
     33 O          24.6413  -25.8007  -38.4700 O.2       4 UNK        -0.5039 
     34 N          25.0594  -25.9557  -40.6896 N.am      5 UNK        -0.4663 
     35 CA         26.1529  -26.9339  -40.6497 C.3       5 UNK         0.0242 
     36 CB         26.8866  -26.9111  -42.0008 C.3       5 UNK        -0.1982 
     37 C          25.6794  -28.3647  -40.3218 C.2       5 UNK         0.5017 
     38 O          26.5033  -29.1974  -39.9436 O.2       5 UNK        -0.5012 
     39 N          24.3687  -28.6119  -40.4755 N.am      6 UNK        -0.4439 
     40 CA         23.6386  -29.8464  -40.1667 C.3       6 UNK         0.0297 
     41 CB         23.6386  -30.1167  -38.6470 C.3       6 UNK        -0.2006 
     42 C          24.0921  -31.0651  -40.9923 C.2       6 UNK         0.4892 
     43 O          24.1253  -32.1814  -40.4733 O.2       6 UNK        -0.5089 
     44 N          24.4227  -30.8294  -42.2707 N.am      7 UNK        -0.4243 
     45 CA         24.9617  -31.8306  -43.1972 C.3       7 UNK         0.0196 
     46 CB         25.3391  -31.1498  -44.5232 C.3       7 UNK        -0.2007 
     47 C          24.0373  -33.0359  -43.4504 C.2       7 UNK         0.5020 
     48 O          24.5416  -34.1479  -43.6110 O.2       7 UNK        -0.5147 
     49 N          22.7179  -32.8018  -43.4799 N.am      8 UNK        -0.4734 
     50 CA         21.7088  -33.8506  -43.6555 C.3       8 UNK         0.0238 
     51 CB         20.6349  -33.3807  -44.6488 C.3       8 UNK        -0.1912 
     52 C          21.0618  -34.2489  -42.3215 C.2       8 UNK         0.5038 
     53 O          20.8996  -35.4438  -42.0709 O.2       8 UNK        -0.5046 
     54 N          20.6804  -33.2544  -41.5068 N.am      9 UNK        -0.4200 
     55 CA         19.9715  -33.4559  -40.2330 C.3       9 UNK         0.0839 
     56 C          20.8427  -33.9860  -39.0572 C.2       9 UNK         0.5513 
     57 N          22.1667  -33.9158  -39.1133 N.am      9 UNK        -0.7519 
     58 O          20.3000  -34.4907  -38.0775 O.2       9 UNK        -0.4960 
     59 C59        19.1287  -32.2160  -39.8311 C.3       10 UNK        -0.0876 
     60 S60        20.1128  -30.6895  -39.6401 S.3       10 UNK        -0.2414 
     61 C61        19.1405  -29.4559  -40.5590 C.3       10 UNK         0.0169 
     62 H62        14.8804  -25.9882  -49.3971 H         1 UNK         0.0903 
     63 H63        15.7645  -24.5240  -48.9585 H         1 UNK         0.0903 
     64 H64        16.6444  -25.9786  -49.4313 H         1 UNK         0.0903 
     65 H65        17.5450  -26.9930  -47.6857 H         1 UNK         0.3096 
     66 H66        17.9911  -27.8585  -45.7519 H         1 UNK         0.1121 
     67 H67        14.9562  -27.8759  -45.3217 H         1 UNK         0.0849 
     68 H68        16.0143  -28.4808  -44.0985 H         1 UNK         0.0849 
     69 H69        15.9694  -31.1771  -44.0234 H         1 UNK         0.0865 
     70 H70        16.9989  -31.9421  -45.2054 H         1 UNK         0.0865 
     71 H71        17.1279  -30.4293  -42.1115 H         1 UNK         0.1346 
     72 H72        21.1700  -29.0239  -42.3293 H         1 UNK         0.1412 
     73 H73        19.1378  -30.2854  -45.8934 H         1 UNK         0.1426 
     74 H74        21.5163  -29.8990  -45.9440 H         1 UNK         0.0716 
     75 H75        22.4240  -29.5582  -44.5007 H         1 UNK         0.0716 
     76 H76        22.7421  -27.5452  -43.4125 H         1 UNK         0.0695 
     77 H77        23.4567  -26.4668  -44.5761 H         1 UNK         0.0695 
     78 H78        21.6328  -24.8142  -44.2431 H         1 UNK         0.0983 
     79 H79        20.1964  -26.9343  -43.1323 H         1 UNK         0.3095 
     80 H80        18.2875  -26.4592  -41.4343 H         1 UNK         0.0454 
     81 H81        16.1057  -25.2574  -41.6165 H         1 UNK         0.0851 
     82 H82        17.3565  -24.2296  -40.9375 H         1 UNK         0.0851 
     83 H83        16.8627  -24.0118  -42.6076 H         1 UNK         0.0851 
     84 H84        17.6071  -27.5934  -43.2041 H         1 UNK         0.2976 
     85 H85        21.4740  -25.5391  -40.9395 H         1 UNK         0.3116 
     86 H86        22.4216  -24.8473  -39.0867 H         1 UNK         0.0646 
     87 H87        23.8577  -22.8579  -38.9756 H         1 UNK         0.0847 
     88 H88        22.5355  -22.5676  -40.0945 H         1 UNK         0.0847 
     89 H89        24.1550  -22.9075  -40.7032 H         1 UNK         0.0847 
     90 H90        24.7897  -25.5921  -41.5999 H         1 UNK         0.3040 
     91 H91        26.8530  -26.6350  -39.8664 H         1 UNK         0.1015 
     92 H92        27.2912  -25.9216  -42.2151 H         1 UNK         0.0786 
     93 H93        26.2275  -27.1894  -42.8243 H         1 UNK         0.0786 
     94 H94        27.7250  -27.6093  -42.0031 H         1 UNK         0.0786 
     95 H95        23.8052  -27.8346  -40.7862 H         1 UNK         0.3172 
     96 H96        22.6103  -29.6538  -40.4660 H         1 UNK         0.0595 
     97 H97        23.2731  -29.2538  -38.0906 H         1 UNK         0.0839 
     98 H98        24.6363  -30.3574  -38.2788 H         1 UNK         0.0839 
     99 H99        22.9901  -30.9579  -38.3981 H         1 UNK         0.0839 
    100 H100       24.3890  -29.8775  -42.6023 H         1 UNK         0.2998 
    101 H101       25.8772  -32.2199  -42.7463 H         1 UNK         0.0822 
    102 H102       25.7917  -31.8653  -45.2115 H         1 UNK         0.0787 
    103 H103       24.4701  -30.7244  -45.0254 H         1 UNK         0.0787 
    104 H104       26.0646  -30.3508  -44.3686 H         1 UNK         0.0787 
    105 H105       22.3930  -31.8573  -43.3424 H         1 UNK         0.3055 
    106 H106       22.1706  -34.7469  -44.0766 H         1 UNK         0.1106 
    107 H107       21.0751  -33.0340  -45.5838 H         1 UNK         0.0828 
    108 H108       19.9515  -34.1949  -44.8932 H         1 UNK         0.0828 
    109 H109       20.0336  -32.5732  -44.2362 H         1 UNK         0.0828 
    110 H110       20.8474  -32.2959  -41.7683 H         1 UNK         0.2931 
    111 H111       19.2454  -34.2513  -40.4144 H         1 UNK         0.0412 
    112 H112       22.7057  -34.2759  -38.3425 H         1 UNK         0.3472 
    113 H113       22.6430  -33.4419  -39.8717 H         1 UNK         0.3472 
    114 H114       18.5932  -32.4005  -38.8979 H         1 UNK         0.0970 
    115 H115       18.3519  -32.0570  -40.5787 H         1 UNK         0.0970 
    116 H116       18.1206  -29.4420  -40.1713 H         1 UNK         0.0612 
    117 H117       19.5557  -28.4678  -40.3563 H         1 UNK         0.0612 
@<TRIPOS>BOND
     1    1    2 1    
     2    1   62 1    
     3    1   63 1    
     4    1   64 1    
     5    2    3 2    
     6    2    4 am   BACKBONE|DICT|INTERRES
     7    4    5 1    
     8    4   65 1    
     9    5    6 1    
    10    5   25 1    
    11    5   66 1    
    12    6    7 1    
    13    6   67 1    
    14    6   68 1    
    15    7    8 1    
    16    8    9 1    
    17    8   69 1    
    18    8   70 1    
    19    9   10 ar   
    20    9   14 ar   
    21   10   11 ar   
    22   10   71 1    
    23   11   12 ar   
    24   11   61 1    
    25   12   13 ar   
    26   12   72 1    
    27   13   14 ar   
    28   13   15 1    
    29   14   73 1    
    30   15   16 1    
    31   15   74 1    
    32   15   75 1    
    33   16   17 1    
    34   17   18 1    
    35   17   76 1    
    36   17   77 1    
    37   18   19 1    
    38   18   27 1    
    39   18   78 1    
    40   19   20 am   BACKBONE|DICT|INTERRES
    41   19   79 1    
    42   20   21 2    
    43   20   22 1    
    44   22   23 1    
    45   22   24 1    
    46   22   80 1    
    47   23   81 1    
    48   23   82 1    
    49   23   83 1    
    50   24   25 am   BACKBONE|DICT|INTERRES
    51   24   84 1    
    52   25   26 2    
    53   27   28 2    
    54   27   29 am   BACKBONE|DICT|INTERRES
    55   29   30 1    
    56   29   85 1    
    57   30   31 1    
    58   30   32 1    
    59   30   86 1    
    60   31   87 1    
    61   31   88 1    
    62   31   89 1    
    63   32   33 2    
    64   32   34 am   BACKBONE|DICT|INTERRES
    65   34   35 1    
    66   34   90 1    
    67   35   36 1    
    68   35   37 1    
    69   35   91 1    
    70   36   92 1    
    71   36   93 1    
    72   36   94 1    
    73   37   38 2    
    74   37   39 am   BACKBONE|DICT|INTERRES
    75   39   40 1    
    76   39   95 1    
    77   40   41 1    
    78   40   42 1    
    79   40   96 1    
    80   41   97 1    
    81   41   98 1    
    82   41   99 1    
    83   42   43 2    
    84   42   44 am   BACKBONE|DICT|INTERRES
    85   44   45 1    
    86   44  100 1    
    87   45   46 1    
    88   45   47 1    
    89   45  101 1    
    90   46  102 1    
    91   46  103 1    
    92   46  104 1    
    93   47   48 2    
    94   47   49 am   BACKBONE|DICT|INTERRES
    95   49   50 1    
    96   49  105 1    
    97   50   51 1    
    98   50   52 1    
    99   50  106 1    
   100   51  107 1    
   101   51  108 1    
   102   51  109 1    
   103   52   53 2    
   104   52   54 am   BACKBONE|DICT|INTERRES
   105   54   55 1    
   106   54  110 1    
   107   55   56 1    
   108   55   59 1    
   109   55  111 1    
   110   56   57 am   BACKBONE|DICT|INTERRES
   111   56   58 2    
   112   57  112 1    
   113   57  113 1    
   114   59   60 1    
   115   59  114 1    
   116   59  115 1    
   117   60   61 1    
   118   61  116 1    
   119   61  117 1    
@<TRIPOS>SUBSTRUCTURE
     1 UNK         1 GROUP             0       ****    0 ROOT    
