@<TRIPOS>MOLECULE
3R8
117   119    1
SMALL
USER_CHARGES


@<TRIPOS>ATOM
      1 CA         13.9637  -23.2840  -43.4950 C.3       0 UNK        -0.2013 
      2 C          15.0269  -24.2918  -43.0838 C.2       0 UNK         0.4866 
      3 O          15.5455  -24.2057  -41.9707 O.2       0 UNK        -0.5176 
      4 N          15.3481  -25.2380  -43.9783 N.am      1 UNK        -0.4884 
      5 CA         16.3409  -26.3103  -43.8067 C.3       1 UNK         0.0853 
      6 C6         15.9600  -27.3572  -42.7220 C.3       10 UNK        -0.0849 
      7 S7         14.3292  -28.1571  -42.9375 S.3       10 UNK        -0.2776 
      8 C8         14.3413  -28.7584  -44.6651 C.3       10 UNK         0.0316 
      9 C9         15.5830  -29.5610  -45.0478 C.ar      10 UNK        -0.0863 
     10 C10        16.0749  -30.5754  -44.2174 C.ar      10 UNK        -0.1009 
     11 C11        17.2164  -31.2982  -44.5773 C.ar      10 UNK        -0.0712 
     12 C12        17.8501  -31.0232  -45.7914 C.ar      10 UNK        -0.0894 
     13 C13        17.3724  -30.0113  -46.6299 C.ar      10 UNK        -0.0745 
     14 C14        16.2352  -29.2901  -46.2562 C.ar      10 UNK        -0.0972 
     15 C15        18.0946  -29.6898  -47.9328 C.3       10 UNK         0.0209 
     16 S16        19.1353  -28.1967  -47.7996 S.3       10 UNK        -0.2568 
     17 C17        20.3405  -28.7130  -46.5292 C.3       10 UNK        -0.0983 
     18 CA         21.1513  -27.5536  -45.8940 C.3       3 UNK         0.0876 
     19 N          20.2753  -26.4534  -45.4855 N.am      3 UNK        -0.4424 
     20 C          20.6526  -25.2661  -44.9960 C.2       2 UNK         0.4918 
     21 O          21.8280  -24.9167  -44.8787 O.2       2 UNK        -0.4875 
     22 CA         19.5305  -24.2843  -44.5933 C.3       2 UNK         0.0481 
     23 CB         19.4994  -23.0817  -45.5511 C.3       2 UNK        -0.1831 
     24 N          18.1922  -24.8893  -44.5496 N.am      2 UNK        -0.4498 
     25 C          17.7657  -25.7462  -43.6092 C.2       1 UNK         0.5027 
     26 O          18.4444  -26.0822  -42.6375 O.2       1 UNK        -0.4969 
     27 C          21.9568  -28.1226  -44.7052 C.2       3 UNK         0.5005 
     28 O          21.4980  -28.0442  -43.5627 O.2       3 UNK        -0.5279 
     29 N          23.0898  -28.7712  -45.0198 N.am      4 UNK        -0.4463 
     30 CA         23.9096  -29.5934  -44.1190 C.3       4 UNK         0.0283 
     31 CB         23.1574  -30.8953  -43.7636 C.3       4 UNK        -0.1875 
     32 C          24.3954  -28.8272  -42.8741 C.2       4 UNK         0.4949 
     33 O          24.1276  -29.2446  -41.7456 O.2       4 UNK        -0.5039 
     34 N          25.0931  -27.7067  -43.1093 N.am      5 UNK        -0.4663 
     35 CA         25.6709  -26.8399  -42.0760 C.3       5 UNK         0.0242 
     36 CB         26.4042  -25.6682  -42.7478 C.3       5 UNK        -0.1982 
     37 C          26.6200  -27.6044  -41.1353 C.2       5 UNK         0.5017 
     38 O          27.4074  -28.4281  -41.6067 O.2       5 UNK        -0.5012 
     39 N          26.4926  -27.3472  -39.8263 N.am      6 UNK        -0.4439 
     40 CA         27.1604  -28.0044  -38.6901 C.3       6 UNK         0.0297 
     41 CB         28.6951  -27.8845  -38.7756 C.3       6 UNK        -0.2006 
     42 C          26.7279  -29.4650  -38.4436 C.2       6 UNK         0.4892 
     43 O          26.6323  -29.8655  -37.2831 O.2       6 UNK        -0.5089 
     44 N          26.4596  -30.2276  -39.5117 N.am      7 UNK        -0.4243 
     45 CA         25.9485  -31.5999  -39.4639 C.3       7 UNK         0.0196 
     46 CB         26.1187  -32.2537  -40.8443 C.3       7 UNK        -0.2007 
     47 C          24.4827  -31.6808  -39.0034 C.2       7 UNK         0.5020 
     48 O          24.1102  -32.6643  -38.3633 O.2       7 UNK        -0.5147 
     49 N          23.6805  -30.6605  -39.3458 N.am      8 UNK        -0.4734 
     50 CA         22.2653  -30.4750  -38.9934 C.3       8 UNK         0.0238 
     51 CB         22.1216  -30.1842  -37.4844 C.3       8 UNK        -0.1912 
     52 C          21.3678  -31.6338  -39.4710 C.2       8 UNK         0.5038 
     53 O          20.4820  -32.0733  -38.7354 O.2       8 UNK        -0.5046 
     54 N          21.6467  -32.1182  -40.6886 N.am      9 UNK        -0.4200 
     55 CA         21.0275  -33.2896  -41.3349 C.3       9 UNK         0.0839 
     56 C          21.4002  -34.6582  -40.6839 C.2       9 UNK         0.5513 
     57 N          22.3474  -34.7305  -39.7552 N.am      9 UNK        -0.7519 
     58 O          20.8442  -35.6888  -41.0551 O.2       9 UNK        -0.4960 
     59 C59        19.4924  -33.1403  -41.5590 C.3       10 UNK        -0.0876 
     60 S60        19.0507  -31.6719  -42.5512 S.3       10 UNK        -0.2414 
     61 C61        17.7773  -32.3659  -43.6513 C.3       10 UNK         0.0169 
     62 H62        14.3734  -22.2746  -43.4684 H         1 UNK         0.0903 
     63 H63        13.1204  -23.3277  -42.8061 H         1 UNK         0.0903 
     64 H64        13.5886  -23.4713  -44.5010 H         1 UNK         0.0903 
     65 H65        14.8720  -25.2353  -44.8699 H         1 UNK         0.3096 
     66 H66        16.3859  -26.8341  -44.7609 H         1 UNK         0.1121 
     67 H67        16.7104  -28.1497  -42.6862 H         1 UNK         0.0849 
     68 H68        15.9719  -26.8967  -41.7326 H         1 UNK         0.0849 
     69 H69        13.4634  -29.3874  -44.8180 H         1 UNK         0.0865 
     70 H70        14.2144  -27.9020  -45.3288 H         1 UNK         0.0865 
     71 H71        15.5798  -30.7898  -43.2801 H         1 UNK         0.1346 
     72 H72        18.7352  -31.5794  -46.0691 H         1 UNK         0.1412 
     73 H73        15.8659  -28.5105  -46.9089 H         1 UNK         0.1426 
     74 H74        17.3616  -29.5392  -48.7267 H         1 UNK         0.0716 
     75 H75        18.7144  -30.5310  -48.2472 H         1 UNK         0.0716 
     76 H76        21.0098  -29.4487  -46.9795 H         1 UNK         0.0695 
     77 H77        19.7994  -29.2372  -45.7416 H         1 UNK         0.0695 
     78 H78        21.8504  -27.1570  -46.6331 H         1 UNK         0.0983 
     79 H79        19.2884  -26.6445  -45.5528 H         1 UNK         0.3095 
     80 H80        19.7690  -23.9143  -43.5941 H         1 UNK         0.0454 
     81 H81        18.7611  -22.3430  -45.2387 H         1 UNK         0.0851 
     82 H82        19.2636  -23.3839  -46.5722 H         1 UNK         0.0851 
     83 H83        20.4662  -22.5770  -45.5770 H         1 UNK         0.0851 
     84 H84        17.5603  -24.6414  -45.2980 H         1 UNK         0.2976 
     85 H85        23.3874  -28.7654  -45.9862 H         1 UNK         0.3116 
     86 H86        24.8050  -29.8742  -44.6758 H         1 UNK         0.0646 
     87 H87        22.2456  -30.6932  -43.2003 H         1 UNK         0.0847 
     88 H88        23.7780  -31.5576  -43.1605 H         1 UNK         0.0847 
     89 H89        22.8764  -31.4477  -44.6600 H         1 UNK         0.0847 
     90 H90        25.2663  -27.4438  -44.0685 H         1 UNK         0.3040 
     91 H91        24.8396  -26.4410  -41.4906 H         1 UNK         0.1015 
     92 H92        27.2280  -26.0144  -43.3737 H         1 UNK         0.0786 
     93 H93        26.8239  -24.9906  -42.0028 H         1 UNK         0.0786 
     94 H94        25.7296  -25.0822  -43.3726 H         1 UNK         0.0786 
     95 H95        25.7965  -26.6646  -39.5575 H         1 UNK         0.3172 
     96 H96        26.8441  -27.4413  -37.8104 H         1 UNK         0.0595 
     97 H97        29.1073  -28.4590  -39.6055 H         1 UNK         0.0839 
     98 H98        29.1630  -28.2585  -37.8641 H         1 UNK         0.0839 
     99 H99        29.0068  -26.8471  -38.8971 H         1 UNK         0.0839 
    100 H100       26.6008  -29.8142  -40.4277 H         1 UNK         0.2998 
    101 H101       26.5485  -32.1611  -38.7441 H         1 UNK         0.0822 
    102 H102       27.1702  -32.3119  -41.1262 H         1 UNK         0.0787 
    103 H103       25.7251  -33.2713  -40.8484 H         1 UNK         0.0787 
    104 H104       25.5963  -31.6956  -41.6209 H         1 UNK         0.0787 
    105 H105       24.0553  -29.9681  -39.9917 H         1 UNK         0.3055 
    106 H106       21.9266  -29.5905  -39.5361 H         1 UNK         0.1106 
    107 H107       21.0926  -29.9263  -37.2311 H         1 UNK         0.0828 
    108 H108       22.3994  -31.0474  -36.8786 H         1 UNK         0.0828 
    109 H109       22.7489  -29.3462  -37.1809 H         1 UNK         0.0828 
    110 H110       22.4075  -31.6904  -41.1947 H         1 UNK         0.2931 
    111 H111       21.4866  -33.3321  -42.3233 H         1 UNK         0.0412 
    112 H112       22.8152  -33.9013  -39.4086 H         1 UNK         0.3472 
    113 H113       22.5764  -35.6298  -39.3625 H         1 UNK         0.3472 
    114 H114       18.9621  -33.0906  -40.6072 H         1 UNK         0.0970 
    115 H115       19.1029  -34.0250  -42.0658 H         1 UNK         0.0970 
    116 H116       18.2067  -33.1801  -44.2372 H         1 UNK         0.0612 
    117 H117       16.9774  -32.8012  -43.0501 H         1 UNK         0.0612 
@<TRIPOS>BOND
     1    1    2 1    
     2    1   62 1    
     3    1   63 1    
     4    1   64 1    
     5    2    3 2    
     6    2    4 am   BACKBONE|DICT|INTERRES
     7    4    5 1    
     8    4   65 1    
     9    5    6 1    
    10    5   25 1    
    11    5   66 1    
    12    6    7 1    
    13    6   67 1    
    14    6   68 1    
    15    7    8 1    
    16    8    9 1    
    17    8   69 1    
    18    8   70 1    
    19    9   10 ar   
    20    9   14 ar   
    21   10   11 ar   
    22   10   71 1    
    23   11   12 ar   
    24   11   61 1    
    25   12   13 ar   
    26   12   72 1    
    27   13   14 ar   
    28   13   15 1    
    29   14   73 1    
    30   15   16 1    
    31   15   74 1    
    32   15   75 1    
    33   16   17 1    
    34   17   18 1    
    35   17   76 1    
    36   17   77 1    
    37   18   19 1    
    38   18   27 1    
    39   18   78 1    
    40   19   20 am   BACKBONE|DICT|INTERRES
    41   19   79 1    
    42   20   21 2    
    43   20   22 1    
    44   22   23 1    
    45   22   24 1    
    46   22   80 1    
    47   23   81 1    
    48   23   82 1    
    49   23   83 1    
    50   24   25 am   BACKBONE|DICT|INTERRES
    51   24   84 1    
    52   25   26 2    
    53   27   28 2    
    54   27   29 am   BACKBONE|DICT|INTERRES
    55   29   30 1    
    56   29   85 1    
    57   30   31 1    
    58   30   32 1    
    59   30   86 1    
    60   31   87 1    
    61   31   88 1    
    62   31   89 1    
    63   32   33 2    
    64   32   34 am   BACKBONE|DICT|INTERRES
    65   34   35 1    
    66   34   90 1    
    67   35   36 1    
    68   35   37 1    
    69   35   91 1    
    70   36   92 1    
    71   36   93 1    
    72   36   94 1    
    73   37   38 2    
    74   37   39 am   BACKBONE|DICT|INTERRES
    75   39   40 1    
    76   39   95 1    
    77   40   41 1    
    78   40   42 1    
    79   40   96 1    
    80   41   97 1    
    81   41   98 1    
    82   41   99 1    
    83   42   43 2    
    84   42   44 am   BACKBONE|DICT|INTERRES
    85   44   45 1    
    86   44  100 1    
    87   45   46 1    
    88   45   47 1    
    89   45  101 1    
    90   46  102 1    
    91   46  103 1    
    92   46  104 1    
    93   47   48 2    
    94   47   49 am   BACKBONE|DICT|INTERRES
    95   49   50 1    
    96   49  105 1    
    97   50   51 1    
    98   50   52 1    
    99   50  106 1    
   100   51  107 1    
   101   51  108 1    
   102   51  109 1    
   103   52   53 2    
   104   52   54 am   BACKBONE|DICT|INTERRES
   105   54   55 1    
   106   54  110 1    
   107   55   56 1    
   108   55   59 1    
   109   55  111 1    
   110   56   57 am   BACKBONE|DICT|INTERRES
   111   56   58 2    
   112   57  112 1    
   113   57  113 1    
   114   59   60 1    
   115   59  114 1    
   116   59  115 1    
   117   60   61 1    
   118   61  116 1    
   119   61  117 1    
@<TRIPOS>SUBSTRUCTURE
     1 UNK         1 GROUP             0       ****    0 ROOT    
