@<TRIPOS>MOLECULE
3R8
117   119    1
SMALL
USER_CHARGES


@<TRIPOS>ATOM
      1 CA         15.6673  -27.9781  -41.2736 C.3       0 UNK        -0.2013 
      2 C          15.9468  -26.7508  -42.1279 C.2       0 UNK         0.4866 
      3 O          15.8272  -25.6263  -41.6395 O.2       0 UNK        -0.5176 
      4 N          16.3023  -26.9563  -43.4020 N.am      1 UNK        -0.4884 
      5 CA         16.6360  -25.8968  -44.3612 C.3       1 UNK         0.0853 
      6 C6         16.4454  -26.3382  -45.8417 C.3       10 UNK        -0.0849 
      7 S7         14.9327  -27.3469  -46.1247 S.3       10 UNK        -0.2776 
      8 C8         15.5304  -28.9864  -46.6928 C.3       10 UNK         0.0316 
      9 C9         16.8179  -29.4234  -46.0087 C.ar      10 UNK        -0.0863 
     10 C10        16.8111  -29.8924  -44.6913 C.ar      10 UNK        -0.1009 
     11 C11        18.0151  -30.1374  -44.0207 C.ar      10 UNK        -0.0712 
     12 C12        19.2234  -29.9223  -44.6931 C.ar      10 UNK        -0.0894 
     13 C13        19.2430  -29.4732  -46.0151 C.ar      10 UNK        -0.0745 
     14 C14        18.0330  -29.2703  -46.6800 C.ar      10 UNK        -0.0972 
     15 C15        20.5571  -29.1287  -46.7052 C.3       10 UNK         0.0209 
     16 S16        20.5657  -27.3758  -47.2124 S.3       10 UNK        -0.2568 
     17 C17        22.2222  -26.7677  -46.7321 C.3       10 UNK        -0.0983 
     18 CA         22.2546  -25.9294  -45.4210 C.3       3 UNK         0.0876 
     19 N          21.0691  -25.0774  -45.2678 N.am      3 UNK        -0.4424 
     20 C          20.9482  -24.0645  -44.4019 C.2       2 UNK         0.4918 
     21 O          21.8689  -23.6668  -43.6876 O.2       2 UNK        -0.4875 
     22 CA         19.5734  -23.3705  -44.3023 C.3       2 UNK         0.0481 
     23 CB         19.5610  -22.1050  -45.1751 C.3       2 UNK        -0.1831 
     24 N          18.3831  -24.1800  -44.6166 N.am      2 UNK        -0.4498 
     25 C          18.0670  -25.3745  -44.0924 C.2       1 UNK         0.5027 
     26 O          18.8516  -26.0550  -43.4258 O.2       1 UNK        -0.4969 
     27 C          22.5322  -26.8155  -44.1875 C.2       3 UNK         0.5005 
     28 O          23.6974  -27.1265  -43.9265 O.2       3 UNK        -0.5279 
     29 N          21.4741  -27.2364  -43.4723 N.am      4 UNK        -0.4463 
     30 CA         21.4682  -28.0477  -42.2415 C.3       4 UNK         0.0283 
     31 CB         21.9737  -27.2016  -41.0565 C.3       4 UNK        -0.1875 
     32 C          22.2077  -29.4016  -42.3209 C.2       4 UNK         0.4949 
     33 O          22.4329  -30.0277  -41.2844 O.2       4 UNK        -0.5039 
     34 N          22.5963  -29.8150  -43.5365 N.am      5 UNK        -0.4663 
     35 CA         23.4351  -30.9685  -43.8739 C.3       5 UNK         0.0242 
     36 CB         22.6751  -32.2840  -43.6068 C.3       5 UNK        -0.1982 
     37 C          24.8144  -30.8974  -43.1893 C.2       5 UNK         0.5017 
     38 O          25.3252  -31.9197  -42.7346 O.2       5 UNK        -0.5012 
     39 N          25.3644  -29.6745  -43.0886 N.am      6 UNK        -0.4439 
     40 CA         26.5664  -29.3131  -42.3236 C.3       6 UNK         0.0297 
     41 CB         27.8315  -29.9650  -42.9221 C.3       6 UNK        -0.2006 
     42 C          26.3965  -29.5839  -40.8131 C.2       6 UNK         0.4892 
     43 O          27.3105  -30.0975  -40.1663 O.2       6 UNK        -0.5089 
     44 N          25.2084  -29.2323  -40.2984 N.am      7 UNK        -0.4243 
     45 CA         24.7201  -29.4150  -38.9263 C.3       7 UNK         0.0196 
     46 CB         25.6043  -28.6652  -37.9064 C.3       7 UNK        -0.2007 
     47 C          24.4678  -30.8872  -38.5417 C.2       7 UNK         0.5020 
     48 O          24.4650  -31.2076  -37.3520 O.2       7 UNK        -0.5147 
     49 N          24.2330  -31.7563  -39.5353 N.am      8 UNK        -0.4734 
     50 CA         23.8457  -33.1540  -39.3245 C.3       8 UNK         0.0238 
     51 CB         24.3635  -34.0251  -40.4790 C.3       8 UNK        -0.1912 
     52 C          22.3274  -33.3277  -39.1459 C.2       8 UNK         0.5038 
     53 O          21.9198  -34.3336  -38.5625 O.2       8 UNK        -0.5046 
     54 N          21.5174  -32.3711  -39.6278 N.am      9 UNK        -0.4200 
     55 CA         20.0681  -32.3195  -39.3726 C.3       9 UNK         0.0839 
     56 C          19.7567  -32.0842  -37.8684 C.2       9 UNK         0.5513 
     57 N          18.7445  -32.7519  -37.3321 N.am      9 UNK        -0.7519 
     58 O          20.3910  -31.2690  -37.2020 O.2       9 UNK        -0.4960 
     59 C59        19.3601  -31.2424  -40.2330 C.3       10 UNK        -0.0876 
     60 S60        19.3190  -31.6444  -42.0109 S.3       10 UNK        -0.2414 
     61 C61        17.9923  -30.5077  -42.5396 C.3       10 UNK         0.0169 
     62 H62        14.7555  -27.8331  -40.6948 H         1 UNK         0.0903 
     63 H63        15.5368  -28.8732  -41.8802 H         1 UNK         0.0903 
     64 H64        16.4886  -28.1466  -40.5777 H         1 UNK         0.0903 
     65 H65        16.4215  -27.8955  -43.7538 H         1 UNK         0.3096 
     66 H66        15.9495  -25.0669  -44.1775 H         1 UNK         0.1121 
     67 H67        16.3622  -25.4519  -46.4729 H         1 UNK         0.0849 
     68 H68        17.3290  -26.8514  -46.2123 H         1 UNK         0.0849 
     69 H69        14.7514  -29.7295  -46.5162 H         1 UNK         0.0865 
     70 H70        15.6696  -28.9506  -47.7745 H         1 UNK         0.0865 
     71 H71        15.8685  -30.0122  -44.1740 H         1 UNK         0.1346 
     72 H72        20.1507  -30.0785  -44.1717 H         1 UNK         0.1412 
     73 H73        18.0427  -28.8972  -47.6954 H         1 UNK         0.1426 
     74 H74        20.6828  -29.7593  -47.5863 H         1 UNK         0.0716 
     75 H75        21.4035  -29.3351  -46.0517 H         1 UNK         0.0716 
     76 H76        22.5575  -26.1311  -47.5523 H         1 UNK         0.0695 
     77 H77        22.9366  -27.5933  -46.7111 H         1 UNK         0.0695 
     78 H78        23.1149  -25.2595  -45.4912 H         1 UNK         0.0983 
     79 H79        20.2672  -25.3437  -45.8211 H         1 UNK         0.3095 
     80 H80        19.4623  -23.0573  -43.2624 H         1 UNK         0.0454 
     81 H81        20.4142  -21.4635  -44.9490 H         1 UNK         0.0851 
     82 H82        18.6627  -21.5113  -45.0057 H         1 UNK         0.0851 
     83 H83        19.6098  -22.3478  -46.2373 H         1 UNK         0.0851 
     84 H84        17.6849  -23.7156  -45.1798 H         1 UNK         0.2976 
     85 H85        20.5561  -26.8889  -43.7431 H         1 UNK         0.3116 
     86 H86        20.4221  -28.2921  -42.0518 H         1 UNK         0.0646 
     87 H87        23.0285  -26.9464  -41.1617 H         1 UNK         0.0847 
     88 H88        21.4127  -26.2708  -40.9715 H         1 UNK         0.0847 
     89 H89        21.8553  -27.7329  -40.1115 H         1 UNK         0.0847 
     90 H90        22.4022  -29.1827  -44.2984 H         1 UNK         0.3040 
     91 H91        23.6326  -30.9147  -44.9456 H         1 UNK         0.1015 
     92 H92        23.2714  -33.1517  -43.8912 H         1 UNK         0.0786 
     93 H93        21.7504  -32.3261  -44.1824 H         1 UNK         0.0786 
     94 H94        22.4109  -32.3940  -42.5557 H         1 UNK         0.0786 
     95 H95        24.8477  -28.8927  -43.4819 H         1 UNK         0.3172 
     96 H96        26.6765  -28.2325  -42.4267 H         1 UNK         0.0595 
     97 H97        27.8302  -31.0483  -42.7981 H         1 UNK         0.0839 
     98 H98        28.7311  -29.5865  -42.4353 H         1 UNK         0.0839 
     99 H99        27.9246  -29.7487  -43.9862 H         1 UNK         0.0839 
    100 H100       24.5179  -28.8757  -40.9439 H         1 UNK         0.2998 
    101 H101       23.7367  -28.9436  -38.9036 H         1 UNK         0.0822 
    102 H102       25.1407  -28.6564  -36.9193 H         1 UNK         0.0787 
    103 H103       25.7560  -27.6265  -38.1997 H         1 UNK         0.0787 
    104 H104       26.5839  -29.1314  -37.7980 H         1 UNK         0.0787 
    105 H105       24.2303  -31.4146  -40.4880 H         1 UNK         0.3055 
    106 H106       24.3176  -33.5164  -38.4082 H         1 UNK         0.1106 
    107 H107       25.4392  -33.9093  -40.6130 H         1 UNK         0.0828 
    108 H108       24.1726  -35.0812  -40.2841 H         1 UNK         0.0828 
    109 H109       23.8809  -33.7805  -41.4233 H         1 UNK         0.0828 
    110 H110       21.9195  -31.5708  -40.1050 H         1 UNK         0.2931 
    111 H111       19.6573  -33.2925  -39.6510 H         1 UNK         0.0412 
    112 H112       18.5155  -32.6002  -36.3619 H         1 UNK         0.3472 
    113 H113       18.2131  -33.4163  -37.8737 H         1 UNK         0.3472 
    114 H114       18.3260  -31.1194  -39.9033 H         1 UNK         0.0970 
    115 H115       19.8382  -30.2700  -40.1000 H         1 UNK         0.0970 
    116 H116       17.0333  -30.9531  -42.2708 H         1 UNK         0.0612 
    117 H117       18.0801  -29.5801  -41.9732 H         1 UNK         0.0612 
@<TRIPOS>BOND
     1    1    2 1    
     2    1   62 1    
     3    1   63 1    
     4    1   64 1    
     5    2    3 2    
     6    2    4 am   BACKBONE|DICT|INTERRES
     7    4    5 1    
     8    4   65 1    
     9    5    6 1    
    10    5   25 1    
    11    5   66 1    
    12    6    7 1    
    13    6   67 1    
    14    6   68 1    
    15    7    8 1    
    16    8    9 1    
    17    8   69 1    
    18    8   70 1    
    19    9   10 ar   
    20    9   14 ar   
    21   10   11 ar   
    22   10   71 1    
    23   11   12 ar   
    24   11   61 1    
    25   12   13 ar   
    26   12   72 1    
    27   13   14 ar   
    28   13   15 1    
    29   14   73 1    
    30   15   16 1    
    31   15   74 1    
    32   15   75 1    
    33   16   17 1    
    34   17   18 1    
    35   17   76 1    
    36   17   77 1    
    37   18   19 1    
    38   18   27 1    
    39   18   78 1    
    40   19   20 am   BACKBONE|DICT|INTERRES
    41   19   79 1    
    42   20   21 2    
    43   20   22 1    
    44   22   23 1    
    45   22   24 1    
    46   22   80 1    
    47   23   81 1    
    48   23   82 1    
    49   23   83 1    
    50   24   25 am   BACKBONE|DICT|INTERRES
    51   24   84 1    
    52   25   26 2    
    53   27   28 2    
    54   27   29 am   BACKBONE|DICT|INTERRES
    55   29   30 1    
    56   29   85 1    
    57   30   31 1    
    58   30   32 1    
    59   30   86 1    
    60   31   87 1    
    61   31   88 1    
    62   31   89 1    
    63   32   33 2    
    64   32   34 am   BACKBONE|DICT|INTERRES
    65   34   35 1    
    66   34   90 1    
    67   35   36 1    
    68   35   37 1    
    69   35   91 1    
    70   36   92 1    
    71   36   93 1    
    72   36   94 1    
    73   37   38 2    
    74   37   39 am   BACKBONE|DICT|INTERRES
    75   39   40 1    
    76   39   95 1    
    77   40   41 1    
    78   40   42 1    
    79   40   96 1    
    80   41   97 1    
    81   41   98 1    
    82   41   99 1    
    83   42   43 2    
    84   42   44 am   BACKBONE|DICT|INTERRES
    85   44   45 1    
    86   44  100 1    
    87   45   46 1    
    88   45   47 1    
    89   45  101 1    
    90   46  102 1    
    91   46  103 1    
    92   46  104 1    
    93   47   48 2    
    94   47   49 am   BACKBONE|DICT|INTERRES
    95   49   50 1    
    96   49  105 1    
    97   50   51 1    
    98   50   52 1    
    99   50  106 1    
   100   51  107 1    
   101   51  108 1    
   102   51  109 1    
   103   52   53 2    
   104   52   54 am   BACKBONE|DICT|INTERRES
   105   54   55 1    
   106   54  110 1    
   107   55   56 1    
   108   55   59 1    
   109   55  111 1    
   110   56   57 am   BACKBONE|DICT|INTERRES
   111   56   58 2    
   112   57  112 1    
   113   57  113 1    
   114   59   60 1    
   115   59  114 1    
   116   59  115 1    
   117   60   61 1    
   118   61  116 1    
   119   61  117 1    
@<TRIPOS>SUBSTRUCTURE
     1 UNK         1 GROUP             0       ****    0 ROOT    
