@<TRIPOS>MOLECULE
3R8
117   119    1
SMALL
USER_CHARGES


@<TRIPOS>ATOM
      1 CA         16.8007  -27.5313  -41.3428 C.3       0 UNK        -0.2013 
      2 C          16.2104  -26.1236  -41.3389 C.2       0 UNK         0.4866 
      3 O          15.7255  -25.6868  -40.2968 O.2       0 UNK        -0.5176 
      4 N          16.1971  -25.3730  -42.4517 N.am      1 UNK        -0.4884 
      5 CA         16.7577  -25.6423  -43.7857 C.3       1 UNK         0.0853 
      6 C6         16.3056  -26.9973  -44.3896 C.3       10 UNK        -0.0849 
      7 S7         16.1253  -26.9618  -46.2044 S.3       10 UNK        -0.2776 
      8 C8         15.6046  -28.6799  -46.5287 C.3       10 UNK         0.0316 
      9 C9         16.6768  -29.6707  -46.1008 C.ar      10 UNK        -0.0863 
     10 C10        16.5887  -30.3147  -44.8614 C.ar      10 UNK        -0.1009 
     11 C11        17.6212  -31.1479  -44.4243 C.ar      10 UNK        -0.0712 
     12 C12        18.7148  -31.3845  -45.2595 C.ar      10 UNK        -0.0894 
     13 C13        18.8226  -30.7311  -46.4904 C.ar      10 UNK        -0.0745 
     14 C14        17.7925  -29.8877  -46.9144 C.ar      10 UNK        -0.0972 
     15 C15        20.0831  -30.8826  -47.3288 C.3       10 UNK         0.0209 
     16 S16        21.1977  -29.4496  -47.1346 S.3       10 UNK        -0.2568 
     17 C17        21.6824  -29.5804  -45.3769 C.3       10 UNK        -0.0983 
     18 CA         22.0181  -28.2305  -44.7008 C.3       3 UNK         0.0876 
     19 N          21.0377  -27.1751  -44.9952 N.am      3 UNK        -0.4424 
     20 C          21.2759  -25.8678  -44.8235 C.2       2 UNK         0.4918 
     21 O          22.2910  -25.4273  -44.2835 O.2       2 UNK        -0.4875 
     22 CA         20.2075  -24.8857  -45.3302 C.3       2 UNK         0.0481 
     23 CB         20.3793  -24.6458  -46.8386 C.3       2 UNK        -0.1831 
     24 N          18.8239  -25.2853  -45.0550 N.am      2 UNK        -0.4498 
     25 C          18.2899  -25.4364  -43.8353 C.2       1 UNK         0.5027 
     26 O          18.9512  -25.3927  -42.7957 O.2       1 UNK        -0.4969 
     27 C          22.2703  -28.4279  -43.1880 C.2       3 UNK         0.5005 
     28 O          23.2766  -29.0369  -42.8169 O.2       3 UNK        -0.5279 
     29 N          21.3963  -27.8795  -42.3282 N.am      4 UNK        -0.4463 
     30 CA         21.5780  -27.8422  -40.8737 C.3       4 UNK         0.0283 
     31 CB         20.2897  -27.3659  -40.1900 C.3       4 UNK        -0.1875 
     32 C          22.7822  -26.9934  -40.4270 C.2       4 UNK         0.4949 
     33 O          23.2930  -27.2243  -39.3325 O.2       4 UNK        -0.5039 
     34 N          23.2736  -26.0909  -41.2916 N.am      5 UNK        -0.4663 
     35 CA         24.5417  -25.3750  -41.1064 C.3       5 UNK         0.0242 
     36 CB         24.6696  -24.2804  -42.1772 C.3       5 UNK        -0.1982 
     37 C          25.7734  -26.3032  -41.1349 C.2       5 UNK         0.5017 
     38 O          26.7904  -25.9678  -40.5278 O.2       5 UNK        -0.5012 
     39 N          25.6500  -27.4571  -41.8074 N.am      6 UNK        -0.4439 
     40 CA         26.6314  -28.5444  -41.8208 C.3       6 UNK         0.0297 
     41 CB         26.7588  -29.0706  -43.2620 C.3       6 UNK        -0.2006 
     42 C          26.2427  -29.6824  -40.8543 C.2       6 UNK         0.4892 
     43 O          26.9182  -30.7120  -40.8468 O.2       6 UNK        -0.5089 
     44 N          25.1614  -29.4931  -40.0784 N.am      7 UNK        -0.4243 
     45 CA         24.5371  -30.4406  -39.1462 C.3       7 UNK         0.0196 
     46 CB         25.4785  -30.7463  -37.9619 C.3       7 UNK        -0.2007 
     47 C          23.9958  -31.7177  -39.8211 C.2       7 UNK         0.5020 
     48 O          23.8735  -32.7487  -39.1574 O.2       7 UNK        -0.5147 
     49 N          23.6607  -31.6397  -41.1186 N.am      8 UNK        -0.4734 
     50 CA         23.2311  -32.7870  -41.9283 C.3       8 UNK         0.0238 
     51 CB         23.1955  -32.3773  -43.4060 C.3       8 UNK        -0.1912 
     52 C          21.8690  -33.3698  -41.5161 C.2       8 UNK         0.5038 
     53 O          21.6353  -34.5599  -41.7305 O.2       8 UNK        -0.5046 
     54 N          21.0038  -32.5263  -40.9405 N.am      9 UNK        -0.4200 
     55 CA         19.6705  -32.9001  -40.4445 C.3       9 UNK         0.0839 
     56 C          19.6838  -33.6576  -39.0839 C.2       9 UNK         0.5513 
     57 N          20.8190  -33.8093  -38.4100 N.am      9 UNK        -0.7519 
     58 O          18.6403  -34.1226  -38.6332 O.2       9 UNK        -0.4960 
     59 C59        18.6956  -31.6905  -40.4047 C.3       10 UNK        -0.0876 
     60 S60        18.6790  -30.7103  -41.9432 S.3       10 UNK        -0.2414 
     61 C61        17.6121  -31.7212  -43.0176 C.3       10 UNK         0.0169 
     62 H62        17.0192  -27.8511  -40.3243 H         1 UNK         0.0903 
     63 H63        16.0925  -28.2431  -41.7651 H         1 UNK         0.0903 
     64 H64        17.7297  -27.5856  -41.9057 H         1 UNK         0.0903 
     65 H65        15.8032  -24.4461  -42.3641 H         1 UNK         0.3096 
     66 H66        16.3348  -24.8469  -44.4026 H         1 UNK         0.1121 
     67 H67        15.3348  -27.2877  -43.9846 H         1 UNK         0.0849 
     68 H68        17.0035  -27.7876  -44.1146 H         1 UNK         0.0849 
     69 H69        14.6644  -28.8807  -46.0126 H         1 UNK         0.0865 
     70 H70        15.3991  -28.7967  -47.5938 H         1 UNK         0.0865 
     71 H71        15.7466  -30.1195  -44.2115 H         1 UNK         0.1346 
     72 H72        19.5191  -32.0198  -44.9140 H         1 UNK         0.1412 
     73 H73        17.8813  -29.3640  -47.8568 H         1 UNK         0.1426 
     74 H74        19.8119  -30.9814  -48.3809 H         1 UNK         0.0716 
     75 H75        20.6185  -31.7955  -47.0628 H         1 UNK         0.0716 
     76 H76        22.5526  -30.2367  -45.3390 H         1 UNK         0.0695 
     77 H77        20.8977  -30.0780  -44.8122 H         1 UNK         0.0695 
     78 H78        22.9707  -27.8972  -45.1194 H         1 UNK         0.0983 
     79 H79        20.1867  -27.4671  -45.4540 H         1 UNK         0.3095 
     80 H80        20.3756  -23.9349  -44.8199 H         1 UNK         0.0454 
     81 H81        21.3966  -24.3268  -47.0701 H         1 UNK         0.0851 
     82 H82        19.7093  -23.8638  -47.1961 H         1 UNK         0.0851 
     83 H83        20.1819  -25.5487  -47.4181 H         1 UNK         0.0851 
     84 H84        18.2135  -25.3796  -45.8560 H         1 UNK         0.2976 
     85 H85        20.6051  -27.3735  -42.7029 H         1 UNK         0.3116 
     86 H86        21.7708  -28.8644  -40.5412 H         1 UNK         0.0646 
     87 H87        20.4211  -27.2990  -39.1091 H         1 UNK         0.0847 
     88 H88        19.9802  -26.3815  -40.5414 H         1 UNK         0.0847 
     89 H89        19.4759  -28.0670  -40.3663 H         1 UNK         0.0847 
     90 H90        22.7976  -25.9473  -42.1751 H         1 UNK         0.3040 
     91 H91        24.5169  -24.8958  -40.1251 H         1 UNK         0.1015 
     92 H92        25.5763  -23.6924  -42.0278 H         1 UNK         0.0786 
     93 H93        23.8265  -23.5901  -42.1435 H         1 UNK         0.0786 
     94 H94        24.7170  -24.7025  -43.1819 H         1 UNK         0.0786 
     95 H95        24.7653  -27.6661  -42.2577 H         1 UNK         0.3172 
     96 H96        27.6089  -28.1728  -41.5073 H         1 UNK         0.0595 
     97 H97        25.8265  -29.5123  -43.6160 H         1 UNK         0.0839 
     98 H98        27.5293  -29.8395  -43.3324 H         1 UNK         0.0839 
     99 H99        27.0361  -28.2740  -43.9523 H         1 UNK         0.0839 
    100 H100       24.6993  -28.5937  -40.1324 H         1 UNK         0.2998 
    101 H101       23.6624  -29.9295  -38.7416 H         1 UNK         0.0822 
    102 H102       24.9655  -31.3235  -37.1916 H         1 UNK         0.0787 
    103 H103       26.3484  -31.3245  -38.2746 H         1 UNK         0.0787 
    104 H104       25.8351  -29.8295  -37.4924 H         1 UNK         0.0787 
    105 H105       23.7582  -30.7517  -41.6002 H         1 UNK         0.3055 
    106 H106       23.9761  -33.5766  -41.8067 H         1 UNK         0.1106 
    107 H107       24.1371  -31.9304  -43.7260 H         1 UNK         0.0828 
    108 H108       23.0068  -33.2395  -44.0470 H         1 UNK         0.0828 
    109 H109       22.3976  -31.6589  -43.5853 H         1 UNK         0.0828 
    110 H110       21.2790  -31.5651  -40.8121 H         1 UNK         0.2931 
    111 H111       19.2552  -33.6103  -41.1617 H         1 UNK         0.0412 
    112 H112       20.8075  -34.3056  -37.5329 H         1 UNK         0.3472 
    113 H113       21.6914  -33.4501  -38.7731 H         1 UNK         0.3472 
    114 H114       17.6780  -32.0237  -40.1918 H         1 UNK         0.0970 
    115 H115       18.9670  -31.0162  -39.5903 H         1 UNK         0.0970 
    116 H116       17.9721  -32.7507  -43.0369 H         1 UNK         0.0612 
    117 H117       16.5996  -31.7452  -42.6119 H         1 UNK         0.0612 
@<TRIPOS>BOND
     1    1    2 1    
     2    1   62 1    
     3    1   63 1    
     4    1   64 1    
     5    2    3 2    
     6    2    4 am   BACKBONE|DICT|INTERRES
     7    4    5 1    
     8    4   65 1    
     9    5    6 1    
    10    5   25 1    
    11    5   66 1    
    12    6    7 1    
    13    6   67 1    
    14    6   68 1    
    15    7    8 1    
    16    8    9 1    
    17    8   69 1    
    18    8   70 1    
    19    9   10 ar   
    20    9   14 ar   
    21   10   11 ar   
    22   10   71 1    
    23   11   12 ar   
    24   11   61 1    
    25   12   13 ar   
    26   12   72 1    
    27   13   14 ar   
    28   13   15 1    
    29   14   73 1    
    30   15   16 1    
    31   15   74 1    
    32   15   75 1    
    33   16   17 1    
    34   17   18 1    
    35   17   76 1    
    36   17   77 1    
    37   18   19 1    
    38   18   27 1    
    39   18   78 1    
    40   19   20 am   BACKBONE|DICT|INTERRES
    41   19   79 1    
    42   20   21 2    
    43   20   22 1    
    44   22   23 1    
    45   22   24 1    
    46   22   80 1    
    47   23   81 1    
    48   23   82 1    
    49   23   83 1    
    50   24   25 am   BACKBONE|DICT|INTERRES
    51   24   84 1    
    52   25   26 2    
    53   27   28 2    
    54   27   29 am   BACKBONE|DICT|INTERRES
    55   29   30 1    
    56   29   85 1    
    57   30   31 1    
    58   30   32 1    
    59   30   86 1    
    60   31   87 1    
    61   31   88 1    
    62   31   89 1    
    63   32   33 2    
    64   32   34 am   BACKBONE|DICT|INTERRES
    65   34   35 1    
    66   34   90 1    
    67   35   36 1    
    68   35   37 1    
    69   35   91 1    
    70   36   92 1    
    71   36   93 1    
    72   36   94 1    
    73   37   38 2    
    74   37   39 am   BACKBONE|DICT|INTERRES
    75   39   40 1    
    76   39   95 1    
    77   40   41 1    
    78   40   42 1    
    79   40   96 1    
    80   41   97 1    
    81   41   98 1    
    82   41   99 1    
    83   42   43 2    
    84   42   44 am   BACKBONE|DICT|INTERRES
    85   44   45 1    
    86   44  100 1    
    87   45   46 1    
    88   45   47 1    
    89   45  101 1    
    90   46  102 1    
    91   46  103 1    
    92   46  104 1    
    93   47   48 2    
    94   47   49 am   BACKBONE|DICT|INTERRES
    95   49   50 1    
    96   49  105 1    
    97   50   51 1    
    98   50   52 1    
    99   50  106 1    
   100   51  107 1    
   101   51  108 1    
   102   51  109 1    
   103   52   53 2    
   104   52   54 am   BACKBONE|DICT|INTERRES
   105   54   55 1    
   106   54  110 1    
   107   55   56 1    
   108   55   59 1    
   109   55  111 1    
   110   56   57 am   BACKBONE|DICT|INTERRES
   111   56   58 2    
   112   57  112 1    
   113   57  113 1    
   114   59   60 1    
   115   59  114 1    
   116   59  115 1    
   117   60   61 1    
   118   61  116 1    
   119   61  117 1    
@<TRIPOS>SUBSTRUCTURE
     1 UNK         1 GROUP             0       ****    0 ROOT    
