@<TRIPOS>MOLECULE
3R8
117   119    1
SMALL
USER_CHARGES


@<TRIPOS>ATOM
      1 CA         18.7859  -22.1849  -47.0627 C.3       0 UNK        -0.2013 
      2 C          19.4467  -23.5470  -46.9129 C.2       0 UNK         0.4866 
      3 O          20.6730  -23.6409  -46.9633 O.2       0 UNK        -0.5176 
      4 N          18.6437  -24.6042  -46.7271 N.am      1 UNK        -0.4884 
      5 CA         19.1101  -25.9893  -46.5579 C.3       1 UNK         0.0853 
      6 C6         17.9851  -27.0042  -46.8974 C.3       10 UNK        -0.0849 
      7 S7         18.6094  -28.4506  -47.8169 S.3       10 UNK        -0.2776 
      8 C8         17.2178  -29.6147  -47.6569 C.3       10 UNK         0.0316 
      9 C9         17.2251  -30.3064  -46.3026 C.ar      10 UNK        -0.0863 
     10 C10        18.0277  -31.4319  -46.0964 C.ar      10 UNK        -0.1009 
     11 C11        18.0618  -32.0581  -44.8475 C.ar      10 UNK        -0.0712 
     12 C12        17.2881  -31.5535  -43.7988 C.ar      10 UNK        -0.0894 
     13 C13        16.4761  -30.4342  -43.9975 C.ar      10 UNK        -0.0745 
     14 C14        16.4387  -29.8222  -45.2537 C.ar      10 UNK        -0.0972 
     15 C15        15.6426  -29.8734  -42.8585 C.3       10 UNK         0.0209 
     16 S16        16.3948  -28.3636  -42.1805 S.3       10 UNK        -0.2568 
     17 C17        17.7234  -29.0257  -41.1141 C.3       10 UNK        -0.0983 
     18 CA         19.1538  -28.9719  -41.7289 C.3       3 UNK         0.0876 
     19 N          19.5025  -27.7016  -42.3818 N.am      3 UNK        -0.4424 
     20 C          19.4624  -26.4641  -41.8752 C.2       2 UNK         0.4918 
     21 O          19.1166  -26.2075  -40.7212 O.2       2 UNK        -0.4875 
     22 CA         19.8763  -25.3033  -42.7972 C.3       2 UNK         0.0481 
     23 CB         21.3987  -25.0905  -42.7461 C.3       2 UNK        -0.1831 
     24 N          19.3936  -25.3827  -44.1849 N.am      2 UNK        -0.4498 
     25 C          19.7207  -26.2484  -45.1591 C.2       1 UNK         0.5027 
     26 O          20.4683  -27.2125  -44.9923 O.2       1 UNK        -0.4969 
     27 C          20.2027  -29.4032  -40.6796 C.2       3 UNK         0.5005 
     28 O          20.6898  -30.5343  -40.7334 O.2       3 UNK        -0.5279 
     29 N          20.5121  -28.5027  -39.7400 N.am      4 UNK        -0.4463 
     30 CA         21.4631  -28.6624  -38.6451 C.3       4 UNK         0.0283 
     31 CB         20.6932  -28.6367  -37.3147 C.3       4 UNK        -0.1875 
     32 C          22.4943  -27.5268  -38.6937 C.2       4 UNK         0.4949 
     33 O          22.2395  -26.4868  -39.3058 O.2       4 UNK        -0.5039 
     34 N          23.6455  -27.7506  -38.0436 N.am      5 UNK        -0.4663 
     35 CA         24.8450  -26.8962  -37.9716 C.3       5 UNK         0.0242 
     36 CB         24.5358  -25.5009  -37.3926 C.3       5 UNK        -0.1982 
     37 C          25.6135  -26.8028  -39.3026 C.2       5 UNK         0.5017 
     38 O          26.8205  -27.0460  -39.3174 O.2       5 UNK        -0.5012 
     39 N          24.8984  -26.5056  -40.3907 N.am      6 UNK        -0.4439 
     40 CA         25.3303  -26.6959  -41.7723 C.3       6 UNK         0.0297 
     41 CB         25.1544  -25.3857  -42.5543 C.3       6 UNK        -0.2006 
     42 C          24.4767  -27.8258  -42.3633 C.2       6 UNK         0.4892 
     43 O          23.3375  -28.0177  -41.9310 O.2       6 UNK        -0.5089 
     44 N          25.0580  -28.5894  -43.2979 N.am      7 UNK        -0.4243 
     45 CA         24.5629  -29.8563  -43.8640 C.3       7 UNK         0.0196 
     46 CB         23.1783  -29.7063  -44.5298 C.3       7 UNK        -0.2007 
     47 C          24.5794  -31.0128  -42.8453 C.2       7 UNK         0.5020 
     48 O          25.1469  -32.0639  -43.1412 O.2       7 UNK        -0.5147 
     49 N          23.9914  -30.7834  -41.6619 N.am      8 UNK        -0.4734 
     50 CA         23.9545  -31.6531  -40.4765 C.3       8 UNK         0.0238 
     51 CB         25.3696  -31.8210  -39.8846 C.3       8 UNK        -0.1912 
     52 C          23.2355  -32.9997  -40.6911 C.2       8 UNK         0.5038 
     53 O          23.4708  -33.9459  -39.9369 O.2       8 UNK        -0.5046 
     54 N          22.3708  -33.0581  -41.7070 N.am      9 UNK        -0.4200 
     55 CA         21.5496  -34.2176  -42.0693 C.3       9 UNK         0.0839 
     56 C          20.2098  -34.3169  -41.2857 C.2       9 UNK         0.5513 
     57 N          19.7641  -33.2801  -40.5856 N.am      9 UNK        -0.7519 
     58 O          19.5693  -35.3648  -41.3045 O.2       9 UNK        -0.4960 
     59 C59        21.3467  -34.2951  -43.6050 C.3       10 UNK        -0.0876 
     60 S60        20.6607  -32.7609  -44.3201 S.3       10 UNK        -0.2414 
     61 C61        18.9460  -33.2708  -44.6259 C.3       10 UNK         0.0169 
     62 H62        17.6997  -22.2479  -47.0010 H         1 UNK         0.0903 
     63 H63        19.1317  -21.5119  -46.2785 H         1 UNK         0.0903 
     64 H64        19.0453  -21.7466  -48.0261 H         1 UNK         0.0903 
     65 H65        17.6424  -24.4669  -46.7033 H         1 UNK         0.3096 
     66 H66        19.9271  -26.1296  -47.2703 H         1 UNK         0.1121 
     67 H67        17.2295  -26.5426  -47.5354 H         1 UNK         0.0849 
     68 H68        17.4534  -27.3242  -46.0001 H         1 UNK         0.0849 
     69 H69        16.2742  -29.0921  -47.8224 H         1 UNK         0.0865 
     70 H70        17.2915  -30.3624  -48.4481 H         1 UNK         0.0865 
     71 H71        18.6411  -31.8109  -46.9027 H         1 UNK         0.1346 
     72 H72        17.3255  -32.0275  -42.8271 H         1 UNK         0.1412 
     73 H73        15.8107  -28.9548  -45.4046 H         1 UNK         0.1426 
     74 H74        15.5030  -30.6120  -42.0676 H         1 UNK         0.0716 
     75 H75        14.6449  -29.6324  -43.2282 H         1 UNK         0.0716 
     76 H76        17.4788  -30.0517  -40.8335 H         1 UNK         0.0695 
     77 H77        17.6864  -28.4536  -40.1852 H         1 UNK         0.0695 
     78 H78        19.1933  -29.7158  -42.5265 H         1 UNK         0.0983 
     79 H79        19.8555  -27.7826  -43.3323 H         1 UNK         0.3095 
     80 H80        19.4130  -24.4053  -42.3854 H         1 UNK         0.0454 
     81 H81        21.9402  -25.9466  -43.1495 H         1 UNK         0.0851 
     82 H82        21.7365  -24.9535  -41.7177 H         1 UNK         0.0851 
     83 H83        21.6971  -24.2067  -43.3096 H         1 UNK         0.0851 
     84 H84        18.7448  -24.6531  -44.4448 H         1 UNK         0.2976 
     85 H85        20.1244  -27.5677  -39.8465 H         1 UNK         0.3116 
     86 H86        21.9876  -29.6136  -38.7346 H         1 UNK         0.0646 
     87 H87        19.9568  -29.4393  -37.2693 H         1 UNK         0.0847 
     88 H88        21.3655  -28.7673  -36.4659 H         1 UNK         0.0847 
     89 H89        20.1668  -27.6919  -37.1721 H         1 UNK         0.0847 
     90 H90        23.7451  -28.6436  -37.5798 H         1 UNK         0.3040 
     91 H91        25.5136  -27.3929  -37.2660 H         1 UNK         0.1015 
     92 H92        23.9069  -24.9071  -38.0562 H         1 UNK         0.0786 
     93 H93        25.4557  -24.9367  -37.2338 H         1 UNK         0.0786 
     94 H94        24.0308  -25.5749  -36.4295 H         1 UNK         0.0786 
     95 H95        23.8924  -26.4112  -40.2600 H         1 UNK         0.3172 
     96 H96        26.3804  -26.9929  -41.8128 H         1 UNK         0.0595 
     97 H97        24.1327  -25.0147  -42.5019 H         1 UNK         0.0839 
     98 H98        25.4025  -25.5190  -43.6080 H         1 UNK         0.0839 
     99 H99        25.8082  -24.6062  -42.1631 H         1 UNK         0.0839 
    100 H100       26.0014  -28.3488  -43.5709 H         1 UNK         0.2998 
    101 H101       25.2712  -30.1206  -44.6511 H         1 UNK         0.0822 
    102 H102       22.9108  -30.6143  -45.0714 H         1 UNK         0.0787 
    103 H103       22.3837  -29.5228  -43.8058 H         1 UNK         0.0787 
    104 H104       23.1680  -28.8857  -45.2472 H         1 UNK         0.0787 
    105 H105       23.5366  -29.8778  -41.5613 H         1 UNK         0.3055 
    106 H106       23.3535  -31.1257  -39.7372 H         1 UNK         0.1106 
    107 H107       25.3367  -32.3414  -38.9266 H         1 UNK         0.0828 
    108 H108       26.0173  -32.3982  -40.5451 H         1 UNK         0.0828 
    109 H109       25.8433  -30.8550  -39.7093 H         1 UNK         0.0828 
    110 H110       22.2037  -32.2176  -42.2416 H         1 UNK         0.2931 
    111 H111       22.1086  -35.1136  -41.7923 H         1 UNK         0.0412 
    112 H112       18.9025  -33.3676  -40.0722 H         1 UNK         0.3472 
    113 H113       20.2536  -32.3893  -40.6047 H         1 UNK         0.3472 
    114 H114       20.7278  -35.1525  -43.8767 H         1 UNK         0.0970 
    115 H115       22.3110  -34.4738  -44.0832 H         1 UNK         0.0970 
    116 H116       18.5759  -33.8535  -43.7810 H         1 UNK         0.0612 
    117 H117       18.9117  -33.9276  -45.4964 H         1 UNK         0.0612 
@<TRIPOS>BOND
     1    1    2 1    
     2    1   62 1    
     3    1   63 1    
     4    1   64 1    
     5    2    3 2    
     6    2    4 am   BACKBONE|DICT|INTERRES
     7    4    5 1    
     8    4   65 1    
     9    5    6 1    
    10    5   25 1    
    11    5   66 1    
    12    6    7 1    
    13    6   67 1    
    14    6   68 1    
    15    7    8 1    
    16    8    9 1    
    17    8   69 1    
    18    8   70 1    
    19    9   10 ar   
    20    9   14 ar   
    21   10   11 ar   
    22   10   71 1    
    23   11   12 ar   
    24   11   61 1    
    25   12   13 ar   
    26   12   72 1    
    27   13   14 ar   
    28   13   15 1    
    29   14   73 1    
    30   15   16 1    
    31   15   74 1    
    32   15   75 1    
    33   16   17 1    
    34   17   18 1    
    35   17   76 1    
    36   17   77 1    
    37   18   19 1    
    38   18   27 1    
    39   18   78 1    
    40   19   20 am   BACKBONE|DICT|INTERRES
    41   19   79 1    
    42   20   21 2    
    43   20   22 1    
    44   22   23 1    
    45   22   24 1    
    46   22   80 1    
    47   23   81 1    
    48   23   82 1    
    49   23   83 1    
    50   24   25 am   BACKBONE|DICT|INTERRES
    51   24   84 1    
    52   25   26 2    
    53   27   28 2    
    54   27   29 am   BACKBONE|DICT|INTERRES
    55   29   30 1    
    56   29   85 1    
    57   30   31 1    
    58   30   32 1    
    59   30   86 1    
    60   31   87 1    
    61   31   88 1    
    62   31   89 1    
    63   32   33 2    
    64   32   34 am   BACKBONE|DICT|INTERRES
    65   34   35 1    
    66   34   90 1    
    67   35   36 1    
    68   35   37 1    
    69   35   91 1    
    70   36   92 1    
    71   36   93 1    
    72   36   94 1    
    73   37   38 2    
    74   37   39 am   BACKBONE|DICT|INTERRES
    75   39   40 1    
    76   39   95 1    
    77   40   41 1    
    78   40   42 1    
    79   40   96 1    
    80   41   97 1    
    81   41   98 1    
    82   41   99 1    
    83   42   43 2    
    84   42   44 am   BACKBONE|DICT|INTERRES
    85   44   45 1    
    86   44  100 1    
    87   45   46 1    
    88   45   47 1    
    89   45  101 1    
    90   46  102 1    
    91   46  103 1    
    92   46  104 1    
    93   47   48 2    
    94   47   49 am   BACKBONE|DICT|INTERRES
    95   49   50 1    
    96   49  105 1    
    97   50   51 1    
    98   50   52 1    
    99   50  106 1    
   100   51  107 1    
   101   51  108 1    
   102   51  109 1    
   103   52   53 2    
   104   52   54 am   BACKBONE|DICT|INTERRES
   105   54   55 1    
   106   54  110 1    
   107   55   56 1    
   108   55   59 1    
   109   55  111 1    
   110   56   57 am   BACKBONE|DICT|INTERRES
   111   56   58 2    
   112   57  112 1    
   113   57  113 1    
   114   59   60 1    
   115   59  114 1    
   116   59  115 1    
   117   60   61 1    
   118   61  116 1    
   119   61  117 1    
@<TRIPOS>SUBSTRUCTURE
     1 UNK         1 GROUP             0       ****    0 ROOT    
