@<TRIPOS>MOLECULE
3R8
117   119    1
SMALL
USER_CHARGES


@<TRIPOS>ATOM
      1 CA         21.6041  -21.4077  -48.4811 C.3       0 UNK        -0.2013 
      2 C          21.7143  -22.7461  -47.7660 C.2       0 UNK         0.4866 
      3 O          22.7783  -23.3653  -47.7847 O.2       0 UNK        -0.5176 
      4 N          20.6258  -23.1963  -47.1354 N.am      1 UNK        -0.4884 
      5 CA         20.5391  -24.4371  -46.3689 C.3       1 UNK         0.0853 
      6 C6         20.3130  -25.6668  -47.2886 C.3       10 UNK        -0.0849 
      7 S7         20.6515  -27.2538  -46.4538 S.3       10 UNK        -0.2776 
      8 C8         18.9709  -27.9630  -46.3468 C.3       10 UNK         0.0316 
      9 C9         18.8650  -29.2725  -45.5612 C.ar      10 UNK        -0.0863 
     10 C10        19.9487  -30.1480  -45.4025 C.ar      10 UNK        -0.1009 
     11 C11        19.8133  -31.3512  -44.7016 C.ar      10 UNK        -0.0712 
     12 C12        18.5623  -31.6800  -44.1622 C.ar      10 UNK        -0.0894 
     13 C13        17.4710  -30.8217  -44.3093 C.ar      10 UNK        -0.0745 
     14 C14        17.6272  -29.6248  -45.0135 C.ar      10 UNK        -0.0972 
     15 C15        16.1261  -31.1964  -43.7022 C.3       10 UNK         0.0209 
     16 S16        16.0955  -30.9065  -41.9029 S.3       10 UNK        -0.2568 
     17 C17        16.0582  -29.0851  -41.8266 C.3       10 UNK        -0.0983 
     18 CA         17.4746  -28.4727  -41.6944 C.3       3 UNK         0.0876 
     19 N          17.5292  -27.1287  -42.2732 N.am      3 UNK        -0.4424 
     20 C          18.6583  -26.4510  -42.5056 C.2       2 UNK         0.4918 
     21 O          19.7867  -26.8673  -42.2304 O.2       2 UNK        -0.4875 
     22 CA         18.5064  -25.0808  -43.1693 C.3       2 UNK         0.0481 
     23 CB         18.6841  -23.9378  -42.1559 C.3       2 UNK        -0.1831 
     24 N          19.5121  -24.9922  -44.2197 N.am      2 UNK        -0.4498 
     25 C          19.4135  -24.2630  -45.3345 C.2       1 UNK         0.5027 
     26 O          18.4780  -23.4931  -45.5742 O.2       1 UNK        -0.4969 
     27 C          17.9869  -28.4820  -40.2409 C.2       3 UNK         0.5005 
     28 O          17.7673  -27.5131  -39.5098 O.2       3 UNK        -0.5279 
     29 N          18.7009  -29.5547  -39.8721 N.am      4 UNK        -0.4463 
     30 CA         19.4147  -29.7958  -38.6075 C.3       4 UNK         0.0283 
     31 CB         18.4616  -29.7576  -37.3970 C.3       4 UNK        -0.1875 
     32 C          20.6452  -28.8943  -38.3747 C.2       4 UNK         0.4949 
     33 O          21.5858  -29.3358  -37.7140 O.2       4 UNK        -0.5039 
     34 N          20.6365  -27.6690  -38.9134 N.am      5 UNK        -0.4663 
     35 CA         21.7550  -26.7285  -38.8759 C.3       5 UNK         0.0242 
     36 CB         21.2318  -25.3041  -39.1188 C.3       5 UNK        -0.1982 
     37 C          22.8487  -27.0906  -39.8930 C.2       5 UNK         0.5017 
     38 O          24.0290  -27.0607  -39.5419 O.2       5 UNK        -0.5012 
     39 N          22.4451  -27.4142  -41.1300 N.am      6 UNK        -0.4439 
     40 CA         23.3430  -27.8214  -42.2110 C.3       6 UNK         0.0297 
     41 CB         22.5950  -27.7529  -43.5497 C.3       6 UNK        -0.2006 
     42 C          23.8904  -29.2371  -41.9854 C.2       6 UNK         0.4892 
     43 O          23.1276  -30.1390  -41.6335 O.2       6 UNK        -0.5089 
     44 N          25.1945  -29.4146  -42.2242 N.am      7 UNK        -0.4243 
     45 CA         25.8681  -30.7122  -42.1734 C.3       7 UNK         0.0196 
     46 CB         27.3882  -30.4809  -42.1376 C.3       7 UNK        -0.2007 
     47 C          25.4828  -31.5853  -43.3874 C.2       7 UNK         0.5020 
     48 O          25.2311  -31.0367  -44.4601 O.2       7 UNK        -0.5147 
     49 N          25.4629  -32.9207  -43.2736 N.am      8 UNK        -0.4734 
     50 CA         25.7122  -33.7325  -42.0741 C.3       8 UNK         0.0238 
     51 CB         26.2449  -35.1040  -42.5246 C.3       8 UNK        -0.1912 
     52 C          24.4663  -33.9108  -41.1824 C.2       8 UNK         0.5038 
     53 O          24.5750  -34.5424  -40.1309 O.2       8 UNK        -0.5046 
     54 N          23.3144  -33.3898  -41.6238 N.am      9 UNK        -0.4200 
     55 CA         22.0065  -33.5170  -40.9627 C.3       9 UNK         0.0839 
     56 C          21.9369  -32.8633  -39.5564 C.2       9 UNK         0.5513 
     57 N          22.5288  -31.6929  -39.3690 N.am      9 UNK        -0.7519 
     58 O          21.3312  -33.4160  -38.6423 O.2       9 UNK        -0.4960 
     59 C59        20.8554  -32.9866  -41.8563 C.3       10 UNK        -0.0876 
     60 S60        20.8469  -33.7376  -43.5214 S.3       10 UNK        -0.2414 
     61 C61        21.0414  -32.2604  -44.5815 C.3       10 UNK         0.0169 
     62 H62        22.3224  -20.7006  -48.0670 H         1 UNK         0.0903 
     63 H63        21.8194  -21.5305  -49.5422 H         1 UNK         0.0903 
     64 H64        20.6084  -20.9749  -48.3854 H         1 UNK         0.0903 
     65 H65        19.7772  -22.6425  -47.1019 H         1 UNK         0.3096 
     66 H66        21.4778  -24.5616  -45.8231 H         1 UNK         0.1121 
     67 H67        20.9914  -25.6179  -48.1418 H         1 UNK         0.0849 
     68 H68        19.3080  -25.6610  -47.7152 H         1 UNK         0.0849 
     69 H69        18.3140  -27.2185  -45.8942 H         1 UNK         0.0865 
     70 H70        18.5971  -28.1354  -47.3570 H         1 UNK         0.0865 
     71 H71        20.9096  -29.9036  -45.8329 H         1 UNK         0.1346 
     72 H72        18.4175  -32.6039  -43.6220 H         1 UNK         0.1412 
     73 H73        16.7798  -28.9633  -45.1330 H         1 UNK         0.1426 
     74 H74        15.9273  -32.2526  -43.8903 H         1 UNK         0.0716 
     75 H75        15.3137  -30.6467  -44.1801 H         1 UNK         0.0716 
     76 H76        15.4118  -28.7748  -41.0030 H         1 UNK         0.0695 
     77 H77        15.5677  -28.7243  -42.7320 H         1 UNK         0.0695 
     78 H78        18.1723  -29.0699  -42.2851 H         1 UNK         0.0983 
     79 H79        16.6431  -26.6940  -42.4826 H         1 UNK         0.3095 
     80 H80        17.5110  -25.0155  -43.6142 H         1 UNK         0.0454 
     81 H81        19.6967  -23.9104  -41.7538 H         1 UNK         0.0851 
     82 H82        17.9981  -24.0475  -41.3150 H         1 UNK         0.0851 
     83 H83        18.4833  -22.9696  -42.6145 H         1 UNK         0.0851 
     84 H84        20.2818  -25.6413  -44.1109 H         1 UNK         0.2976 
     85 H85        18.8176  -30.2847  -40.5614 H         1 UNK         0.3116 
     86 H86        19.7942  -30.8155  -38.6838 H         1 UNK         0.0646 
     87 H87        18.0702  -28.7568  -37.2139 H         1 UNK         0.0847 
     88 H88        18.9784  -30.0707  -36.4890 H         1 UNK         0.0847 
     89 H89        17.6153  -30.4302  -37.5360 H         1 UNK         0.0847 
     90 H90        19.7908  -27.3712  -39.3871 H         1 UNK         0.3040 
     91 H91        22.2032  -26.7606  -37.8800 H         1 UNK         0.1015 
     92 H92        20.7481  -25.2150  -40.0911 H         1 UNK         0.0786 
     93 H93        22.0456  -24.5783  -39.0897 H         1 UNK         0.0786 
     94 H94        20.5086  -25.0122  -38.3571 H         1 UNK         0.0786 
     95 H95        21.4529  -27.3968  -41.3481 H         1 UNK         0.3172 
     96 H96        24.1764  -27.1165  -42.2480 H         1 UNK         0.0595 
     97 H97        23.2379  -28.0568  -44.3769 H         1 UNK         0.0839 
     98 H98        22.2536  -26.7399  -43.7601 H         1 UNK         0.0839 
     99 H99        21.7237  -28.4098  -43.5583 H         1 UNK         0.0839 
    100 H100       25.7424  -28.6326  -42.5519 H         1 UNK         0.2998 
    101 H101       25.5617  -31.1960  -41.2453 H         1 UNK         0.0822 
    102 H102       27.9313  -31.4248  -42.0789 H         1 UNK         0.0787 
    103 H103       27.7379  -29.9627  -43.0316 H         1 UNK         0.0787 
    104 H104       27.6790  -29.8875  -41.2705 H         1 UNK         0.0787 
    105 H105       25.2260  -33.4482  -44.1020 H         1 UNK         0.3055 
    106 H106       26.4876  -33.2704  -41.4613 H         1 UNK         0.1106 
    107 H107       26.4936  -35.7308  -41.6670 H         1 UNK         0.0828 
    108 H108       25.5114  -35.6473  -43.1218 H         1 UNK         0.0828 
    109 H109       27.1532  -35.0019  -43.1190 H         1 UNK         0.0828 
    110 H110       23.3201  -32.8746  -42.4908 H         1 UNK         0.2931 
    111 H111       21.8386  -34.5865  -40.8199 H         1 UNK         0.0412 
    112 H112       22.4572  -31.2260  -38.4763 H         1 UNK         0.3472 
    113 H113       22.9149  -31.1928  -40.1670 H         1 UNK         0.3472 
    114 H114       20.9161  -31.8998  -41.9467 H         1 UNK         0.0970 
    115 H115       19.8898  -33.1960  -41.3920 H         1 UNK         0.0970 
    116 H116       21.3102  -32.6017  -45.5820 H         1 UNK         0.0612 
    117 H117       21.8895  -31.6769  -44.2179 H         1 UNK         0.0612 
@<TRIPOS>BOND
     1    1    2 1    
     2    1   62 1    
     3    1   63 1    
     4    1   64 1    
     5    2    3 2    
     6    2    4 am   BACKBONE|DICT|INTERRES
     7    4    5 1    
     8    4   65 1    
     9    5    6 1    
    10    5   25 1    
    11    5   66 1    
    12    6    7 1    
    13    6   67 1    
    14    6   68 1    
    15    7    8 1    
    16    8    9 1    
    17    8   69 1    
    18    8   70 1    
    19    9   10 ar   
    20    9   14 ar   
    21   10   11 ar   
    22   10   71 1    
    23   11   12 ar   
    24   11   61 1    
    25   12   13 ar   
    26   12   72 1    
    27   13   14 ar   
    28   13   15 1    
    29   14   73 1    
    30   15   16 1    
    31   15   74 1    
    32   15   75 1    
    33   16   17 1    
    34   17   18 1    
    35   17   76 1    
    36   17   77 1    
    37   18   19 1    
    38   18   27 1    
    39   18   78 1    
    40   19   20 am   BACKBONE|DICT|INTERRES
    41   19   79 1    
    42   20   21 2    
    43   20   22 1    
    44   22   23 1    
    45   22   24 1    
    46   22   80 1    
    47   23   81 1    
    48   23   82 1    
    49   23   83 1    
    50   24   25 am   BACKBONE|DICT|INTERRES
    51   24   84 1    
    52   25   26 2    
    53   27   28 2    
    54   27   29 am   BACKBONE|DICT|INTERRES
    55   29   30 1    
    56   29   85 1    
    57   30   31 1    
    58   30   32 1    
    59   30   86 1    
    60   31   87 1    
    61   31   88 1    
    62   31   89 1    
    63   32   33 2    
    64   32   34 am   BACKBONE|DICT|INTERRES
    65   34   35 1    
    66   34   90 1    
    67   35   36 1    
    68   35   37 1    
    69   35   91 1    
    70   36   92 1    
    71   36   93 1    
    72   36   94 1    
    73   37   38 2    
    74   37   39 am   BACKBONE|DICT|INTERRES
    75   39   40 1    
    76   39   95 1    
    77   40   41 1    
    78   40   42 1    
    79   40   96 1    
    80   41   97 1    
    81   41   98 1    
    82   41   99 1    
    83   42   43 2    
    84   42   44 am   BACKBONE|DICT|INTERRES
    85   44   45 1    
    86   44  100 1    
    87   45   46 1    
    88   45   47 1    
    89   45  101 1    
    90   46  102 1    
    91   46  103 1    
    92   46  104 1    
    93   47   48 2    
    94   47   49 am   BACKBONE|DICT|INTERRES
    95   49   50 1    
    96   49  105 1    
    97   50   51 1    
    98   50   52 1    
    99   50  106 1    
   100   51  107 1    
   101   51  108 1    
   102   51  109 1    
   103   52   53 2    
   104   52   54 am   BACKBONE|DICT|INTERRES
   105   54   55 1    
   106   54  110 1    
   107   55   56 1    
   108   55   59 1    
   109   55  111 1    
   110   56   57 am   BACKBONE|DICT|INTERRES
   111   56   58 2    
   112   57  112 1    
   113   57  113 1    
   114   59   60 1    
   115   59  114 1    
   116   59  115 1    
   117   60   61 1    
   118   61  116 1    
   119   61  117 1    
@<TRIPOS>SUBSTRUCTURE
     1 UNK         1 GROUP             0       ****    0 ROOT    
