@<TRIPOS>MOLECULE
3R8
117   119    1
SMALL
USER_CHARGES


@<TRIPOS>ATOM
      1 CA         18.0681  -23.1274  -46.8582 C.3       0 UNK        -0.2013 
      2 C          17.6959  -24.5752  -46.5765 C.2       0 UNK         0.4866 
      3 O          17.8411  -25.4220  -47.4559 O.2       0 UNK        -0.5176 
      4 N          17.2131  -24.8550  -45.3617 N.am      1 UNK        -0.4884 
      5 CA         16.8166  -26.1648  -44.8428 C.3       1 UNK         0.0853 
      6 C6         15.5382  -26.6993  -45.5514 C.3       10 UNK        -0.0849 
      7 S7         15.0842  -28.4238  -45.1564 S.3       10 UNK        -0.2776 
      8 C8         15.8360  -29.3623  -46.5290 C.3       10 UNK         0.0316 
      9 C9         17.3037  -29.6740  -46.2687 C.ar      10 UNK        -0.0863 
     10 C10        17.6683  -30.8511  -45.6064 C.ar      10 UNK        -0.1009 
     11 C11        19.0147  -31.1429  -45.3643 C.ar      10 UNK        -0.0712 
     12 C12        19.9978  -30.2371  -45.7762 C.ar      10 UNK        -0.0894 
     13 C13        19.6478  -29.0554  -46.4362 C.ar      10 UNK        -0.0745 
     14 C14        18.3004  -28.7938  -46.6989 C.ar      10 UNK        -0.0972 
     15 C15        20.7213  -28.0772  -46.8991 C.3       10 UNK         0.0209 
     16 S16        20.8513  -26.6059  -45.8272 S.3       10 UNK        -0.2568 
     17 C17        21.7664  -27.2512  -44.3868 C.3       10 UNK        -0.0983 
     18 CA         21.2357  -26.7035  -43.0296 C.3       3 UNK         0.0876 
     19 N          19.7917  -26.9267  -42.8449 N.am      3 UNK        -0.4424 
     20 C          19.2013  -28.1242  -42.7068 C.2       2 UNK         0.4918 
     21 O          19.8302  -29.1761  -42.6161 O.2       2 UNK        -0.4875 
     22 CA         17.6630  -28.1675  -42.6385 C.3       2 UNK         0.0481 
     23 CB         17.1845  -29.1143  -41.5235 C.3       2 UNK        -0.1831 
     24 N          17.0368  -26.8571  -42.4261 N.am      2 UNK        -0.4498 
     25 C          16.6251  -25.9496  -43.3247 C.2       1 UNK         0.5027 
     26 O          16.1085  -24.8944  -42.9510 O.2       1 UNK        -0.4969 
     27 C          22.0549  -27.2379  -41.8296 C.2       3 UNK         0.5005 
     28 O          23.1197  -27.8298  -42.0205 O.2       3 UNK        -0.5279 
     29 N          21.5193  -27.0606  -40.6112 N.am      4 UNK        -0.4463 
     30 CA         21.9528  -27.7216  -39.3732 C.3       4 UNK         0.0283 
     31 CB         21.0405  -27.2815  -38.2176 C.3       4 UNK        -0.1875 
     32 C          23.4307  -27.5277  -38.9910 C.2       4 UNK         0.4949 
     33 O          24.0048  -28.4066  -38.3499 O.2       4 UNK        -0.5039 
     34 N          24.0208  -26.3990  -39.4009 N.am      5 UNK        -0.4663 
     35 CA         25.4329  -26.0780  -39.1862 C.3       5 UNK         0.0242 
     36 CB         25.6142  -24.5550  -39.3020 C.3       5 UNK        -0.1982 
     37 C          26.3920  -26.8056  -40.1489 C.2       5 UNK         0.5017 
     38 O          27.5936  -26.8175  -39.8776 O.2       5 UNK        -0.5012 
     39 N          25.8729  -27.3617  -41.2534 N.am      6 UNK        -0.4439 
     40 CA         26.6585  -27.9783  -42.3242 C.3       6 UNK         0.0297 
     41 CB         26.4642  -27.1766  -43.6236 C.3       6 UNK        -0.2006 
     42 C          26.2837  -29.4513  -42.5311 C.2       6 UNK         0.4892 
     43 O          27.1686  -30.3071  -42.4959 O.2       6 UNK        -0.5089 
     44 N          24.9933  -29.7207  -42.7659 N.am      7 UNK        -0.4243 
     45 CA         24.4676  -31.0551  -43.0539 C.3       7 UNK         0.0196 
     46 CB         23.1942  -30.9310  -43.9048 C.3       7 UNK        -0.2007 
     47 C          24.1752  -31.8422  -41.7721 C.2       7 UNK         0.5020 
     48 O          24.4998  -33.0278  -41.7071 O.2       7 UNK        -0.5147 
     49 N          23.5574  -31.1674  -40.7895 N.am      8 UNK        -0.4734 
     50 CA         23.1415  -31.6973  -39.4812 C.3       8 UNK         0.0238 
     51 CB         24.3782  -32.0010  -38.6084 C.3       8 UNK        -0.1912 
     52 C          22.1643  -32.8916  -39.5683 C.2       8 UNK         0.5038 
     53 O          22.1912  -33.7657  -38.6990 O.2       8 UNK        -0.5046 
     54 N          21.3280  -32.9165  -40.6155 N.am      9 UNK        -0.4200 
     55 CA         20.3020  -33.9431  -40.8484 C.3       9 UNK         0.0839 
     56 C          19.1225  -33.8812  -39.8353 C.2       9 UNK         0.5513 
     57 N          18.3822  -34.9718  -39.6858 N.am      9 UNK        -0.7519 
     58 O          18.8584  -32.8609  -39.2015 O.2       9 UNK        -0.4960 
     59 C59        19.8228  -33.9517  -42.3263 C.3       10 UNK        -0.0876 
     60 S60        19.1069  -32.3682  -42.8840 S.3       10 UNK        -0.2414 
     61 C61        19.4082  -32.4427  -44.6748 C.3       10 UNK         0.0169 
     62 H62        17.8748  -22.4811  -46.0022 H         1 UNK         0.0903 
     63 H63        19.1272  -23.0559  -47.1049 H         1 UNK         0.0903 
     64 H64        17.4946  -22.7503  -47.7045 H         1 UNK         0.0903 
     65 H65        17.0882  -24.1136  -44.6814 H         1 UNK         0.3096 
     66 H66        17.6528  -26.8403  -45.0131 H         1 UNK         0.1121 
     67 H67        14.6842  -26.0632  -45.3107 H         1 UNK         0.0849 
     68 H68        15.6479  -26.6256  -46.6334 H         1 UNK         0.0849 
     69 H69        15.2833  -30.2949  -46.6535 H         1 UNK         0.0865 
     70 H70        15.7185  -28.8211  -47.4690 H         1 UNK         0.0865 
     71 H71        16.9050  -31.5427  -45.2764 H         1 UNK         0.1346 
     72 H72        21.0379  -30.4546  -45.5862 H         1 UNK         0.1412 
     73 H73        18.0265  -27.8922  -47.2269 H         1 UNK         0.1426 
     74 H74        20.4854  -27.7453  -47.9112 H         1 UNK         0.0716 
     75 H75        21.6939  -28.5679  -46.9614 H         1 UNK         0.0716 
     76 H76        21.7250  -28.3401  -44.3969 H         1 UNK         0.0695 
     77 H77        22.8167  -26.9870  -44.5221 H         1 UNK         0.0695 
     78 H78        21.3844  -25.6226  -43.0314 H         1 UNK         0.0983 
     79 H79        19.2108  -26.1024  -42.8707 H         1 UNK         0.3095 
     80 H80        17.3339  -28.5921  -43.5830 H         1 UNK         0.0454 
     81 H81        17.5581  -30.1269  -41.6781 H         1 UNK         0.0851 
     82 H82        17.5268  -28.7893  -40.5405 H         1 UNK         0.0851 
     83 H83        16.0967  -29.1797  -41.4992 H         1 UNK         0.0851 
     84 H84        16.8892  -26.6214  -41.4552 H         1 UNK         0.2976 
     85 H85        20.6489  -26.5517  -40.5584 H         1 UNK         0.3116 
     86 H86        21.8010  -28.7904  -39.5278 H         1 UNK         0.0646 
     87 H87        21.3202  -27.7784  -37.2873 H         1 UNK         0.0847 
     88 H88        19.9982  -27.5339  -38.4136 H         1 UNK         0.0847 
     89 H89        21.1008  -26.2066  -38.0426 H         1 UNK         0.0847 
     90 H90        23.4707  -25.7331  -39.9241 H         1 UNK         0.3040 
     91 H91        25.7079  -26.3777  -38.1721 H         1 UNK         0.1015 
     92 H92        24.9943  -24.0250  -38.5785 H         1 UNK         0.0786 
     93 H93        25.3561  -24.1919  -40.2976 H         1 UNK         0.0786 
     94 H94        26.6490  -24.2682  -39.1092 H         1 UNK         0.0786 
     95 H95        24.8635  -27.3614  -41.3735 H         1 UNK         0.3172 
     96 H96        27.7228  -27.9533  -42.0811 H         1 UNK         0.0595 
     97 H97        27.0143  -27.6301  -44.4494 H         1 UNK         0.0839 
     98 H98        26.8302  -26.1557  -43.5139 H         1 UNK         0.0839 
     99 H99        25.4155  -27.1236  -43.9187 H         1 UNK         0.0839 
    100 H100       24.3133  -28.9651  -42.7052 H         1 UNK         0.2998 
    101 H101       25.2073  -31.6127  -43.6331 H         1 UNK         0.0822 
    102 H102       22.3981  -30.4074  -43.3729 H         1 UNK         0.0787 
    103 H103       23.3911  -30.3925  -44.8319 H         1 UNK         0.0787 
    104 H104       22.8109  -31.9158  -44.1750 H         1 UNK         0.0787 
    105 H105       23.3404  -30.1949  -40.9623 H         1 UNK         0.3055 
    106 H106       22.5856  -30.9030  -38.9832 H         1 UNK         0.1106 
    107 H107       24.9595  -32.8340  -39.0046 H         1 UNK         0.0828 
    108 H108       25.0355  -31.1339  -38.5406 H         1 UNK         0.0828 
    109 H109       24.0864  -32.2621  -37.5905 H         1 UNK         0.0828 
    110 H110       21.3350  -32.1453  -41.2664 H         1 UNK         0.2931 
    111 H111       20.7936  -34.9034  -40.6780 H         1 UNK         0.0412 
    112 H112       17.6074  -34.9524  -39.0408 H         1 UNK         0.3472 
    113 H113       18.5858  -35.8168  -40.1971 H         1 UNK         0.3472 
    114 H114       19.0889  -34.7425  -42.4912 H         1 UNK         0.0970 
    115 H115       20.6684  -34.1997  -42.9696 H         1 UNK         0.0970 
    116 H116       20.4614  -32.6619  -44.8552 H         1 UNK         0.0612 
    117 H117       18.8408  -33.2714  -45.1008 H         1 UNK         0.0612 
@<TRIPOS>BOND
     1    1    2 1    
     2    1   62 1    
     3    1   63 1    
     4    1   64 1    
     5    2    3 2    
     6    2    4 am   BACKBONE|DICT|INTERRES
     7    4    5 1    
     8    4   65 1    
     9    5    6 1    
    10    5   25 1    
    11    5   66 1    
    12    6    7 1    
    13    6   67 1    
    14    6   68 1    
    15    7    8 1    
    16    8    9 1    
    17    8   69 1    
    18    8   70 1    
    19    9   10 ar   
    20    9   14 ar   
    21   10   11 ar   
    22   10   71 1    
    23   11   12 ar   
    24   11   61 1    
    25   12   13 ar   
    26   12   72 1    
    27   13   14 ar   
    28   13   15 1    
    29   14   73 1    
    30   15   16 1    
    31   15   74 1    
    32   15   75 1    
    33   16   17 1    
    34   17   18 1    
    35   17   76 1    
    36   17   77 1    
    37   18   19 1    
    38   18   27 1    
    39   18   78 1    
    40   19   20 am   BACKBONE|DICT|INTERRES
    41   19   79 1    
    42   20   21 2    
    43   20   22 1    
    44   22   23 1    
    45   22   24 1    
    46   22   80 1    
    47   23   81 1    
    48   23   82 1    
    49   23   83 1    
    50   24   25 am   BACKBONE|DICT|INTERRES
    51   24   84 1    
    52   25   26 2    
    53   27   28 2    
    54   27   29 am   BACKBONE|DICT|INTERRES
    55   29   30 1    
    56   29   85 1    
    57   30   31 1    
    58   30   32 1    
    59   30   86 1    
    60   31   87 1    
    61   31   88 1    
    62   31   89 1    
    63   32   33 2    
    64   32   34 am   BACKBONE|DICT|INTERRES
    65   34   35 1    
    66   34   90 1    
    67   35   36 1    
    68   35   37 1    
    69   35   91 1    
    70   36   92 1    
    71   36   93 1    
    72   36   94 1    
    73   37   38 2    
    74   37   39 am   BACKBONE|DICT|INTERRES
    75   39   40 1    
    76   39   95 1    
    77   40   41 1    
    78   40   42 1    
    79   40   96 1    
    80   41   97 1    
    81   41   98 1    
    82   41   99 1    
    83   42   43 2    
    84   42   44 am   BACKBONE|DICT|INTERRES
    85   44   45 1    
    86   44  100 1    
    87   45   46 1    
    88   45   47 1    
    89   45  101 1    
    90   46  102 1    
    91   46  103 1    
    92   46  104 1    
    93   47   48 2    
    94   47   49 am   BACKBONE|DICT|INTERRES
    95   49   50 1    
    96   49  105 1    
    97   50   51 1    
    98   50   52 1    
    99   50  106 1    
   100   51  107 1    
   101   51  108 1    
   102   51  109 1    
   103   52   53 2    
   104   52   54 am   BACKBONE|DICT|INTERRES
   105   54   55 1    
   106   54  110 1    
   107   55   56 1    
   108   55   59 1    
   109   55  111 1    
   110   56   57 am   BACKBONE|DICT|INTERRES
   111   56   58 2    
   112   57  112 1    
   113   57  113 1    
   114   59   60 1    
   115   59  114 1    
   116   59  115 1    
   117   60   61 1    
   118   61  116 1    
   119   61  117 1    
@<TRIPOS>SUBSTRUCTURE
     1 UNK         1 GROUP             0       ****    0 ROOT    
