@<TRIPOS>MOLECULE
3R8
117   119    1
SMALL
USER_CHARGES


@<TRIPOS>ATOM
      1 CA         21.5346  -26.7173  -50.3832 C.3       0 UNK        -0.2013 
      2 C          21.7365  -27.0707  -48.9171 C.2       0 UNK         0.4866 
      3 O          22.8242  -26.8580  -48.3801 O.2       0 UNK        -0.5176 
      4 N          20.7007  -27.6167  -48.2689 N.am      1 UNK        -0.4884 
      5 CA         20.6900  -27.9481  -46.8413 C.3       1 UNK         0.0853 
      6 C6         19.6428  -29.0461  -46.5234 C.3       10 UNK        -0.0849 
      7 S7         17.9105  -28.5845  -46.8823 S.3       10 UNK        -0.2776 
      8 C8         17.0041  -29.9916  -46.1610 C.3       10 UNK         0.0316 
      9 C9         17.1064  -30.0237  -44.6418 C.ar      10 UNK        -0.0863 
     10 C10        18.0246  -30.8699  -44.0155 C.ar      10 UNK        -0.1009 
     11 C11        18.1301  -30.9039  -42.6221 C.ar      10 UNK        -0.0712 
     12 C12        17.2947  -30.0902  -41.8496 C.ar      10 UNK        -0.0894 
     13 C13        16.3674  -29.2421  -42.4637 C.ar      10 UNK        -0.0745 
     14 C14        16.2774  -29.2152  -43.8597 C.ar      10 UNK        -0.0972 
     15 C15        15.4456  -28.3632  -41.6308 C.3       10 UNK         0.0209 
     16 S16        15.9039  -26.6062  -41.7590 S.3       10 UNK        -0.2568 
     17 C17        16.9838  -26.3588  -40.3075 C.3       10 UNK        -0.0983 
     18 CA         18.4737  -26.7314  -40.5282 C.3       3 UNK         0.0876 
     19 N          19.0075  -26.1972  -41.7825 N.am      3 UNK        -0.4424 
     20 C          20.1759  -26.5424  -42.3337 C.2       2 UNK         0.4918 
     21 O          20.9510  -27.3862  -41.8717 O.2       2 UNK        -0.4875 
     22 CA         20.5380  -25.8279  -43.6359 C.3       2 UNK         0.0481 
     23 CB         21.7986  -24.9615  -43.4720 C.3       2 UNK        -0.1831 
     24 N          20.7478  -26.8483  -44.6548 N.am      2 UNK        -0.4498 
     25 C          20.5047  -26.6907  -45.9609 C.2       1 UNK         0.5027 
     26 O          20.1284  -25.6261  -46.4610 O.2       1 UNK        -0.4969 
     27 C          19.3187  -26.2331  -39.3391 C.2       3 UNK         0.5005 
     28 O          19.7797  -25.0884  -39.3661 O.2       3 UNK        -0.5279 
     29 N          19.5109  -27.0882  -38.3235 N.am      4 UNK        -0.4463 
     30 CA         20.2797  -26.8787  -37.0816 C.3       4 UNK         0.0283 
     31 CB         19.7034  -25.7200  -36.2443 C.3       4 UNK        -0.1875 
     32 C          21.8010  -26.7149  -37.2768 C.2       4 UNK         0.4949 
     33 O          22.5681  -27.2504  -36.4772 O.2       4 UNK        -0.5039 
     34 N          22.2137  -26.0156  -38.3415 N.am      5 UNK        -0.4663 
     35 CA         23.6011  -25.8678  -38.7903 C.3       5 UNK         0.0242 
     36 CB         23.6600  -24.7881  -39.8821 C.3       5 UNK        -0.1982 
     37 C          24.2129  -27.1841  -39.3036 C.2       5 UNK         0.5017 
     38 O          25.4326  -27.3398  -39.2415 O.2       5 UNK        -0.5012 
     39 N          23.3527  -28.0992  -39.7779 N.am      6 UNK        -0.4439 
     40 CA         23.6561  -29.4577  -40.2352 C.3       6 UNK         0.0297 
     41 CB         24.1652  -30.3331  -39.0704 C.3       6 UNK        -0.2006 
     42 C          24.5839  -29.4800  -41.4624 C.2       6 UNK         0.4892 
     43 O          25.5911  -30.1902  -41.4725 O.2       6 UNK        -0.5089 
     44 N          24.1988  -28.7186  -42.4974 N.am      7 UNK        -0.4243 
     45 CA         24.8154  -28.7736  -43.8311 C.3       7 UNK         0.0196 
     46 CB         24.4744  -27.4912  -44.6063 C.3       7 UNK        -0.2007 
     47 C          24.3994  -30.0282  -44.6299 C.2       7 UNK         0.5020 
     48 O          25.0022  -30.3208  -45.6622 O.2       7 UNK        -0.5147 
     49 N          23.3870  -30.7454  -44.1335 N.am      8 UNK        -0.4734 
     50 CA         22.9212  -32.0508  -44.5854 C.3       8 UNK         0.0238 
     51 CB         21.7712  -31.8602  -45.5910 C.3       8 UNK        -0.1912 
     52 C          22.4948  -32.8482  -43.3391 C.2       8 UNK         0.5038 
     53 O          22.7267  -32.3885  -42.2169 O.2       8 UNK        -0.5046 
     54 N          21.8691  -34.0129  -43.5508 N.am      9 UNK        -0.4200 
     55 CA         21.3874  -34.9401  -42.5062 C.3       9 UNK         0.0839 
     56 C          22.5188  -35.7113  -41.7584 C.2       9 UNK         0.5513 
     57 N          23.7498  -35.7301  -42.2559 N.am      9 UNK        -0.7519 
     58 O          22.2741  -36.3325  -40.7271 O.2       9 UNK        -0.4960 
     59 C59        20.3536  -34.3110  -41.5209 C.3       10 UNK        -0.0876 
     60 S60        18.9121  -33.5569  -42.3497 S.3       10 UNK        -0.2414 
     61 C61        19.1698  -31.7960  -41.9600 C.3       10 UNK         0.0169 
     62 H62        22.2547  -27.2528  -51.0012 H         1 UNK         0.0903 
     63 H63        20.5335  -26.9728  -50.7303 H         1 UNK         0.0903 
     64 H64        21.6833  -25.6484  -50.5346 H         1 UNK         0.0903 
     65 H65        19.8154  -27.7328  -48.7423 H         1 UNK         0.3096 
     66 H66        21.6730  -28.3573  -46.5940 H         1 UNK         0.1121 
     67 H67        19.8755  -29.9480  -47.0917 H         1 UNK         0.0849 
     68 H68        19.7219  -29.3295  -45.4744 H         1 UNK         0.0849 
     69 H69        15.9551  -29.9217  -46.4528 H         1 UNK         0.0865 
     70 H70        17.3752  -30.9227  -46.5926 H         1 UNK         0.0865 
     71 H71        18.6614  -31.5063  -44.6131 H         1 UNK         0.1346 
     72 H72        17.3676  -30.1149  -40.7711 H         1 UNK         0.1412 
     73 H73        15.5643  -28.5571  -44.3379 H         1 UNK         0.1426 
     74 H74        15.4344  -28.6784  -40.5865 H         1 UNK         0.0716 
     75 H75        14.4233  -28.4825  -41.9927 H         1 UNK         0.0716 
     76 H76        16.5740  -26.9121  -39.4605 H         1 UNK         0.0695 
     77 H77        16.8957  -25.3035  -40.0399 H         1 UNK         0.0695 
     78 H78        18.5560  -27.8185  -40.5806 H         1 UNK         0.0983 
     79 H79        18.4398  -25.4940  -42.2312 H         1 UNK         0.3095 
     80 H80        19.7049  -25.1849  -43.9290 H         1 UNK         0.0454 
     81 H81        21.6420  -24.1878  -42.7195 H         1 UNK         0.0851 
     82 H82        22.0592  -24.4593  -44.4036 H         1 UNK         0.0851 
     83 H83        22.6591  -25.5526  -43.1589 H         1 UNK         0.0851 
     84 H84        21.0001  -27.7579  -44.2930 H         1 UNK         0.2976 
     85 H85        19.1041  -28.0103  -38.4075 H         1 UNK         0.3116 
     86 H86        20.1436  -27.7929  -36.5012 H         1 UNK         0.0646 
     87 H87        19.8241  -24.7557  -36.7387 H         1 UNK         0.0847 
     88 H88        20.2079  -25.6510  -35.2796 H         1 UNK         0.0847 
     89 H89        18.6418  -25.8640  -36.0442 H         1 UNK         0.0847 
     90 H90        21.4900  -25.5692  -38.9019 H         1 UNK         0.3040 
     91 H91        24.2002  -25.5375  -37.9388 H         1 UNK         0.1015 
     92 H92        23.3062  -23.8267  -39.5090 H         1 UNK         0.0786 
     93 H93        23.0501  -25.0579  -40.7442 H         1 UNK         0.0786 
     94 H94        24.6819  -24.6426  -40.2356 H         1 UNK         0.0786 
     95 H95        22.3804  -27.8267  -39.8355 H         1 UNK         0.3172 
     96 H96        22.7075  -29.8837  -40.5664 H         1 UNK         0.0595 
     97 H97        25.1387  -30.0020  -38.7072 H         1 UNK         0.0839 
     98 H98        24.2721  -31.3720  -39.3856 H         1 UNK         0.0839 
     99 H99        23.4709  -30.3191  -38.2303 H         1 UNK         0.0839 
    100 H100       23.3679  -28.1515  -42.3932 H         1 UNK         0.2998 
    101 H101       25.9001  -28.8148  -43.7095 H         1 UNK         0.0822 
    102 H102       24.9628  -27.4835  -45.5819 H         1 UNK         0.0787 
    103 H103       23.4049  -27.3977  -44.7827 H         1 UNK         0.0787 
    104 H104       24.8096  -26.6022  -44.0719 H         1 UNK         0.0787 
    105 H105       23.0270  -30.4857  -43.2243 H         1 UNK         0.3055 
    106 H106       23.7437  -32.5894  -45.0615 H         1 UNK         0.1106 
    107 H107       22.0740  -31.2207  -46.4204 H         1 UNK         0.0828 
    108 H108       21.4513  -32.8090  -46.0224 H         1 UNK         0.0828 
    109 H109       20.9042  -31.4055  -45.1150 H         1 UNK         0.0828 
    110 H110       21.7213  -34.3217  -44.5003 H         1 UNK         0.2931 
    111 H111       20.8558  -35.7177  -43.0559 H         1 UNK         0.0412 
    112 H112       23.9666  -35.2399  -43.1084 H         1 UNK         0.3472 
    113 H113       24.4702  -36.2412  -41.7699 H         1 UNK         0.3472 
    114 H114       19.9616  -35.0787  -40.8514 H         1 UNK         0.0970 
    115 H115       20.8360  -33.5795  -40.8708 H         1 UNK         0.0970 
    116 H116       19.1572  -31.6682  -40.8765 H         1 UNK         0.0612 
    117 H117       20.1572  -31.4836  -42.2979 H         1 UNK         0.0612 
@<TRIPOS>BOND
     1    1    2 1    
     2    1   62 1    
     3    1   63 1    
     4    1   64 1    
     5    2    3 2    
     6    2    4 am   BACKBONE|DICT|INTERRES
     7    4    5 1    
     8    4   65 1    
     9    5    6 1    
    10    5   25 1    
    11    5   66 1    
    12    6    7 1    
    13    6   67 1    
    14    6   68 1    
    15    7    8 1    
    16    8    9 1    
    17    8   69 1    
    18    8   70 1    
    19    9   10 ar   
    20    9   14 ar   
    21   10   11 ar   
    22   10   71 1    
    23   11   12 ar   
    24   11   61 1    
    25   12   13 ar   
    26   12   72 1    
    27   13   14 ar   
    28   13   15 1    
    29   14   73 1    
    30   15   16 1    
    31   15   74 1    
    32   15   75 1    
    33   16   17 1    
    34   17   18 1    
    35   17   76 1    
    36   17   77 1    
    37   18   19 1    
    38   18   27 1    
    39   18   78 1    
    40   19   20 am   BACKBONE|DICT|INTERRES
    41   19   79 1    
    42   20   21 2    
    43   20   22 1    
    44   22   23 1    
    45   22   24 1    
    46   22   80 1    
    47   23   81 1    
    48   23   82 1    
    49   23   83 1    
    50   24   25 am   BACKBONE|DICT|INTERRES
    51   24   84 1    
    52   25   26 2    
    53   27   28 2    
    54   27   29 am   BACKBONE|DICT|INTERRES
    55   29   30 1    
    56   29   85 1    
    57   30   31 1    
    58   30   32 1    
    59   30   86 1    
    60   31   87 1    
    61   31   88 1    
    62   31   89 1    
    63   32   33 2    
    64   32   34 am   BACKBONE|DICT|INTERRES
    65   34   35 1    
    66   34   90 1    
    67   35   36 1    
    68   35   37 1    
    69   35   91 1    
    70   36   92 1    
    71   36   93 1    
    72   36   94 1    
    73   37   38 2    
    74   37   39 am   BACKBONE|DICT|INTERRES
    75   39   40 1    
    76   39   95 1    
    77   40   41 1    
    78   40   42 1    
    79   40   96 1    
    80   41   97 1    
    81   41   98 1    
    82   41   99 1    
    83   42   43 2    
    84   42   44 am   BACKBONE|DICT|INTERRES
    85   44   45 1    
    86   44  100 1    
    87   45   46 1    
    88   45   47 1    
    89   45  101 1    
    90   46  102 1    
    91   46  103 1    
    92   46  104 1    
    93   47   48 2    
    94   47   49 am   BACKBONE|DICT|INTERRES
    95   49   50 1    
    96   49  105 1    
    97   50   51 1    
    98   50   52 1    
    99   50  106 1    
   100   51  107 1    
   101   51  108 1    
   102   51  109 1    
   103   52   53 2    
   104   52   54 am   BACKBONE|DICT|INTERRES
   105   54   55 1    
   106   54  110 1    
   107   55   56 1    
   108   55   59 1    
   109   55  111 1    
   110   56   57 am   BACKBONE|DICT|INTERRES
   111   56   58 2    
   112   57  112 1    
   113   57  113 1    
   114   59   60 1    
   115   59  114 1    
   116   59  115 1    
   117   60   61 1    
   118   61  116 1    
   119   61  117 1    
@<TRIPOS>SUBSTRUCTURE
     1 UNK         1 GROUP             0       ****    0 ROOT    
