@<TRIPOS>MOLECULE
3R8
117   119    1
SMALL
USER_CHARGES


@<TRIPOS>ATOM
      1 CA         15.1788  -22.9856  -47.2429 C.3       0 UNK        -0.2013 
      2 C          15.3466  -24.3924  -46.6879 C.2       0 UNK         0.4866 
      3 O          15.2387  -25.3604  -47.4407 O.2       0 UNK        -0.5176 
      4 N          15.6151  -24.5042  -45.3829 N.am      1 UNK        -0.4884 
      5 CA         15.8685  -25.7556  -44.6656 C.3       1 UNK         0.0853 
      6 C6         14.6140  -26.2590  -43.8976 C.3       10 UNK        -0.0849 
      7 S7         13.5295  -27.2454  -44.9796 S.3       10 UNK        -0.2776 
      8 C8         13.9425  -28.9514  -44.4714 C.3       10 UNK         0.0316 
      9 C9         15.4267  -29.2885  -44.6025 C.ar      10 UNK        -0.0863 
     10 C10        16.1260  -29.8137  -43.5116 C.ar      10 UNK        -0.1009 
     11 C11        17.4764  -30.1652  -43.6219 C.ar      10 UNK        -0.0712 
     12 C12        18.1317  -29.9739  -44.8453 C.ar      10 UNK        -0.0894 
     13 C13        17.4504  -29.4285  -45.9386 C.ar      10 UNK        -0.0745 
     14 C14        16.0953  -29.1094  -45.8164 C.ar      10 UNK        -0.0972 
     15 C15        18.1613  -29.1978  -47.2636 C.3       10 UNK         0.0209 
     16 S16        18.9886  -27.5740  -47.3114 S.3       10 UNK        -0.2568 
     17 C17        20.6333  -27.9695  -46.6237 C.3       10 UNK        -0.0983 
     18 CA         21.0196  -27.1010  -45.3981 C.3       3 UNK         0.0876 
     19 N          20.0222  -27.2078  -44.3299 N.am      3 UNK        -0.4424 
     20 C          20.0087  -26.5783  -43.1457 C.2       2 UNK         0.4918 
     21 O          20.9047  -25.8378  -42.7366 O.2       2 UNK        -0.4875 
     22 CA         18.7376  -26.7964  -42.3022 C.3       2 UNK         0.0481 
     23 CB         18.6711  -25.9037  -41.0440 C.3       2 UNK        -0.1831 
     24 N          17.5261  -26.6697  -43.1228 N.am      2 UNK        -0.4498 
     25 C          17.0778  -25.5620  -43.7356 C.2       1 UNK         0.5027 
     26 O          17.5793  -24.4417  -43.6032 O.2       1 UNK        -0.4969 
     27 C          22.4395  -27.4523  -44.9062 C.2       3 UNK         0.5005 
     28 O          22.8066  -28.6294  -44.9008 O.2       3 UNK        -0.5279 
     29 N          23.1940  -26.4241  -44.4852 N.am      4 UNK        -0.4463 
     30 CA         24.5374  -26.4938  -43.8950 C.3       4 UNK         0.0283 
     31 CB         25.5797  -26.8797  -44.9667 C.3       4 UNK        -0.1875 
     32 C          24.5921  -27.4012  -42.6480 C.2       4 UNK         0.4949 
     33 O          25.5304  -28.1857  -42.5064 O.2       4 UNK        -0.5039 
     34 N          23.5601  -27.2961  -41.7955 N.am      5 UNK        -0.4663 
     35 CA         23.3381  -28.1352  -40.6136 C.3       5 UNK         0.0242 
     36 CB         22.0144  -27.7266  -39.9480 C.3       5 UNK        -0.1982 
     37 C          24.4907  -28.1147  -39.5904 C.2       5 UNK         0.5017 
     38 O          25.1800  -27.0992  -39.4671 O.2       5 UNK        -0.5012 
     39 N          24.6213  -29.2378  -38.8693 N.am      6 UNK        -0.4439 
     40 CA         25.7306  -29.7067  -38.0278 C.3       6 UNK         0.0297 
     41 CB         26.5611  -28.5979  -37.3504 C.3       6 UNK        -0.2006 
     42 C          26.5854  -30.6473  -38.8843 C.2       6 UNK         0.4892 
     43 O          27.0478  -30.2465  -39.9539 O.2       6 UNK        -0.5089 
     44 N          26.6921  -31.9092  -38.4442 N.am      7 UNK        -0.4243 
     45 CA         27.1136  -33.1011  -39.2003 C.3       7 UNK         0.0196 
     46 CB         28.5226  -32.9643  -39.8125 C.3       7 UNK        -0.2007 
     47 C          26.0590  -33.5111  -40.2461 C.2       7 UNK         0.5020 
     48 O          25.5769  -34.6434  -40.2070 O.2       7 UNK        -0.5147 
     49 N          25.6649  -32.5689  -41.1117 N.am      8 UNK        -0.4734 
     50 CA         24.4333  -32.6325  -41.8995 C.3       8 UNK         0.0238 
     51 CB         24.5349  -31.6474  -43.0738 C.3       8 UNK        -0.1912 
     52 C          23.2237  -32.2852  -41.0136 C.2       8 UNK         0.5038 
     53 O          23.3776  -31.5585  -40.0263 O.2       8 UNK        -0.5046 
     54 N          22.0453  -32.7967  -41.3899 N.am      9 UNK        -0.4200 
     55 CA         20.7689  -32.6362  -40.6666 C.3       9 UNK         0.0839 
     56 C          20.7194  -33.3331  -39.2700 C.2       9 UNK         0.5513 
     57 N          21.6383  -34.2341  -38.9428 N.am      9 UNK        -0.7519 
     58 O          19.8120  -33.0838  -38.4804 O.2       9 UNK        -0.4960 
     59 C59        20.2728  -31.1601  -40.6159 C.3       10 UNK        -0.0876 
     60 S60        19.9564  -30.4542  -42.2700 S.3       10 UNK        -0.2414 
     61 C61        18.1684  -30.7971  -42.4144 C.3       10 UNK         0.0169 
     62 H62        15.9203  -22.7975  -48.0188 H         1 UNK         0.0903 
     63 H63        14.1884  -22.8723  -47.6832 H         1 UNK         0.0903 
     64 H64        15.2951  -22.2250  -46.4709 H         1 UNK         0.0903 
     65 H65        15.7831  -23.6732  -44.8299 H         1 UNK         0.3096 
     66 H66        16.1915  -26.5065  -45.3870 H         1 UNK         0.1121 
     67 H67        14.0439  -25.4185  -43.4980 H         1 UNK         0.0849 
     68 H68        14.8683  -26.8709  -43.0304 H         1 UNK         0.0849 
     69 H69        13.5996  -29.1012  -43.4463 H         1 UNK         0.0865 
     70 H70        13.3709  -29.6476  -45.0865 H         1 UNK         0.0865 
     71 H71        15.6091  -29.9744  -42.5747 H         1 UNK         0.1346 
     72 H72        19.1696  -30.2570  -44.9524 H         1 UNK         0.1412 
     73 H73        15.5602  -28.7033  -46.6650 H         1 UNK         0.1426 
     74 H74        17.4388  -29.2376  -48.0805 H         1 UNK         0.0716 
     75 H75        18.8749  -29.9987  -47.4620 H         1 UNK         0.0716 
     76 H76        21.3614  -27.8307  -47.4251 H         1 UNK         0.0695 
     77 H77        20.6733  -29.0294  -46.3674 H         1 UNK         0.0695 
     78 H78        21.0255  -26.0586  -45.7236 H         1 UNK         0.0983 
     79 H79        19.2319  -27.7938  -44.5545 H         1 UNK         0.3095 
     80 H80        18.7646  -27.8293  -41.9583 H         1 UNK         0.0454 
     81 H81        17.7529  -26.0763  -40.4832 H         1 UNK         0.0851 
     82 H82        18.7208  -24.8428  -41.2895 H         1 UNK         0.0851 
     83 H83        19.5032  -26.1132  -40.3723 H         1 UNK         0.0851 
     84 H84        17.0407  -27.5390  -43.3045 H         1 UNK         0.2976 
     85 H85        22.7648  -25.5082  -44.4694 H         1 UNK         0.3116 
     86 H86        24.7764  -25.4871  -43.5490 H         1 UNK         0.0646 
     87 H87        25.4303  -27.8982  -45.3269 H         1 UNK         0.0847 
     88 H88        26.5922  -26.8229  -44.5654 H         1 UNK         0.0847 
     89 H89        25.5348  -26.2098  -45.8251 H         1 UNK         0.0847 
     90 H90        22.8285  -26.6314  -42.0179 H         1 UNK         0.3040 
     91 H91        23.2345  -29.1556  -40.9852 H         1 UNK         0.1015 
     92 H92        22.0145  -26.6731  -39.6658 H         1 UNK         0.0786 
     93 H93        21.8292  -28.3076  -39.0435 H         1 UNK         0.0786 
     94 H94        21.1714  -27.9001  -40.6158 H         1 UNK         0.0786 
     95 H95        23.9915  -29.9959  -39.1292 H         1 UNK         0.3172 
     96 H96        25.2621  -30.2894  -37.2330 H         1 UNK         0.0595 
     97 H97        27.1591  -28.0389  -38.0711 H         1 UNK         0.0839 
     98 H98        27.2549  -29.0260  -36.6262 H         1 UNK         0.0839 
     99 H99        25.9259  -27.8923  -36.8150 H         1 UNK         0.0839 
    100 H100       26.2630  -32.1184  -37.5527 H         1 UNK         0.2998 
    101 H101       27.1600  -33.9090  -38.4681 H         1 UNK         0.0822 
    102 H102       29.2541  -32.6688  -39.0604 H         1 UNK         0.0787 
    103 H103       28.8530  -33.9159  -40.2306 H         1 UNK         0.0787 
    104 H104       28.5573  -32.2330  -40.6200 H         1 UNK         0.0787 
    105 H105       26.0950  -31.6535  -41.0159 H         1 UNK         0.3055 
    106 H106       24.3117  -33.6447  -42.2919 H         1 UNK         0.1106 
    107 H107       23.6451  -31.6895  -43.7036 H         1 UNK         0.0828 
    108 H108       24.6327  -30.6195  -42.7261 H         1 UNK         0.0828 
    109 H109       25.3928  -31.8693  -43.7084 H         1 UNK         0.0828 
    110 H110       22.0037  -33.3763  -42.2155 H         1 UNK         0.2931 
    111 H111       20.0411  -33.1918  -41.2590 H         1 UNK         0.0412 
    112 H112       22.3885  -34.4579  -39.5770 H         1 UNK         0.3472 
    113 H113       21.5863  -34.6858  -38.0432 H         1 UNK         0.3472 
    114 H114       20.9980  -30.5289  -40.1031 H         1 UNK         0.0970 
    115 H115       19.3583  -31.0770  -40.0268 H         1 UNK         0.0970 
    116 H116       17.6812  -30.4488  -41.5023 H         1 UNK         0.0612 
    117 H117       18.0206  -31.8769  -42.4550 H         1 UNK         0.0612 
@<TRIPOS>BOND
     1    1    2 1    
     2    1   62 1    
     3    1   63 1    
     4    1   64 1    
     5    2    3 2    
     6    2    4 am   BACKBONE|DICT|INTERRES
     7    4    5 1    
     8    4   65 1    
     9    5    6 1    
    10    5   25 1    
    11    5   66 1    
    12    6    7 1    
    13    6   67 1    
    14    6   68 1    
    15    7    8 1    
    16    8    9 1    
    17    8   69 1    
    18    8   70 1    
    19    9   10 ar   
    20    9   14 ar   
    21   10   11 ar   
    22   10   71 1    
    23   11   12 ar   
    24   11   61 1    
    25   12   13 ar   
    26   12   72 1    
    27   13   14 ar   
    28   13   15 1    
    29   14   73 1    
    30   15   16 1    
    31   15   74 1    
    32   15   75 1    
    33   16   17 1    
    34   17   18 1    
    35   17   76 1    
    36   17   77 1    
    37   18   19 1    
    38   18   27 1    
    39   18   78 1    
    40   19   20 am   BACKBONE|DICT|INTERRES
    41   19   79 1    
    42   20   21 2    
    43   20   22 1    
    44   22   23 1    
    45   22   24 1    
    46   22   80 1    
    47   23   81 1    
    48   23   82 1    
    49   23   83 1    
    50   24   25 am   BACKBONE|DICT|INTERRES
    51   24   84 1    
    52   25   26 2    
    53   27   28 2    
    54   27   29 am   BACKBONE|DICT|INTERRES
    55   29   30 1    
    56   29   85 1    
    57   30   31 1    
    58   30   32 1    
    59   30   86 1    
    60   31   87 1    
    61   31   88 1    
    62   31   89 1    
    63   32   33 2    
    64   32   34 am   BACKBONE|DICT|INTERRES
    65   34   35 1    
    66   34   90 1    
    67   35   36 1    
    68   35   37 1    
    69   35   91 1    
    70   36   92 1    
    71   36   93 1    
    72   36   94 1    
    73   37   38 2    
    74   37   39 am   BACKBONE|DICT|INTERRES
    75   39   40 1    
    76   39   95 1    
    77   40   41 1    
    78   40   42 1    
    79   40   96 1    
    80   41   97 1    
    81   41   98 1    
    82   41   99 1    
    83   42   43 2    
    84   42   44 am   BACKBONE|DICT|INTERRES
    85   44   45 1    
    86   44  100 1    
    87   45   46 1    
    88   45   47 1    
    89   45  101 1    
    90   46  102 1    
    91   46  103 1    
    92   46  104 1    
    93   47   48 2    
    94   47   49 am   BACKBONE|DICT|INTERRES
    95   49   50 1    
    96   49  105 1    
    97   50   51 1    
    98   50   52 1    
    99   50  106 1    
   100   51  107 1    
   101   51  108 1    
   102   51  109 1    
   103   52   53 2    
   104   52   54 am   BACKBONE|DICT|INTERRES
   105   54   55 1    
   106   54  110 1    
   107   55   56 1    
   108   55   59 1    
   109   55  111 1    
   110   56   57 am   BACKBONE|DICT|INTERRES
   111   56   58 2    
   112   57  112 1    
   113   57  113 1    
   114   59   60 1    
   115   59  114 1    
   116   59  115 1    
   117   60   61 1    
   118   61  116 1    
   119   61  117 1    
@<TRIPOS>SUBSTRUCTURE
     1 UNK         1 GROUP             0       ****    0 ROOT    
