@<TRIPOS>MOLECULE
3R8
117   119    1
SMALL
USER_CHARGES


@<TRIPOS>ATOM
      1 CA         14.5447  -27.2932  -41.7094 C.3       0 UNK        -0.2013 
      2 C          15.8818  -27.2978  -42.4341 C.2       0 UNK         0.4866 
      3 O          15.9376  -27.6303  -43.6188 O.2       0 UNK        -0.5176 
      4 N          16.9624  -26.9165  -41.7412 N.am      1 UNK        -0.4884 
      5 CA         18.3433  -26.8818  -42.2445 C.3       1 UNK         0.0853 
      6 C6         19.3657  -26.9937  -41.0819 C.3       10 UNK        -0.0849 
      7 S7         19.3147  -28.6369  -40.2842 S.3       10 UNK        -0.2776 
      8 C8         20.8967  -29.3726  -40.8170 C.3       10 UNK         0.0316 
      9 C9         20.8348  -29.9580  -42.2226 C.ar      10 UNK        -0.0863 
     10 C10        20.8698  -31.3414  -42.4154 C.ar      10 UNK        -0.1009 
     11 C11        20.8315  -31.8821  -43.7052 C.ar      10 UNK        -0.0712 
     12 C12        20.7638  -31.0274  -44.8109 C.ar      10 UNK        -0.0894 
     13 C13        20.7517  -29.6410  -44.6335 C.ar      10 UNK        -0.0745 
     14 C14        20.7934  -29.1198  -43.3387 C.ar      10 UNK        -0.0972 
     15 C15        20.6915  -28.6984  -45.8283 C.3       10 UNK         0.0209 
     16 S16        22.1042  -27.5494  -45.8396 S.3       10 UNK        -0.2568 
     17 C17        21.6621  -26.4086  -47.1948 C.3       10 UNK        -0.0983 
     18 CA         21.1488  -25.0190  -46.7309 C.3       3 UNK         0.0876 
     19 N          19.8457  -25.1126  -46.0650 N.am      3 UNK        -0.4424 
     20 C          18.9905  -24.0918  -45.9169 C.2       2 UNK         0.4918 
     21 O          19.1827  -22.9692  -46.3844 O.2       2 UNK        -0.4875 
     22 CA         17.7082  -24.3502  -45.1035 C.3       2 UNK         0.0481 
     23 CB         16.5073  -24.5278  -46.0459 C.3       2 UNK        -0.1831 
     24 N          17.7627  -25.4934  -44.1848 N.am      2 UNK        -0.4498 
     25 C          18.5976  -25.6507  -43.1482 C.2       1 UNK         0.5027 
     26 O          19.5264  -24.8767  -42.9062 O.2       1 UNK        -0.4969 
     27 C          22.2041  -24.2434  -45.9038 C.2       3 UNK         0.5005 
     28 O          23.2158  -23.8326  -46.4753 O.2       3 UNK        -0.5279 
     29 N          21.9573  -24.0572  -44.5935 N.am      4 UNK        -0.4463 
     30 CA         22.8286  -23.4003  -43.6087 C.3       4 UNK         0.0283 
     31 CB         22.9804  -21.8957  -43.9187 C.3       4 UNK        -0.1875 
     32 C          24.1807  -24.1209  -43.4259 C.2       4 UNK         0.4949 
     33 O          25.2175  -23.4735  -43.2698 O.2       4 UNK        -0.5039 
     34 N          24.1368  -25.4555  -43.4427 N.am      5 UNK        -0.4663 
     35 CA         25.2600  -26.3704  -43.2651 C.3       5 UNK         0.0242 
     36 CB         25.9567  -26.5897  -44.6225 C.3       5 UNK        -0.1982 
     37 C          24.7189  -27.6848  -42.6820 C.2       5 UNK         0.5017 
     38 O          23.5048  -27.8104  -42.5112 O.2       5 UNK        -0.5012 
     39 N          25.6236  -28.6355  -42.4028 N.am      6 UNK        -0.4439 
     40 CA         25.3563  -29.9857  -41.8817 C.3       6 UNK         0.0297 
     41 CB         24.5726  -30.8182  -42.9230 C.3       6 UNK        -0.2006 
     42 C          24.7052  -29.9880  -40.4796 C.2       6 UNK         0.4892 
     43 O          24.7539  -28.9763  -39.7752 O.2       6 UNK        -0.5089 
     44 N          24.1517  -31.1369  -40.0727 N.am      7 UNK        -0.4243 
     45 CA         23.5002  -31.3530  -38.7837 C.3       7 UNK         0.0196 
     46 CB         24.5560  -31.5619  -37.6812 C.3       7 UNK        -0.2007 
     47 C          22.5827  -32.5766  -38.8835 C.2       7 UNK         0.5020 
     48 O          22.8745  -33.4912  -39.6580 O.2       7 UNK        -0.5147 
     49 N          21.5213  -32.5780  -38.0654 N.am      8 UNK        -0.4734 
     50 CA         20.5460  -33.6494  -37.8053 C.3       8 UNK         0.0238 
     51 CB         21.2260  -34.8629  -37.1390 C.3       8 UNK        -0.1912 
     52 C          19.6870  -34.0887  -39.0059 C.2       8 UNK         0.5038 
     53 O          18.4609  -34.0098  -38.9263 O.2       8 UNK        -0.5046 
     54 N          20.3360  -34.5685  -40.0723 N.am      9 UNK        -0.4200 
     55 CA         19.7299  -35.1784  -41.2682 C.3       9 UNK         0.0839 
     56 C          19.0205  -36.5464  -41.0237 C.2       9 UNK         0.5513 
     57 N          19.2851  -37.2366  -39.9205 N.am      9 UNK        -0.7519 
     58 O          18.2422  -37.0086  -41.8542 O.2       9 UNK        -0.4960 
     59 C59        18.8715  -34.1654  -42.0892 C.3       10 UNK        -0.0876 
     60 S60        19.2679  -34.1852  -43.8713 S.3       10 UNK        -0.2414 
     61 C61        20.9073  -33.3876  -43.9078 C.3       10 UNK         0.0169 
     62 H62        14.1104  -28.2926  -41.7192 H         1 UNK         0.0903 
     63 H63        14.6442  -26.9771  -40.6712 H         1 UNK         0.0903 
     64 H64        13.8512  -26.6152  -42.2061 H         1 UNK         0.0903 
     65 H65        16.8517  -26.6401  -40.7756 H         1 UNK         0.3096 
     66 H66        18.4754  -27.7526  -42.8893 H         1 UNK         0.1121 
     67 H67        20.3849  -26.7971  -41.4183 H         1 UNK         0.0849 
     68 H68        19.1633  -26.2341  -40.3248 H         1 UNK         0.0849 
     69 H69        21.7008  -28.6388  -40.7484 H         1 UNK         0.0865 
     70 H70        21.1481  -30.1567  -40.1047 H         1 UNK         0.0865 
     71 H71        20.9433  -31.9998  -41.5613 H         1 UNK         0.1346 
     72 H72        20.7364  -31.4435  -45.8087 H         1 UNK         0.1412 
     73 H73        20.8263  -28.0496  -43.2076 H         1 UNK         0.1426 
     74 H74        19.7576  -28.1371  -45.7876 H         1 UNK         0.0716 
     75 H75        20.6819  -29.2573  -46.7654 H         1 UNK         0.0716 
     76 H76        20.9204  -26.8823  -47.8399 H         1 UNK         0.0695 
     77 H77        22.5481  -26.2831  -47.8199 H         1 UNK         0.0695 
     78 H78        20.9978  -24.4268  -47.6366 H         1 UNK         0.0983 
     79 H79        19.6120  -26.0020  -45.6528 H         1 UNK         0.3095 
     80 H80        17.5329  -23.4601  -44.4962 H         1 UNK         0.0454 
     81 H81        16.6053  -25.4245  -46.6592 H         1 UNK         0.0851 
     82 H82        16.4105  -23.6782  -46.7235 H         1 UNK         0.0851 
     83 H83        15.5728  -24.6025  -45.4895 H         1 UNK         0.0851 
     84 H84        17.0293  -26.1918  -44.2816 H         1 UNK         0.2976 
     85 H85        21.0907  -24.4268  -44.2157 H         1 UNK         0.3116 
     86 H86        22.3123  -23.4844  -42.6511 H         1 UNK         0.0646 
     87 H87        23.5458  -21.7248  -44.8351 H         1 UNK         0.0847 
     88 H88        23.5073  -21.3827  -43.1134 H         1 UNK         0.0847 
     89 H89        22.0092  -21.4132  -44.0281 H         1 UNK         0.0847 
     90 H90        23.2418  -25.9250  -43.5157 H         1 UNK         0.3040 
     91 H91        25.9650  -25.9457  -42.5471 H         1 UNK         0.1015 
     92 H92        25.2831  -27.0509  -45.3463 H         1 UNK         0.0786 
     93 H93        26.8283  -27.2375  -44.5255 H         1 UNK         0.0786 
     94 H94        26.3040  -25.6473  -45.0466 H         1 UNK         0.0786 
     95 H95        26.5995  -28.4128  -42.5393 H         1 UNK         0.3172 
     96 H96        26.3333  -30.4542  -41.7560 H         1 UNK         0.0595 
     97 H97        23.5550  -30.4499  -43.0509 H         1 UNK         0.0839 
     98 H98        24.5092  -31.8698  -42.6432 H         1 UNK         0.0839 
     99 H99        25.0563  -30.7821  -43.8990 H         1 UNK         0.0839 
    100 H100       24.1287  -31.9385  -40.6907 H         1 UNK         0.2998 
    101 H101       22.8961  -30.4768  -38.5396 H         1 UNK         0.0822 
    102 H102       25.1914  -30.6840  -37.5637 H         1 UNK         0.0787 
    103 H103       24.0845  -31.7483  -36.7154 H         1 UNK         0.0787 
    104 H104       25.2006  -32.4143  -37.9000 H         1 UNK         0.0787 
    105 H105       21.3810  -31.7515  -37.4995 H         1 UNK         0.3055 
    106 H106       19.8484  -33.2362  -37.0741 H         1 UNK         0.1106 
    107 H107       20.4944  -35.6322  -36.8878 H         1 UNK         0.0828 
    108 H108       21.9737  -35.3233  -37.7854 H         1 UNK         0.0828 
    109 H109       21.7213  -34.5764  -36.2113 H         1 UNK         0.0828 
    110 H110       21.3516  -34.5270  -40.0503 H         1 UNK         0.2931 
    111 H111       20.5974  -35.4566  -41.8656 H         1 UNK         0.0412 
    112 H112       18.8314  -38.1249  -39.7734 H         1 UNK         0.3472 
    113 H113       19.9373  -36.8833  -39.2394 H         1 UNK         0.3472 
    114 H114       17.8049  -34.3642  -41.9701 H         1 UNK         0.0970 
    115 H115       18.9917  -33.1476  -41.7228 H         1 UNK         0.0970 
    116 H116       21.5622  -33.8310  -43.1573 H         1 UNK         0.0612 
    117 H117       21.3720  -33.6045  -44.8708 H         1 UNK         0.0612 
@<TRIPOS>BOND
     1    1    2 1    
     2    1   62 1    
     3    1   63 1    
     4    1   64 1    
     5    2    3 2    
     6    2    4 am   BACKBONE|DICT|INTERRES
     7    4    5 1    
     8    4   65 1    
     9    5    6 1    
    10    5   25 1    
    11    5   66 1    
    12    6    7 1    
    13    6   67 1    
    14    6   68 1    
    15    7    8 1    
    16    8    9 1    
    17    8   69 1    
    18    8   70 1    
    19    9   10 ar   
    20    9   14 ar   
    21   10   11 ar   
    22   10   71 1    
    23   11   12 ar   
    24   11   61 1    
    25   12   13 ar   
    26   12   72 1    
    27   13   14 ar   
    28   13   15 1    
    29   14   73 1    
    30   15   16 1    
    31   15   74 1    
    32   15   75 1    
    33   16   17 1    
    34   17   18 1    
    35   17   76 1    
    36   17   77 1    
    37   18   19 1    
    38   18   27 1    
    39   18   78 1    
    40   19   20 am   BACKBONE|DICT|INTERRES
    41   19   79 1    
    42   20   21 2    
    43   20   22 1    
    44   22   23 1    
    45   22   24 1    
    46   22   80 1    
    47   23   81 1    
    48   23   82 1    
    49   23   83 1    
    50   24   25 am   BACKBONE|DICT|INTERRES
    51   24   84 1    
    52   25   26 2    
    53   27   28 2    
    54   27   29 am   BACKBONE|DICT|INTERRES
    55   29   30 1    
    56   29   85 1    
    57   30   31 1    
    58   30   32 1    
    59   30   86 1    
    60   31   87 1    
    61   31   88 1    
    62   31   89 1    
    63   32   33 2    
    64   32   34 am   BACKBONE|DICT|INTERRES
    65   34   35 1    
    66   34   90 1    
    67   35   36 1    
    68   35   37 1    
    69   35   91 1    
    70   36   92 1    
    71   36   93 1    
    72   36   94 1    
    73   37   38 2    
    74   37   39 am   BACKBONE|DICT|INTERRES
    75   39   40 1    
    76   39   95 1    
    77   40   41 1    
    78   40   42 1    
    79   40   96 1    
    80   41   97 1    
    81   41   98 1    
    82   41   99 1    
    83   42   43 2    
    84   42   44 am   BACKBONE|DICT|INTERRES
    85   44   45 1    
    86   44  100 1    
    87   45   46 1    
    88   45   47 1    
    89   45  101 1    
    90   46  102 1    
    91   46  103 1    
    92   46  104 1    
    93   47   48 2    
    94   47   49 am   BACKBONE|DICT|INTERRES
    95   49   50 1    
    96   49  105 1    
    97   50   51 1    
    98   50   52 1    
    99   50  106 1    
   100   51  107 1    
   101   51  108 1    
   102   51  109 1    
   103   52   53 2    
   104   52   54 am   BACKBONE|DICT|INTERRES
   105   54   55 1    
   106   54  110 1    
   107   55   56 1    
   108   55   59 1    
   109   55  111 1    
   110   56   57 am   BACKBONE|DICT|INTERRES
   111   56   58 2    
   112   57  112 1    
   113   57  113 1    
   114   59   60 1    
   115   59  114 1    
   116   59  115 1    
   117   60   61 1    
   118   61  116 1    
   119   61  117 1    
@<TRIPOS>SUBSTRUCTURE
     1 UNK         1 GROUP             0       ****    0 ROOT    
