@<TRIPOS>MOLECULE
3R8
117   119    1
SMALL
USER_CHARGES


@<TRIPOS>ATOM
      1 CA         18.6413  -23.5794  -48.9837 C.3       0 UNK        -0.2013 
      2 C          19.4710  -24.7207  -48.4151 C.2       0 UNK         0.4866 
      3 O          20.6962  -24.6161  -48.3567 O.2       0 UNK        -0.5176 
      4 N          18.8121  -25.8115  -48.0040 N.am      1 UNK        -0.4884 
      5 CA         19.4253  -26.9947  -47.3868 C.3       1 UNK         0.0853 
      6 C6         18.4543  -28.2077  -47.3397 C.3       10 UNK        -0.0849 
      7 S7         16.7649  -27.7915  -46.7740 S.3       10 UNK        -0.2776 
      8 C8         16.0617  -29.4396  -46.4489 C.3       10 UNK         0.0316 
      9 C9         16.1932  -29.8341  -44.9848 C.ar      10 UNK        -0.0863 
     10 C10        17.0694  -30.8506  -44.5901 C.ar      10 UNK        -0.1009 
     11 C11        17.1534  -31.2291  -43.2453 C.ar      10 UNK        -0.0712 
     12 C12        16.3547  -30.5863  -42.2951 C.ar      10 UNK        -0.0894 
     13 C13        15.5045  -29.5445  -42.6734 C.ar      10 UNK        -0.0745 
     14 C14        15.4152  -29.1856  -44.0210 C.ar      10 UNK        -0.0972 
     15 C15        14.6995  -28.7857  -41.6302 C.3       10 UNK         0.0209 
     16 S16        15.4634  -27.1750  -41.2516 S.3       10 UNK        -0.2568 
     17 C17        16.8415  -27.6416  -40.1464 C.3       10 UNK        -0.0983 
     18 CA         18.1910  -27.8894  -40.8737 C.3       3 UNK         0.0876 
     19 N          18.5511  -26.7866  -41.7747 N.am      3 UNK        -0.4424 
     20 C          19.3314  -26.9256  -42.8530 C.2       2 UNK         0.4918 
     21 O          19.9187  -27.9692  -43.1338 O.2       2 UNK        -0.4875 
     22 CA         19.4820  -25.6772  -43.7424 C.3       2 UNK         0.0481 
     23 CB         20.8294  -24.9696  -43.4962 C.3       2 UNK        -0.1831 
     24 N          19.2612  -25.9797  -45.1628 N.am      2 UNK        -0.4498 
     25 C          20.0309  -26.6937  -46.0009 C.2       1 UNK         0.5027 
     26 O          21.1673  -27.0936  -45.7493 O.2       1 UNK        -0.4969 
     27 C          19.2965  -28.2378  -39.8517 C.2       3 UNK         0.5005 
     28 O          19.1589  -29.2334  -39.1381 O.2       3 UNK        -0.5279 
     29 N          20.3459  -27.4085  -39.7565 N.am      4 UNK        -0.4463 
     30 CA         21.4723  -27.5940  -38.8433 C.3       4 UNK         0.0283 
     31 CB         22.2912  -26.2942  -38.7725 C.3       4 UNK        -0.1875 
     32 C          22.3630  -28.7672  -39.2784 C.2       4 UNK         0.4949 
     33 O          22.8093  -28.7988  -40.4267 O.2       4 UNK        -0.5039 
     34 N          22.6701  -29.6639  -38.3315 N.am      5 UNK        -0.4663 
     35 CA         23.5331  -30.8374  -38.5278 C.3       5 UNK         0.0242 
     36 CB         23.4602  -31.7288  -37.2773 C.3       5 UNK        -0.1982 
     37 C          24.9988  -30.4955  -38.8626 C.2       5 UNK         0.5017 
     38 O          25.7111  -31.3384  -39.4079 O.2       5 UNK        -0.5012 
     39 N          25.4226  -29.2689  -38.5306 N.am      6 UNK        -0.4439 
     40 CA         26.7180  -28.7035  -38.9061 C.3       6 UNK         0.0297 
     41 CB         27.0664  -27.5657  -37.9321 C.3       6 UNK        -0.2006 
     42 C          26.7531  -28.1909  -40.3591 C.2       6 UNK         0.4892 
     43 O          27.8477  -28.0409  -40.9034 O.2       6 UNK        -0.5089 
     44 N          25.5831  -27.9063  -40.9507 N.am      7 UNK        -0.4243 
     45 CA         25.4514  -27.3619  -42.3023 C.3       7 UNK         0.0196 
     46 CB         24.3385  -26.2998  -42.3245 C.3       7 UNK        -0.2007 
     47 C          25.1620  -28.4653  -43.3275 C.2       7 UNK         0.5020 
     48 O          25.7860  -28.4753  -44.3892 O.2       7 UNK        -0.5147 
     49 N          24.2279  -29.3675  -43.0056 N.am      8 UNK        -0.4734 
     50 CA         23.7743  -30.4483  -43.8816 C.3       8 UNK         0.0238 
     51 CB         22.7802  -29.8932  -44.9271 C.3       8 UNK        -0.1912 
     52 C          23.1957  -31.5940  -43.0357 C.2       8 UNK         0.5038 
     53 O          23.6046  -31.7654  -41.8868 O.2       8 UNK        -0.5046 
     54 N          22.2595  -32.3550  -43.6167 N.am      9 UNK        -0.4200 
     55 CA         21.5304  -33.4723  -42.9932 C.3       9 UNK         0.0839 
     56 C          22.4365  -34.7076  -42.6998 C.2       9 UNK         0.5513 
     57 N          21.9883  -35.6515  -41.8816 N.am      9 UNK        -0.7519 
     58 O          23.5263  -34.8534  -43.2509 O.2       9 UNK        -0.4960 
     59 C59        20.6542  -33.0318  -41.7790 C.3       10 UNK        -0.0876 
     60 S60        19.6309  -31.5590  -42.1179 S.3       10 UNK        -0.2414 
     61 C61        18.1269  -32.3100  -42.8058 C.3       10 UNK         0.0169 
     62 H62        18.9424  -23.3716  -50.0101 H         1 UNK         0.0903 
     63 H63        17.5759  -23.8092  -48.9831 H         1 UNK         0.0903 
     64 H64        18.7933  -22.6756  -48.3942 H         1 UNK         0.0903 
     65 H65        17.8043  -25.8469  -48.0792 H         1 UNK         0.3096 
     66 H66        20.2661  -27.2830  -48.0227 H         1 UNK         0.1121 
     67 H67        18.3660  -28.6313  -48.3414 H         1 UNK         0.0849 
     68 H68        18.8591  -29.0093  -46.7174 H         1 UNK         0.0849 
     69 H69        15.0039  -29.4253  -46.7155 H         1 UNK         0.0865 
     70 H70        16.5252  -30.1814  -47.1013 H         1 UNK         0.0865 
     71 H71        17.6871  -31.3461  -45.3266 H         1 UNK         0.1346 
     72 H72        16.4326  -30.8675  -41.2535 H         1 UNK         0.1412 
     73 H73        14.7523  -28.3842  -44.3187 H         1 UNK         0.1426 
     74 H74        14.5869  -29.3710  -40.7164 H         1 UNK         0.0716 
     75 H75        13.6903  -28.6153  -42.0082 H         1 UNK         0.0716 
     76 H76        16.5470  -28.5247  -39.5761 H         1 UNK         0.0695 
     77 H77        16.9530  -26.8389  -39.4149 H         1 UNK         0.0695 
     78 H78        18.0799  -28.7824  -41.4880 H         1 UNK         0.0983 
     79 H79        18.0887  -25.9052  -41.6039 H         1 UNK         0.3095 
     80 H80        18.6914  -24.9745  -43.4742 H         1 UNK         0.0454 
     81 H81        21.6761  -25.6332  -43.6718 H         1 UNK         0.0851 
     82 H82        20.9041  -24.6221  -42.4654 H         1 UNK         0.0851 
     83 H83        20.9457  -24.0996  -44.1421 H         1 UNK         0.0851 
     84 H84        18.3465  -25.7292  -45.5119 H         1 UNK         0.2976 
     85 H85        20.4009  -26.6368  -40.4035 H         1 UNK         0.3116 
     86 H86        21.0718  -27.7981  -37.8478 H         1 UNK         0.0646 
     87 H87        22.6997  -26.0174  -39.7448 H         1 UNK         0.0847 
     88 H88        23.1312  -26.3967  -38.0843 H         1 UNK         0.0847 
     89 H89        21.6843  -25.4619  -38.4158 H         1 UNK         0.0847 
     90 H90        22.2615  -29.5565  -37.4136 H         1 UNK         0.3040 
     91 H91        23.1336  -31.4019  -39.3722 H         1 UNK         0.1015 
     92 H92        23.8269  -31.2115  -36.3899 H         1 UNK         0.0786 
     93 H93        24.0650  -32.6280  -37.4038 H         1 UNK         0.0786 
     94 H94        22.4385  -32.0546  -37.0808 H         1 UNK         0.0786 
     95 H95        24.7760  -28.6610  -38.0501 H         1 UNK         0.3172 
     96 H96        27.4819  -29.4782  -38.8099 H         1 UNK         0.0595 
     97 H97        26.3406  -26.7528  -37.9812 H         1 UNK         0.0839 
     98 H98        28.0448  -27.1415  -38.1626 H         1 UNK         0.0839 
     99 H99        27.1053  -27.9215  -36.9023 H         1 UNK         0.0839 
    100 H100       24.7174  -28.1373  -40.4765 H         1 UNK         0.2998 
    101 H101       26.3812  -26.8692  -42.5958 H         1 UNK         0.0822 
    102 H102       24.5450  -25.4934  -41.6208 H         1 UNK         0.0787 
    103 H103       24.2515  -25.8517  -43.3153 H         1 UNK         0.0787 
    104 H104       23.3653  -26.7241  -42.0753 H         1 UNK         0.0787 
    105 H105       23.7693  -29.3198  -42.0981 H         1 UNK         0.3055 
    106 H106       24.6404  -30.8602  -44.4042 H         1 UNK         0.1106 
    107 H107       22.5235  -30.6383  -45.6801 H         1 UNK         0.0828 
    108 H108       21.8538  -29.5570  -44.4579 H         1 UNK         0.0828 
    109 H109       23.1993  -29.0429  -45.4651 H         1 UNK         0.0828 
    110 H110       22.0048  -32.1529  -44.5712 H         1 UNK         0.2931 
    111 H111       20.8468  -33.8160  -43.7700 H         1 UNK         0.0412 
    112 H112       21.0867  -35.5807  -41.4378 H         1 UNK         0.3472 
    113 H113       22.5663  -36.4597  -41.7094 H         1 UNK         0.3472 
    114 H114       21.2882  -32.8036  -40.9204 H         1 UNK         0.0970 
    115 H115       19.9948  -33.8395  -41.4590 H         1 UNK         0.0970 
    116 H116       17.6607  -32.9503  -42.0554 H         1 UNK         0.0612 
    117 H117       18.3920  -32.9516  -43.6475 H         1 UNK         0.0612 
@<TRIPOS>BOND
     1    1    2 1    
     2    1   62 1    
     3    1   63 1    
     4    1   64 1    
     5    2    3 2    
     6    2    4 am   BACKBONE|DICT|INTERRES
     7    4    5 1    
     8    4   65 1    
     9    5    6 1    
    10    5   25 1    
    11    5   66 1    
    12    6    7 1    
    13    6   67 1    
    14    6   68 1    
    15    7    8 1    
    16    8    9 1    
    17    8   69 1    
    18    8   70 1    
    19    9   10 ar   
    20    9   14 ar   
    21   10   11 ar   
    22   10   71 1    
    23   11   12 ar   
    24   11   61 1    
    25   12   13 ar   
    26   12   72 1    
    27   13   14 ar   
    28   13   15 1    
    29   14   73 1    
    30   15   16 1    
    31   15   74 1    
    32   15   75 1    
    33   16   17 1    
    34   17   18 1    
    35   17   76 1    
    36   17   77 1    
    37   18   19 1    
    38   18   27 1    
    39   18   78 1    
    40   19   20 am   BACKBONE|DICT|INTERRES
    41   19   79 1    
    42   20   21 2    
    43   20   22 1    
    44   22   23 1    
    45   22   24 1    
    46   22   80 1    
    47   23   81 1    
    48   23   82 1    
    49   23   83 1    
    50   24   25 am   BACKBONE|DICT|INTERRES
    51   24   84 1    
    52   25   26 2    
    53   27   28 2    
    54   27   29 am   BACKBONE|DICT|INTERRES
    55   29   30 1    
    56   29   85 1    
    57   30   31 1    
    58   30   32 1    
    59   30   86 1    
    60   31   87 1    
    61   31   88 1    
    62   31   89 1    
    63   32   33 2    
    64   32   34 am   BACKBONE|DICT|INTERRES
    65   34   35 1    
    66   34   90 1    
    67   35   36 1    
    68   35   37 1    
    69   35   91 1    
    70   36   92 1    
    71   36   93 1    
    72   36   94 1    
    73   37   38 2    
    74   37   39 am   BACKBONE|DICT|INTERRES
    75   39   40 1    
    76   39   95 1    
    77   40   41 1    
    78   40   42 1    
    79   40   96 1    
    80   41   97 1    
    81   41   98 1    
    82   41   99 1    
    83   42   43 2    
    84   42   44 am   BACKBONE|DICT|INTERRES
    85   44   45 1    
    86   44  100 1    
    87   45   46 1    
    88   45   47 1    
    89   45  101 1    
    90   46  102 1    
    91   46  103 1    
    92   46  104 1    
    93   47   48 2    
    94   47   49 am   BACKBONE|DICT|INTERRES
    95   49   50 1    
    96   49  105 1    
    97   50   51 1    
    98   50   52 1    
    99   50  106 1    
   100   51  107 1    
   101   51  108 1    
   102   51  109 1    
   103   52   53 2    
   104   52   54 am   BACKBONE|DICT|INTERRES
   105   54   55 1    
   106   54  110 1    
   107   55   56 1    
   108   55   59 1    
   109   55  111 1    
   110   56   57 am   BACKBONE|DICT|INTERRES
   111   56   58 2    
   112   57  112 1    
   113   57  113 1    
   114   59   60 1    
   115   59  114 1    
   116   59  115 1    
   117   60   61 1    
   118   61  116 1    
   119   61  117 1    
@<TRIPOS>SUBSTRUCTURE
     1 UNK         1 GROUP             0       ****    0 ROOT    
