@<TRIPOS>MOLECULE
3R8
117   119    1
SMALL
USER_CHARGES


@<TRIPOS>ATOM
      1 CA         14.2326  -22.8456  -42.5961 C.3       0 UNK        -0.2013 
      2 C          15.0093  -23.5478  -43.7000 C.2       0 UNK         0.4866 
      3 O          14.9315  -23.1387  -44.8592 O.2       0 UNK        -0.5176 
      4 N          15.7497  -24.6073  -43.3520 N.am      1 UNK        -0.4884 
      5 CA         16.5961  -25.3769  -44.2704 C.3       1 UNK         0.0853 
      6 C6         17.0575  -26.7152  -43.6428 C.3       10 UNK        -0.0849 
      7 S7         15.6650  -27.8084  -43.1923 S.3       10 UNK        -0.2776 
      8 C8         15.8291  -29.1758  -44.3911 C.3       10 UNK         0.0316 
      9 C9         17.1692  -29.8938  -44.2798 C.ar      10 UNK        -0.0863 
     10 C10        17.5436  -30.5122  -43.0815 C.ar      10 UNK        -0.1009 
     11 C11        18.7887  -31.1362  -42.9650 C.ar      10 UNK        -0.0712 
     12 C12        19.6531  -31.1557  -44.0611 C.ar      10 UNK        -0.0894 
     13 C13        19.2915  -30.5449  -45.2644 C.ar      10 UNK        -0.0745 
     14 C14        18.0437  -29.9236  -45.3722 C.ar      10 UNK        -0.0972 
     15 C15        20.2755  -30.5195  -46.4265 C.3       10 UNK         0.0209 
     16 S16        20.9284  -28.8470  -46.7555 S.3       10 UNK        -0.2568 
     17 C17        21.4765  -28.3023  -45.0980 C.3       10 UNK        -0.0983 
     18 CA         21.7921  -26.7853  -45.0250 C.3       3 UNK         0.0876 
     19 N          20.6827  -25.9817  -45.5463 N.am      3 UNK        -0.4424 
     20 C          20.7557  -24.7290  -46.0137 C.2       2 UNK         0.4918 
     21 O          21.7985  -24.0738  -46.0447 O.2       2 UNK        -0.4875 
     22 CA         19.4485  -24.0985  -46.5305 C.3       2 UNK         0.0481 
     23 CB         19.3912  -24.1794  -48.0642 C.3       2 UNK        -0.1831 
     24 N          18.2421  -24.7180  -45.9683 N.am      2 UNK        -0.4498 
     25 C          17.8276  -24.5551  -44.7035 C.2       1 UNK         0.5027 
     26 O          18.4035  -23.8371  -43.8817 O.2       1 UNK        -0.4969 
     27 C          22.1487  -26.3411  -43.5878 C.2       3 UNK         0.5005 
     28 O          21.9899  -27.1161  -42.6419 O.2       3 UNK        -0.5279 
     29 N          22.6050  -25.0883  -43.4455 N.am      4 UNK        -0.4463 
     30 CA         22.8518  -24.3803  -42.1812 C.3       4 UNK         0.0283 
     31 CB         23.3317  -22.9542  -42.4960 C.3       4 UNK        -0.1875 
     32 C          23.8233  -25.0678  -41.2022 C.2       4 UNK         0.4949 
     33 O          23.7773  -24.7722  -40.0079 O.2       4 UNK        -0.5039 
     34 N          24.6692  -25.9750  -41.7089 N.am      5 UNK        -0.4663 
     35 CA         25.5554  -26.8257  -40.9127 C.3       5 UNK         0.0242 
     36 CB         26.5618  -27.5176  -41.8465 C.3       5 UNK        -0.1982 
     37 C          24.8097  -27.8739  -40.0648 C.2       5 UNK         0.5017 
     38 O          25.3597  -28.3065  -39.0525 O.2       5 UNK        -0.5012 
     39 N          23.6042  -28.2862  -40.4956 N.am      6 UNK        -0.4439 
     40 CA         22.6653  -29.2417  -39.8769 C.3       6 UNK         0.0297 
     41 CB         22.1490  -28.6992  -38.5312 C.3       6 UNK        -0.2006 
     42 C          23.1558  -30.6979  -39.7177 C.2       6 UNK         0.4892 
     43 O          22.3228  -31.6056  -39.6889 O.2       6 UNK        -0.5089 
     44 N          24.4763  -30.9072  -39.6337 N.am      7 UNK        -0.4243 
     45 CA         25.1699  -32.1785  -39.3949 C.3       7 UNK         0.0196 
     46 CB         26.6840  -31.9157  -39.3604 C.3       7 UNK        -0.2007 
     47 C          24.8482  -33.3087  -40.3882 C.2       7 UNK         0.5020 
     48 O          25.0199  -34.4766  -40.0395 O.2       7 UNK        -0.5147 
     49 N          24.3517  -32.9613  -41.5834 N.am      8 UNK        -0.4734 
     50 CA         23.8472  -33.8988  -42.5923 C.3       8 UNK         0.0238 
     51 CB         23.4903  -33.1189  -43.8678 C.3       8 UNK        -0.1912 
     52 C          22.6515  -34.7506  -42.1171 C.2       8 UNK         0.5038 
     53 O          22.4683  -35.8531  -42.6349 O.2       8 UNK        -0.5046 
     54 N          21.8876  -34.2479  -41.1368 N.am      9 UNK        -0.4200 
     55 CA         20.8268  -34.9895  -40.4354 C.3       9 UNK         0.0839 
     56 C          21.3329  -35.7627  -39.1812 C.2       9 UNK         0.5513 
     57 N          22.6201  -35.7621  -38.8539 N.am      9 UNK        -0.7519 
     58 O          20.5387  -36.3987  -38.4928 O.2       9 UNK        -0.4960 
     59 C59        19.6168  -34.0776  -40.0999 C.3       10 UNK        -0.0876 
     60 S60        18.7480  -33.5248  -41.6049 S.3       10 UNK        -0.2414 
     61 C61        19.2178  -31.7729  -41.6543 C.3       10 UNK         0.0169 
     62 H62        14.3817  -23.3208  -41.6266 H         1 UNK         0.0903 
     63 H63        14.5506  -21.8064  -42.5167 H         1 UNK         0.0903 
     64 H64        13.1663  -22.8599  -42.8199 H         1 UNK         0.0903 
     65 H65        15.7820  -24.8984  -42.3854 H         1 UNK         0.3096 
     66 H66        16.0021  -25.5993  -45.1601 H         1 UNK         0.1121 
     67 H67        17.7251  -27.2434  -44.3247 H         1 UNK         0.0849 
     68 H68        17.6445  -26.5328  -42.7402 H         1 UNK         0.0849 
     69 H69        15.0270  -29.8949  -44.2193 H         1 UNK         0.0865 
     70 H70        15.6772  -28.7835  -45.3979 H         1 UNK         0.0865 
     71 H71        16.8725  -30.4897  -42.2336 H         1 UNK         0.1346 
     72 H72        20.6171  -31.6330  -43.9686 H         1 UNK         0.1412 
     73 H73        17.7699  -29.4411  -46.3007 H         1 UNK         0.1426 
     74 H74        19.7827  -30.8915  -47.3257 H         1 UNK         0.0716 
     75 H75        21.1144  -31.1914  -46.2373 H         1 UNK         0.0716 
     76 H76        20.6945  -28.5400  -44.3762 H         1 UNK         0.0695 
     77 H77        22.3498  -28.8917  -44.8124 H         1 UNK         0.0695 
     78 H78        22.6707  -26.6014  -45.6475 H         1 UNK         0.0983 
     79 H79        19.7876  -26.4442  -45.5694 H         1 UNK         0.3095 
     80 H80        19.4572  -23.0440  -46.2468 H         1 UNK         0.0454 
     81 H81        20.2612  -23.6975  -48.5127 H         1 UNK         0.0851 
     82 H82        19.3749  -25.2119  -48.4158 H         1 UNK         0.0851 
     83 H83        18.5077  -23.6755  -48.4565 H         1 UNK         0.0851 
     84 H84        17.7111  -25.3137  -46.5883 H         1 UNK         0.2976 
     85 H85        22.6542  -24.5271  -44.2907 H         1 UNK         0.3116 
     86 H86        21.8904  -24.3083  -41.6687 H         1 UNK         0.0646 
     87 H87        23.4908  -22.3824  -41.5805 H         1 UNK         0.0847 
     88 H88        22.5982  -22.4094  -43.0908 H         1 UNK         0.0847 
     89 H89        24.2741  -22.9586  -43.0451 H         1 UNK         0.0847 
     90 H90        24.6434  -26.1417  -42.7042 H         1 UNK         0.3040 
     91 H91        26.1094  -26.1854  -40.2223 H         1 UNK         0.1015 
     92 H92        27.1578  -26.7896  -42.3973 H         1 UNK         0.0786 
     93 H93        26.0643  -28.1635  -42.5713 H         1 UNK         0.0786 
     94 H94        27.2571  -28.1390  -41.2799 H         1 UNK         0.0786 
     95 H95        23.2407  -27.8474  -41.3394 H         1 UNK         0.3172 
     96 H96        21.8141  -29.2860  -40.5585 H         1 UNK         0.0595 
     97 H97        21.7072  -27.7094  -38.6473 H         1 UNK         0.0839 
     98 H98        22.9450  -28.6266  -37.7895 H         1 UNK         0.0839 
     99 H99        21.3785  -29.3513  -38.1172 H         1 UNK         0.0839 
    100 H100       25.0501  -30.0703  -39.5853 H         1 UNK         0.2998 
    101 H101       24.8597  -32.5287  -38.4084 H         1 UNK         0.0822 
    102 H102       26.9447  -31.1967  -38.5833 H         1 UNK         0.0787 
    103 H103       27.2372  -32.8323  -39.1500 H         1 UNK         0.0787 
    104 H104       27.0461  -31.5263  -40.3129 H         1 UNK         0.0787 
    105 H105       24.2453  -31.9767  -41.7790 H         1 UNK         0.3055 
    106 H106       24.6549  -34.5947  -42.8300 H         1 UNK         0.1106 
    107 H107       22.7580  -32.3377  -43.6684 H         1 UNK         0.0828 
    108 H108       24.3717  -32.6473  -44.3028 H         1 UNK         0.0828 
    109 H109       23.0696  -33.7783  -44.6286 H         1 UNK         0.0828 
    110 H110       22.1218  -33.3409  -40.7461 H         1 UNK         0.2931 
    111 H111       20.4542  -35.7688  -41.1029 H         1 UNK         0.0412 
    112 H112       22.9147  -36.2791  -38.0407 H         1 UNK         0.3472 
    113 H113       23.3121  -35.2750  -39.4122 H         1 UNK         0.3472 
    114 H114       19.9325  -33.2203  -39.5022 H         1 UNK         0.0970 
    115 H115       18.8830  -34.6122  -39.4938 H         1 UNK         0.0970 
    116 H116       20.2984  -31.6819  -41.5358 H         1 UNK         0.0612 
    117 H117       18.7667  -31.2496  -40.8098 H         1 UNK         0.0612 
@<TRIPOS>BOND
     1    1    2 1    
     2    1   62 1    
     3    1   63 1    
     4    1   64 1    
     5    2    3 2    
     6    2    4 am   BACKBONE|DICT|INTERRES
     7    4    5 1    
     8    4   65 1    
     9    5    6 1    
    10    5   25 1    
    11    5   66 1    
    12    6    7 1    
    13    6   67 1    
    14    6   68 1    
    15    7    8 1    
    16    8    9 1    
    17    8   69 1    
    18    8   70 1    
    19    9   10 ar   
    20    9   14 ar   
    21   10   11 ar   
    22   10   71 1    
    23   11   12 ar   
    24   11   61 1    
    25   12   13 ar   
    26   12   72 1    
    27   13   14 ar   
    28   13   15 1    
    29   14   73 1    
    30   15   16 1    
    31   15   74 1    
    32   15   75 1    
    33   16   17 1    
    34   17   18 1    
    35   17   76 1    
    36   17   77 1    
    37   18   19 1    
    38   18   27 1    
    39   18   78 1    
    40   19   20 am   BACKBONE|DICT|INTERRES
    41   19   79 1    
    42   20   21 2    
    43   20   22 1    
    44   22   23 1    
    45   22   24 1    
    46   22   80 1    
    47   23   81 1    
    48   23   82 1    
    49   23   83 1    
    50   24   25 am   BACKBONE|DICT|INTERRES
    51   24   84 1    
    52   25   26 2    
    53   27   28 2    
    54   27   29 am   BACKBONE|DICT|INTERRES
    55   29   30 1    
    56   29   85 1    
    57   30   31 1    
    58   30   32 1    
    59   30   86 1    
    60   31   87 1    
    61   31   88 1    
    62   31   89 1    
    63   32   33 2    
    64   32   34 am   BACKBONE|DICT|INTERRES
    65   34   35 1    
    66   34   90 1    
    67   35   36 1    
    68   35   37 1    
    69   35   91 1    
    70   36   92 1    
    71   36   93 1    
    72   36   94 1    
    73   37   38 2    
    74   37   39 am   BACKBONE|DICT|INTERRES
    75   39   40 1    
    76   39   95 1    
    77   40   41 1    
    78   40   42 1    
    79   40   96 1    
    80   41   97 1    
    81   41   98 1    
    82   41   99 1    
    83   42   43 2    
    84   42   44 am   BACKBONE|DICT|INTERRES
    85   44   45 1    
    86   44  100 1    
    87   45   46 1    
    88   45   47 1    
    89   45  101 1    
    90   46  102 1    
    91   46  103 1    
    92   46  104 1    
    93   47   48 2    
    94   47   49 am   BACKBONE|DICT|INTERRES
    95   49   50 1    
    96   49  105 1    
    97   50   51 1    
    98   50   52 1    
    99   50  106 1    
   100   51  107 1    
   101   51  108 1    
   102   51  109 1    
   103   52   53 2    
   104   52   54 am   BACKBONE|DICT|INTERRES
   105   54   55 1    
   106   54  110 1    
   107   55   56 1    
   108   55   59 1    
   109   55  111 1    
   110   56   57 am   BACKBONE|DICT|INTERRES
   111   56   58 2    
   112   57  112 1    
   113   57  113 1    
   114   59   60 1    
   115   59  114 1    
   116   59  115 1    
   117   60   61 1    
   118   61  116 1    
   119   61  117 1    
@<TRIPOS>SUBSTRUCTURE
     1 UNK         1 GROUP             0       ****    0 ROOT    
