@<TRIPOS>MOLECULE
3R8
117   119    1
SMALL
USER_CHARGES


@<TRIPOS>ATOM
      1 CA         12.7603  -24.9768  -49.2942 C.3       0 UNK        -0.2013 
      2 C          13.8636  -25.8208  -48.6736 C.2       0 UNK         0.4866 
      3 O          14.1431  -26.9175  -49.1588 O.2       0 UNK        -0.5176 
      4 N          14.4932  -25.3199  -47.6068 N.am      1 UNK        -0.4884 
      5 CA         15.5941  -25.9611  -46.8919 C.3       1 UNK         0.0853 
      6 C6         15.0810  -27.0245  -45.8838 C.3       10 UNK        -0.0849 
      7 S7         16.4028  -28.0630  -45.1638 S.3       10 UNK        -0.2776 
      8 C8         16.2917  -27.5839  -43.4056 C.3       10 UNK         0.0316 
      9 C9         17.2437  -28.3637  -42.5020 C.ar      10 UNK        -0.0863 
     10 C10        17.3093  -29.7603  -42.5677 C.ar      10 UNK        -0.1009 
     11 C11        18.1379  -30.4771  -41.6998 C.ar      10 UNK        -0.0712 
     12 C12        18.9099  -29.7897  -40.7595 C.ar      10 UNK        -0.0894 
     13 C13        18.8423  -28.3964  -40.6674 C.ar      10 UNK        -0.0745 
     14 C14        18.0100  -27.6900  -41.5437 C.ar      10 UNK        -0.0972 
     15 C15        19.6218  -27.6702  -39.5778 C.3       10 UNK         0.0209 
     16 S16        21.2571  -27.1050  -40.1446 S.3       10 UNK        -0.2568 
     17 C17        20.8192  -25.6146  -41.1018 C.3       10 UNK        -0.0983 
     18 CA         20.9570  -25.8506  -42.6266 C.3       3 UNK         0.0876 
     19 N          20.0406  -24.9998  -43.3848 N.am      3 UNK        -0.4424 
     20 C          19.6448  -25.2673  -44.6324 C.2       2 UNK         0.4918 
     21 O          20.0214  -26.2465  -45.2824 O.2       2 UNK        -0.4875 
     22 CA         18.6423  -24.2943  -45.2585 C.3       2 UNK         0.0481 
     23 CB         19.3429  -23.2696  -46.1659 C.3       2 UNK        -0.1831 
     24 N          17.7082  -25.1000  -46.0325 N.am      2 UNK        -0.4498 
     25 C          16.4098  -24.8487  -46.2116 C.2       1 UNK         0.5027 
     26 O          15.8487  -23.8104  -45.8482 O.2       1 UNK        -0.4969 
     27 C          22.4134  -25.6454  -43.0859 C.2       3 UNK         0.5005 
     28 O          22.8058  -24.5207  -43.4067 O.2       3 UNK        -0.5279 
     29 N          23.1986  -26.7275  -43.0337 N.am      4 UNK        -0.4463 
     30 CA         24.6521  -26.7251  -43.2254 C.3       4 UNK         0.0283 
     31 CB         25.0509  -28.0011  -43.9873 C.3       4 UNK        -0.1875 
     32 C          25.4148  -26.6249  -41.8881 C.2       4 UNK         0.4949 
     33 O          26.6366  -26.7792  -41.8843 O.2       4 UNK        -0.5039 
     34 N          24.6915  -26.4219  -40.7742 N.am      5 UNK        -0.4663 
     35 CA         25.1259  -26.4005  -39.3679 C.3       5 UNK         0.0242 
     36 CB         26.1997  -25.3262  -39.1047 C.3       5 UNK        -0.1982 
     37 C          25.5603  -27.7826  -38.8520 C.2       5 UNK         0.5017 
     38 O          25.0192  -28.2533  -37.8519 O.2       5 UNK        -0.5012 
     39 N          26.4813  -28.4270  -39.5745 N.am      6 UNK        -0.4439 
     40 CA         26.8906  -29.8194  -39.4037 C.3       6 UNK         0.0297 
     41 CB         28.4288  -29.8949  -39.4211 C.3       6 UNK        -0.2006 
     42 C          26.2383  -30.6649  -40.5117 C.2       6 UNK         0.4892 
     43 O          26.9359  -31.3443  -41.2672 O.2       6 UNK        -0.5089 
     44 N          24.9062  -30.5663  -40.6192 N.am      7 UNK        -0.4243 
     45 CA         24.0949  -31.2677  -41.6129 C.3       7 UNK         0.0196 
     46 CB         22.6907  -30.6413  -41.6486 C.3       7 UNK        -0.2007 
     47 C          24.0108  -32.7695  -41.3039 C.2       7 UNK         0.5020 
     48 O          23.7670  -33.1422  -40.1541 O.2       7 UNK        -0.5147 
     49 N          24.1675  -33.6034  -42.3408 N.am      8 UNK        -0.4734 
     50 CA         24.1150  -35.0693  -42.2494 C.3       8 UNK         0.0238 
     51 CB         24.5626  -35.6781  -43.5884 C.3       8 UNK        -0.1912 
     52 C          22.7357  -35.6189  -41.8422 C.2       8 UNK         0.5038 
     53 O          22.6644  -36.7074  -41.2705 O.2       8 UNK        -0.5046 
     54 N          21.6779  -34.8510  -42.1288 N.am      9 UNK        -0.4200 
     55 CA         20.3025  -35.0970  -41.6793 C.3       9 UNK         0.0839 
     56 C          20.0413  -34.7767  -40.1768 C.2       9 UNK         0.5513 
     57 N          20.9744  -34.1841  -39.4391 N.am      9 UNK        -0.7519 
     58 O          18.9673  -35.0848  -39.6669 O.2       9 UNK        -0.4960 
     59 C59        19.2721  -34.4169  -42.6202 C.3       10 UNK        -0.0876 
     60 S60        19.5052  -32.6125  -42.8027 S.3       10 UNK        -0.2414 
     61 C61        18.1631  -31.9962  -41.7452 C.3       10 UNK         0.0169 
     62 H62        13.0023  -24.7465  -50.3314 H         1 UNK         0.0903 
     63 H63        11.8168  -25.5215  -49.2770 H         1 UNK         0.0903 
     64 H64        12.6183  -24.0362  -48.7622 H         1 UNK         0.0903 
     65 H65        14.2676  -24.3959  -47.2560 H         1 UNK         0.3096 
     66 H66        16.2397  -26.4476  -47.6273 H         1 UNK         0.1121 
     67 H67        14.4945  -26.5519  -45.0935 H         1 UNK         0.0849 
     68 H68        14.3927  -27.7036  -46.3893 H         1 UNK         0.0849 
     69 H69        16.4805  -26.5120  -43.3258 H         1 UNK         0.0865 
     70 H70        15.2725  -27.7480  -43.0527 H         1 UNK         0.0865 
     71 H71        16.7023  -30.2926  -43.2874 H         1 UNK         0.1346 
     72 H72        19.5443  -30.3441  -40.0812 H         1 UNK         0.1412 
     73 H73        17.9402  -26.6144  -41.4628 H         1 UNK         0.1426 
     74 H74        19.7675  -28.3364  -38.7261 H         1 UNK         0.0716 
     75 H75        19.0459  -26.8260  -39.1958 H         1 UNK         0.0716 
     76 H76        19.7977  -25.3291  -40.8494 H         1 UNK         0.0695 
     77 H77        21.4362  -24.7793  -40.7632 H         1 UNK         0.0695 
     78 H78        20.6724  -26.8845  -42.8414 H         1 UNK         0.0983 
     79 H79        19.7347  -24.1489  -42.9361 H         1 UNK         0.3095 
     80 H80        18.1077  -23.7730  -44.4613 H         1 UNK         0.0454 
     81 H81        19.8909  -23.7555  -46.9743 H         1 UNK         0.0851 
     82 H82        18.6259  -22.5815  -46.6137 H         1 UNK         0.0851 
     83 H83        20.0578  -22.6713  -45.5997 H         1 UNK         0.0851 
     84 H84        18.0820  -26.0012  -46.3077 H         1 UNK         0.2976 
     85 H85        22.7867  -27.6066  -42.7544 H         1 UNK         0.3116 
     86 H86        24.9462  -25.8649  -43.8303 H         1 UNK         0.0646 
     87 H87        24.5177  -28.0819  -44.9347 H         1 UNK         0.0847 
     88 H88        24.8438  -28.8993  -43.4065 H         1 UNK         0.0847 
     89 H89        26.1169  -28.0037  -44.2188 H         1 UNK         0.0847 
     90 H90        23.6916  -26.3423  -40.8981 H         1 UNK         0.3040 
     91 H91        24.2414  -26.1200  -38.7925 H         1 UNK         0.1015 
     92 H92        25.8612  -24.3419  -39.4285 H         1 UNK         0.0786 
     93 H93        27.1378  -25.5423  -39.6164 H         1 UNK         0.0786 
     94 H94        26.4238  -25.2573  -38.0395 H         1 UNK         0.0786 
     95 H95        26.8064  -27.9564  -40.4171 H         1 UNK         0.3172 
     96 H96        26.5426  -30.2099  -38.4452 H         1 UNK         0.0595 
     97 H97        28.8409  -29.5381  -40.3659 H         1 UNK         0.0839 
     98 H98        28.7716  -30.9208  -39.2805 H         1 UNK         0.0839 
     99 H99        28.8628  -29.2966  -38.6199 H         1 UNK         0.0839 
    100 H100       24.4093  -30.0216  -39.9292 H         1 UNK         0.2998 
    101 H101       24.5622  -31.1319  -42.5903 H         1 UNK         0.0822 
    102 H102       22.7348  -29.5691  -41.8340 H         1 UNK         0.0787 
    103 H103       22.0882  -31.0810  -42.4438 H         1 UNK         0.0787 
    104 H104       22.1538  -30.7945  -40.7111 H         1 UNK         0.0787 
    105 H105       24.3607  -33.2154  -43.2537 H         1 UNK         0.3055 
    106 H106       24.8225  -35.3798  -41.4770 H         1 UNK         0.1106 
    107 H107       23.9036  -35.3855  -44.4068 H         1 UNK         0.0828 
    108 H108       25.5766  -35.3716  -43.8457 H         1 UNK         0.0828 
    109 H109       24.5590  -36.7682  -43.5419 H         1 UNK         0.0828 
    110 H110       21.8353  -33.9678  -42.5907 H         1 UNK         0.2931 
    111 H111       20.1317  -36.1716  -41.7693 H         1 UNK         0.0412 
    112 H112       21.8729  -33.9257  -39.8294 H         1 UNK         0.3472 
    113 H113       20.7817  -33.9950  -38.4685 H         1 UNK         0.3472 
    114 H114       18.2518  -34.6336  -42.2982 H         1 UNK         0.0970 
    115 H115       19.3541  -34.8573  -43.6150 H         1 UNK         0.0970 
    116 H116       17.2092  -32.3761  -42.1146 H         1 UNK         0.0612 
    117 H117       18.2831  -32.3927  -40.7361 H         1 UNK         0.0612 
@<TRIPOS>BOND
     1    1    2 1    
     2    1   62 1    
     3    1   63 1    
     4    1   64 1    
     5    2    3 2    
     6    2    4 am   BACKBONE|DICT|INTERRES
     7    4    5 1    
     8    4   65 1    
     9    5    6 1    
    10    5   25 1    
    11    5   66 1    
    12    6    7 1    
    13    6   67 1    
    14    6   68 1    
    15    7    8 1    
    16    8    9 1    
    17    8   69 1    
    18    8   70 1    
    19    9   10 ar   
    20    9   14 ar   
    21   10   11 ar   
    22   10   71 1    
    23   11   12 ar   
    24   11   61 1    
    25   12   13 ar   
    26   12   72 1    
    27   13   14 ar   
    28   13   15 1    
    29   14   73 1    
    30   15   16 1    
    31   15   74 1    
    32   15   75 1    
    33   16   17 1    
    34   17   18 1    
    35   17   76 1    
    36   17   77 1    
    37   18   19 1    
    38   18   27 1    
    39   18   78 1    
    40   19   20 am   BACKBONE|DICT|INTERRES
    41   19   79 1    
    42   20   21 2    
    43   20   22 1    
    44   22   23 1    
    45   22   24 1    
    46   22   80 1    
    47   23   81 1    
    48   23   82 1    
    49   23   83 1    
    50   24   25 am   BACKBONE|DICT|INTERRES
    51   24   84 1    
    52   25   26 2    
    53   27   28 2    
    54   27   29 am   BACKBONE|DICT|INTERRES
    55   29   30 1    
    56   29   85 1    
    57   30   31 1    
    58   30   32 1    
    59   30   86 1    
    60   31   87 1    
    61   31   88 1    
    62   31   89 1    
    63   32   33 2    
    64   32   34 am   BACKBONE|DICT|INTERRES
    65   34   35 1    
    66   34   90 1    
    67   35   36 1    
    68   35   37 1    
    69   35   91 1    
    70   36   92 1    
    71   36   93 1    
    72   36   94 1    
    73   37   38 2    
    74   37   39 am   BACKBONE|DICT|INTERRES
    75   39   40 1    
    76   39   95 1    
    77   40   41 1    
    78   40   42 1    
    79   40   96 1    
    80   41   97 1    
    81   41   98 1    
    82   41   99 1    
    83   42   43 2    
    84   42   44 am   BACKBONE|DICT|INTERRES
    85   44   45 1    
    86   44  100 1    
    87   45   46 1    
    88   45   47 1    
    89   45  101 1    
    90   46  102 1    
    91   46  103 1    
    92   46  104 1    
    93   47   48 2    
    94   47   49 am   BACKBONE|DICT|INTERRES
    95   49   50 1    
    96   49  105 1    
    97   50   51 1    
    98   50   52 1    
    99   50  106 1    
   100   51  107 1    
   101   51  108 1    
   102   51  109 1    
   103   52   53 2    
   104   52   54 am   BACKBONE|DICT|INTERRES
   105   54   55 1    
   106   54  110 1    
   107   55   56 1    
   108   55   59 1    
   109   55  111 1    
   110   56   57 am   BACKBONE|DICT|INTERRES
   111   56   58 2    
   112   57  112 1    
   113   57  113 1    
   114   59   60 1    
   115   59  114 1    
   116   59  115 1    
   117   60   61 1    
   118   61  116 1    
   119   61  117 1    
@<TRIPOS>SUBSTRUCTURE
     1 UNK         1 GROUP             0       ****    0 ROOT    
