@<TRIPOS>MOLECULE
3R8
117   119    1
SMALL
USER_CHARGES


@<TRIPOS>ATOM
      1 CA         20.3562  -28.6296  -41.2896 C.3       0 UNK        -0.2013 
      2 C          19.4221  -27.8708  -42.2165 C.2       0 UNK         0.4866 
      3 O          19.7927  -27.5647  -43.3507 O.2       0 UNK        -0.5176 
      4 N          18.2212  -27.5416  -41.7220 N.am      1 UNK        -0.4884 
      5 CA         17.1651  -26.7950  -42.4229 C.3       1 UNK         0.0853 
      6 C6         16.5329  -27.5916  -43.6029 C.3       10 UNK        -0.0849 
      7 S7         15.9341  -29.2440  -43.1096 S.3       10 UNK        -0.2776 
      8 C8         15.9984  -30.1477  -44.6921 C.3       10 UNK         0.0316 
      9 C9         17.4190  -30.3084  -45.2192 C.ar      10 UNK        -0.0863 
     10 C10        18.3139  -31.1696  -44.5785 C.ar      10 UNK        -0.1009 
     11 C11        19.6134  -31.3351  -45.0664 C.ar      10 UNK        -0.0712 
     12 C12        20.0227  -30.6217  -46.1969 C.ar      10 UNK        -0.0894 
     13 C13        19.1336  -29.7639  -46.8535 C.ar      10 UNK        -0.0745 
     14 C14        17.8323  -29.6160  -46.3623 C.ar      10 UNK        -0.0972 
     15 C15        19.5660  -29.0270  -48.1155 C.3       10 UNK         0.0209 
     16 S16        19.5329  -27.2164  -47.9215 S.3       10 UNK        -0.2568 
     17 C17        20.8747  -26.9672  -46.7146 C.3       10 UNK        -0.0983 
     18 CA         20.9006  -25.5246  -46.1529 C.3       3 UNK         0.0876 
     19 N          19.6315  -25.1498  -45.5227 N.am      3 UNK        -0.4424 
     20 C          19.2462  -23.8939  -45.2544 C.2       2 UNK         0.4918 
     21 O          19.9336  -22.9020  -45.4986 O.2       2 UNK        -0.4875 
     22 CA         17.8478  -23.6970  -44.6357 C.3       2 UNK         0.0481 
     23 CB         16.8602  -23.1969  -45.7026 C.3       2 UNK        -0.1831 
     24 N          17.3163  -24.9212  -44.0316 N.am      2 UNK        -0.4498 
     25 C          17.6661  -25.3843  -42.8229 C.2       1 UNK         0.5027 
     26 O          18.3726  -24.7480  -42.0365 O.2       1 UNK        -0.4969 
     27 C          22.0810  -25.3537  -45.1808 C.2       3 UNK         0.5005 
     28 O          23.1222  -24.8276  -45.5775 O.2       3 UNK        -0.5279 
     29 N          21.8864  -25.8082  -43.9327 N.am      4 UNK        -0.4463 
     30 CA         22.8495  -25.8245  -42.8267 C.3       4 UNK         0.0283 
     31 CB         23.1868  -24.3900  -42.3685 C.3       4 UNK        -0.1875 
     32 C          24.0978  -26.6723  -43.1417 C.2       4 UNK         0.4949 
     33 O          25.2117  -26.2816  -42.7894 O.2       4 UNK        -0.5039 
     34 N          23.8868  -27.8182  -43.8094 N.am      5 UNK        -0.4663 
     35 CA         24.9393  -28.7604  -44.2087 C.3       5 UNK         0.0242 
     36 CB         24.3456  -29.8297  -45.1407 C.3       5 UNK        -0.1982 
     37 C          25.6484  -29.4049  -43.0049 C.2       5 UNK         0.5017 
     38 O          26.8748  -29.5173  -43.0072 O.2       5 UNK        -0.5012 
     39 N          24.8616  -29.7659  -41.9872 N.am      6 UNK        -0.4439 
     40 CA         25.2902  -30.1894  -40.6609 C.3       6 UNK         0.0297 
     41 CB         25.8199  -31.6352  -40.6848 C.3       6 UNK        -0.2006 
     42 C          24.0674  -30.0691  -39.7511 C.2       6 UNK         0.4892 
     43 O          22.9562  -30.3485  -40.2042 O.2       6 UNK        -0.5089 
     44 N          24.2779  -29.6935  -38.4833 N.am      7 UNK        -0.4243 
     45 CA         23.2095  -29.5312  -37.4864 C.3       7 UNK         0.0196 
     46 CB         23.8028  -28.9512  -36.1924 C.3       7 UNK        -0.2007 
     47 C          22.4355  -30.8296  -37.1902 C.2       7 UNK         0.5020 
     48 O          21.2519  -30.7725  -36.8575 O.2       7 UNK        -0.5147 
     49 N          23.1126  -31.9746  -37.3423 N.am      8 UNK        -0.4734 
     50 CA         22.5425  -33.3118  -37.1857 C.3       8 UNK         0.0238 
     51 CB         23.6862  -34.3076  -36.9273 C.3       8 UNK        -0.1912 
     52 C          21.6915  -33.7740  -38.3838 C.2       8 UNK         0.5038 
     53 O          20.9664  -34.7586  -38.2324 O.2       8 UNK        -0.5046 
     54 N          21.7972  -33.1042  -39.5439 N.am      9 UNK        -0.4200 
     55 CA         21.0667  -33.4752  -40.7691 C.3       9 UNK         0.0839 
     56 C          19.5638  -33.0595  -40.7741 C.2       9 UNK         0.5513 
     57 N          19.1083  -32.2052  -39.8641 N.am      9 UNK        -0.7519 
     58 O          18.7937  -33.5483  -41.5965 O.2       9 UNK        -0.4960 
     59 C59        21.8721  -33.1191  -42.0602 C.3       10 UNK        -0.0876 
     60 S60        21.3983  -31.5978  -42.9612 S.3       10 UNK        -0.2414 
     61 C61        20.5506  -32.3252  -44.3957 C.3       10 UNK         0.0169 
     62 H62        19.9717  -29.6311  -41.0985 H         1 UNK         0.0903 
     63 H63        21.3438  -28.7306  -41.7380 H         1 UNK         0.0903 
     64 H64        20.4697  -28.1131  -40.3369 H         1 UNK         0.0903 
     65 H65        17.9976  -27.8037  -40.7724 H         1 UNK         0.3096 
     66 H66        16.3785  -26.6224  -41.6866 H         1 UNK         0.1121 
     67 H67        15.6787  -27.0568  -44.0216 H         1 UNK         0.0849 
     68 H68        17.2606  -27.7021  -44.4074 H         1 UNK         0.0849 
     69 H69        15.5577  -31.1356  -44.5507 H         1 UNK         0.0865 
     70 H70        15.3679  -29.6369  -45.4216 H         1 UNK         0.0865 
     71 H71        17.9979  -31.7167  -43.7000 H         1 UNK         0.1346 
     72 H72        21.0273  -30.7513  -46.5756 H         1 UNK         0.1412 
     73 H73        17.1440  -28.9564  -46.8731 H         1 UNK         0.1426 
     74 H74        18.8969  -29.3038  -48.9312 H         1 UNK         0.0716 
     75 H75        20.5670  -29.3326  -48.4243 H         1 UNK         0.0716 
     76 H76        20.7567  -27.6904  -45.9056 H         1 UNK         0.0695 
     77 H77        21.8200  -27.2052  -47.2065 H         1 UNK         0.0695 
     78 H78        21.0704  -24.8424  -46.9892 H         1 UNK         0.0983 
     79 H79        19.0235  -25.9144  -45.2702 H         1 UNK         0.3095 
     80 H80        17.9313  -22.9270  -43.8658 H         1 UNK         0.0454 
     81 H81        17.2085  -22.2648  -46.1499 H         1 UNK         0.0851 
     82 H82        16.7366  -23.9185  -46.5113 H         1 UNK         0.0851 
     83 H83        15.8777  -22.9995  -45.2737 H         1 UNK         0.0851 
     84 H84        16.7109  -25.4826  -44.6128 H         1 UNK         0.2976 
     85 H85        21.0054  -26.2882  -43.7443 H         1 UNK         0.3116 
     86 H86        22.3483  -26.3220  -41.9955 H         1 UNK         0.0646 
     87 H87        23.7968  -24.4018  -41.4645 H         1 UNK         0.0847 
     88 H88        22.2833  -23.8243  -42.1415 H         1 UNK         0.0847 
     89 H89        23.7443  -23.8416  -43.1284 H         1 UNK         0.0847 
     90 H90        22.9388  -28.0552  -44.0648 H         1 UNK         0.3040 
     91 H91        25.6914  -28.1996  -44.7683 H         1 UNK         0.1015 
     92 H92        23.9162  -29.3812  -46.0368 H         1 UNK         0.0786 
     93 H93        23.5641  -30.4091  -44.6490 H         1 UNK         0.0786 
     94 H94        25.1142  -30.5317  -45.4670 H         1 UNK         0.0786 
     95 H95        23.8576  -29.6589  -42.0737 H         1 UNK         0.3172 
     96 H96        26.0707  -29.5127  -40.3070 H         1 UNK         0.0595 
     97 H97        25.0683  -32.3344  -41.0509 H         1 UNK         0.0839 
     98 H98        26.1121  -31.9620  -39.6862 H         1 UNK         0.0839 
     99 H99        26.6989  -31.7283  -41.3224 H         1 UNK         0.0839 
    100 H100       25.2198  -29.4880  -38.1810 H         1 UNK         0.2998 
    101 H101       22.4911  -28.8124  -37.8868 H         1 UNK         0.0822 
    102 H102       24.2736  -27.9840  -36.3694 H         1 UNK         0.0787 
    103 H103       23.0260  -28.7982  -35.4416 H         1 UNK         0.0787 
    104 H104       24.5503  -29.6156  -35.7569 H         1 UNK         0.0787 
    105 H105       24.0828  -31.9204  -37.6159 H         1 UNK         0.3055 
    106 H106       21.8878  -33.3091  -36.3110 H         1 UNK         0.1106 
    107 H107       24.3779  -34.3570  -37.7693 H         1 UNK         0.0828 
    108 H108       24.2561  -34.0367  -36.0382 H         1 UNK         0.0828 
    109 H109       23.2994  -35.3148  -36.7651 H         1 UNK         0.0828 
    110 H110       22.3479  -32.2546  -39.5921 H         1 UNK         0.2931 
    111 H111       21.0319  -34.5669  -40.7650 H         1 UNK         0.0412 
    112 H112       18.1322  -31.9560  -39.8664 H         1 UNK         0.3472 
    113 H113       19.7321  -31.8113  -39.1773 H         1 UNK         0.3472 
    114 H114       21.8027  -33.9570  -42.7555 H         1 UNK         0.0970 
    115 H115       22.9363  -33.0491  -41.8347 H         1 UNK         0.0970 
    116 H116       19.9752  -33.1969  -44.0808 H         1 UNK         0.0612 
    117 H117       21.2964  -32.6894  -45.1038 H         1 UNK         0.0612 
@<TRIPOS>BOND
     1    1    2 1    
     2    1   62 1    
     3    1   63 1    
     4    1   64 1    
     5    2    3 2    
     6    2    4 am   BACKBONE|DICT|INTERRES
     7    4    5 1    
     8    4   65 1    
     9    5    6 1    
    10    5   25 1    
    11    5   66 1    
    12    6    7 1    
    13    6   67 1    
    14    6   68 1    
    15    7    8 1    
    16    8    9 1    
    17    8   69 1    
    18    8   70 1    
    19    9   10 ar   
    20    9   14 ar   
    21   10   11 ar   
    22   10   71 1    
    23   11   12 ar   
    24   11   61 1    
    25   12   13 ar   
    26   12   72 1    
    27   13   14 ar   
    28   13   15 1    
    29   14   73 1    
    30   15   16 1    
    31   15   74 1    
    32   15   75 1    
    33   16   17 1    
    34   17   18 1    
    35   17   76 1    
    36   17   77 1    
    37   18   19 1    
    38   18   27 1    
    39   18   78 1    
    40   19   20 am   BACKBONE|DICT|INTERRES
    41   19   79 1    
    42   20   21 2    
    43   20   22 1    
    44   22   23 1    
    45   22   24 1    
    46   22   80 1    
    47   23   81 1    
    48   23   82 1    
    49   23   83 1    
    50   24   25 am   BACKBONE|DICT|INTERRES
    51   24   84 1    
    52   25   26 2    
    53   27   28 2    
    54   27   29 am   BACKBONE|DICT|INTERRES
    55   29   30 1    
    56   29   85 1    
    57   30   31 1    
    58   30   32 1    
    59   30   86 1    
    60   31   87 1    
    61   31   88 1    
    62   31   89 1    
    63   32   33 2    
    64   32   34 am   BACKBONE|DICT|INTERRES
    65   34   35 1    
    66   34   90 1    
    67   35   36 1    
    68   35   37 1    
    69   35   91 1    
    70   36   92 1    
    71   36   93 1    
    72   36   94 1    
    73   37   38 2    
    74   37   39 am   BACKBONE|DICT|INTERRES
    75   39   40 1    
    76   39   95 1    
    77   40   41 1    
    78   40   42 1    
    79   40   96 1    
    80   41   97 1    
    81   41   98 1    
    82   41   99 1    
    83   42   43 2    
    84   42   44 am   BACKBONE|DICT|INTERRES
    85   44   45 1    
    86   44  100 1    
    87   45   46 1    
    88   45   47 1    
    89   45  101 1    
    90   46  102 1    
    91   46  103 1    
    92   46  104 1    
    93   47   48 2    
    94   47   49 am   BACKBONE|DICT|INTERRES
    95   49   50 1    
    96   49  105 1    
    97   50   51 1    
    98   50   52 1    
    99   50  106 1    
   100   51  107 1    
   101   51  108 1    
   102   51  109 1    
   103   52   53 2    
   104   52   54 am   BACKBONE|DICT|INTERRES
   105   54   55 1    
   106   54  110 1    
   107   55   56 1    
   108   55   59 1    
   109   55  111 1    
   110   56   57 am   BACKBONE|DICT|INTERRES
   111   56   58 2    
   112   57  112 1    
   113   57  113 1    
   114   59   60 1    
   115   59  114 1    
   116   59  115 1    
   117   60   61 1    
   118   61  116 1    
   119   61  117 1    
@<TRIPOS>SUBSTRUCTURE
     1 UNK         1 GROUP             0       ****    0 ROOT    
