@<TRIPOS>MOLECULE
3R8
117   119    1
SMALL
USER_CHARGES


@<TRIPOS>ATOM
      1 CA         14.1812  -25.3593  -41.9488 C.3       0 UNK        -0.2013 
      2 C          15.3342  -26.0712  -42.6400 C.2       0 UNK         0.4866 
      3 O          16.0843  -25.4405  -43.3833 O.2       0 UNK        -0.5176 
      4 N          15.4860  -27.3787  -42.3924 N.am      1 UNK        -0.4884 
      5 CA         16.5240  -28.2355  -42.9857 C.3       1 UNK         0.0853 
      6 C6         16.0760  -29.7188  -43.0415 C.3       10 UNK        -0.0849 
      7 S7         14.8963  -29.9635  -44.4127 S.3       10 UNK        -0.2776 
      8 C8         15.8367  -31.0109  -45.5805 C.3       10 UNK         0.0316 
      9 C9         17.2640  -30.5335  -45.8424 C.ar      10 UNK        -0.0863 
     10 C10        18.3374  -31.4003  -45.6130 C.ar      10 UNK        -0.1009 
     11 C11        19.6523  -30.9890  -45.8517 C.ar      10 UNK        -0.0712 
     12 C12        19.8927  -29.6939  -46.3188 C.ar      10 UNK        -0.0894 
     13 C13        18.8312  -28.8109  -46.5393 C.ar      10 UNK        -0.0745 
     14 C14        17.5184  -29.2426  -46.3181 C.ar      10 UNK        -0.0972 
     15 C15        19.0970  -27.3928  -47.0227 C.3       10 UNK         0.0209 
     16 S16        19.1994  -26.2142  -45.6377 S.3       10 UNK        -0.2568 
     17 C17        20.9510  -26.3633  -45.1460 C.3       10 UNK        -0.0983 
     18 CA         21.2262  -25.7177  -43.7628 C.3       3 UNK         0.0876 
     19 N          20.5052  -26.4259  -42.7033 N.am      3 UNK        -0.4424 
     20 C          20.1400  -25.9349  -41.5150 C.2       2 UNK         0.4918 
     21 O          20.4238  -24.8009  -41.1271 O.2       2 UNK        -0.4875 
     22 CA         19.2954  -26.8802  -40.6331 C.3       2 UNK         0.0481 
     23 CB         19.0015  -26.2944  -39.2408 C.3       2 UNK        -0.1831 
     24 N          18.0307  -27.2502  -41.2780 N.am      2 UNK        -0.4498 
     25 C          17.9087  -28.0788  -42.3264 C.2       1 UNK         0.5027 
     26 O          18.8650  -28.6825  -42.8107 O.2       1 UNK        -0.4969 
     27 C          22.7431  -25.6095  -43.4910 C.2       3 UNK         0.5005 
     28 O          23.4417  -24.9737  -44.2811 O.2       3 UNK        -0.5279 
     29 N          23.2348  -26.2352  -42.4083 N.am      4 UNK        -0.4463 
     30 CA         24.6264  -26.2682  -41.9362 C.3       4 UNK         0.0283 
     31 CB         25.1906  -24.8512  -41.7010 C.3       4 UNK        -0.1875 
     32 C          25.5740  -27.1374  -42.7843 C.2       4 UNK         0.4949 
     33 O          26.7543  -27.2290  -42.4472 O.2       4 UNK        -0.5039 
     34 N          25.0528  -27.8065  -43.8239 N.am      5 UNK        -0.4663 
     35 CA         25.7860  -28.7632  -44.6629 C.3       5 UNK         0.0242 
     36 CB         24.9295  -29.1262  -45.8867 C.3       5 UNK        -0.1982 
     37 C          26.2074  -30.0292  -43.8940 C.2       5 UNK         0.5017 
     38 O          27.2624  -30.5953  -44.1814 O.2       5 UNK        -0.5012 
     39 N          25.3910  -30.4144  -42.9076 N.am      6 UNK        -0.4439 
     40 CA         25.6650  -31.4490  -41.9159 C.3       6 UNK         0.0297 
     41 CB         25.2684  -32.8352  -42.4603 C.3       6 UNK        -0.2006 
     42 C          24.9465  -31.0614  -40.6153 C.2       6 UNK         0.4892 
     43 O          24.1676  -31.8514  -40.0789 O.2       6 UNK        -0.5089 
     44 N          25.1882  -29.8189  -40.1642 N.am      7 UNK        -0.4243 
     45 CA         24.5502  -29.1499  -39.0229 C.3       7 UNK         0.0196 
     46 CB         24.9992  -29.7952  -37.6910 C.3       7 UNK        -0.2007 
     47 C          23.0217  -29.0743  -39.2089 C.2       7 UNK         0.5020 
     48 O          22.5612  -28.3610  -40.1027 O.2       7 UNK        -0.5147 
     49 N          22.2733  -29.8339  -38.3969 N.am      8 UNK        -0.4734 
     50 CA         20.8198  -30.0085  -38.4934 C.3       8 UNK         0.0238 
     51 CB         20.3168  -30.7310  -37.2332 C.3       8 UNK        -0.1912 
     52 C          20.3629  -30.7559  -39.7628 C.2       8 UNK         0.5038 
     53 O          19.1912  -30.6460  -40.1238 O.2       8 UNK        -0.5046 
     54 N          21.2892  -31.4742  -40.4141 N.am      9 UNK        -0.4200 
     55 CA         21.1203  -32.1727  -41.6939 C.3       9 UNK         0.0839 
     56 C          20.1420  -33.3831  -41.6373 C.2       9 UNK         0.5513 
     57 N          19.8119  -33.9724  -42.7781 N.am      9 UNK        -0.7519 
     58 O          19.7181  -33.8321  -40.5739 O.2       9 UNK        -0.4960 
     59 C59        20.8426  -31.1739  -42.8589 C.3       10 UNK        -0.0876 
     60 S60        21.9423  -31.4071  -44.2960 S.3       10 UNK        -0.2414 
     61 C61        20.8083  -31.9531  -45.6153 C.3       10 UNK         0.0169 
     62 H62        13.5067  -24.9321  -42.6904 H         1 UNK         0.0903 
     63 H63        13.6046  -26.0335  -41.3156 H         1 UNK         0.0903 
     64 H64        14.5592  -24.5490  -41.3259 H         1 UNK         0.0903 
     65 H65        14.8342  -27.8457  -41.7772 H         1 UNK         0.3096 
     66 H66        16.6865  -27.8948  -44.0107 H         1 UNK         0.1121 
     67 H67        16.9205  -30.3977  -43.1741 H         1 UNK         0.0849 
     68 H68        15.6075  -30.0205  -42.1034 H         1 UNK         0.0849 
     69 H69        15.8395  -32.0313  -45.1938 H         1 UNK         0.0865 
     70 H70        15.2989  -31.0495  -46.5287 H         1 UNK         0.0865 
     71 H71        18.1493  -32.4010  -45.2485 H         1 UNK         0.1346 
     72 H72        20.9093  -29.3734  -46.4992 H         1 UNK         0.1412 
     73 H73        16.6935  -28.5659  -46.4953 H         1 UNK         0.1426 
     74 H74        20.0128  -27.3508  -47.6146 H         1 UNK         0.0716 
     75 H75        18.2920  -27.0785  -47.6886 H         1 UNK         0.0716 
     76 H76        21.2367  -27.4161  -45.1352 H         1 UNK         0.0695 
     77 H77        21.5470  -25.8879  -45.9275 H         1 UNK         0.0695 
     78 H78        20.8550  -24.6908  -43.7903 H         1 UNK         0.0983 
     79 H79        20.1530  -27.3508  -42.9415 H         1 UNK         0.3095 
     80 H80        19.8826  -27.7884  -40.4929 H         1 UNK         0.0454 
     81 H81        18.4088  -25.3809  -39.3027 H         1 UNK         0.0851 
     82 H82        18.4604  -27.0058  -38.6169 H         1 UNK         0.0851 
     83 H83        19.9277  -26.0486  -38.7195 H         1 UNK         0.0851 
     84 H84        17.2022  -26.7627  -40.9700 H         1 UNK         0.2976 
     85 H85        22.5828  -26.7568  -41.8334 H         1 UNK         0.3116 
     86 H86        24.5833  -26.7525  -40.9615 H         1 UNK         0.0646 
     87 H87        26.1479  -24.8949  -41.1803 H         1 UNK         0.0847 
     88 H88        24.5177  -24.2519  -41.0877 H         1 UNK         0.0847 
     89 H89        25.3605  -24.3172  -42.6360 H         1 UNK         0.0847 
     90 H90        24.0801  -27.6533  -44.0442 H         1 UNK         0.3040 
     91 H91        26.6986  -28.2751  -45.0126 H         1 UNK         0.1015 
     92 H92        24.7000  -28.2446  -46.4856 H         1 UNK         0.0786 
     93 H93        23.9862  -29.5911  -45.5991 H         1 UNK         0.0786 
     94 H94        25.4543  -29.8293  -46.5352 H         1 UNK         0.0786 
     95 H95        24.5406  -29.8865  -42.7667 H         1 UNK         0.3172 
     96 H96        26.7335  -31.4601  -41.6906 H         1 UNK         0.0595 
     97 H97        25.4275  -33.6120  -41.7115 H         1 UNK         0.0839 
     98 H98        25.8645  -33.1011  -43.3332 H         1 UNK         0.0839 
     99 H99        24.2200  -32.8693  -42.7533 H         1 UNK         0.0839 
    100 H100       25.8449  -29.2545  -40.6861 H         1 UNK         0.2998 
    101 H101       24.9075  -28.1194  -39.0199 H         1 UNK         0.0822 
    102 H102       26.0811  -29.7289  -37.5748 H         1 UNK         0.0787 
    103 H103       24.5574  -29.2824  -36.8354 H         1 UNK         0.0787 
    104 H104       24.7305  -30.8499  -37.6235 H         1 UNK         0.0787 
    105 H105       22.7518  -30.4005  -37.7111 H         1 UNK         0.3055 
    106 H106       20.3653  -29.0166  -38.5217 H         1 UNK         0.1106 
    107 H107       19.2320  -30.8455  -37.2566 H         1 UNK         0.0828 
    108 H108       20.7466  -31.7293  -37.1414 H         1 UNK         0.0828 
    109 H109       20.5616  -30.1730  -36.3293 H         1 UNK         0.0828 
    110 H110       22.2244  -31.5293  -40.0234 H         1 UNK         0.2931 
    111 H111       22.0968  -32.6278  -41.8533 H         1 UNK         0.0412 
    112 H112       19.1976  -34.7716  -42.7598 H         1 UNK         0.3472 
    113 H113       20.1916  -33.6443  -43.6507 H         1 UNK         0.3472 
    114 H114       21.0225  -30.1492  -42.5305 H         1 UNK         0.0970 
    115 H115       19.7922  -31.1851  -43.1522 H         1 UNK         0.0970 
    116 H116       20.4407  -32.9523  -45.3818 H         1 UNK         0.0612 
    117 H117       21.3779  -32.0514  -46.5403 H         1 UNK         0.0612 
@<TRIPOS>BOND
     1    1    2 1    
     2    1   62 1    
     3    1   63 1    
     4    1   64 1    
     5    2    3 2    
     6    2    4 am   BACKBONE|DICT|INTERRES
     7    4    5 1    
     8    4   65 1    
     9    5    6 1    
    10    5   25 1    
    11    5   66 1    
    12    6    7 1    
    13    6   67 1    
    14    6   68 1    
    15    7    8 1    
    16    8    9 1    
    17    8   69 1    
    18    8   70 1    
    19    9   10 ar   
    20    9   14 ar   
    21   10   11 ar   
    22   10   71 1    
    23   11   12 ar   
    24   11   61 1    
    25   12   13 ar   
    26   12   72 1    
    27   13   14 ar   
    28   13   15 1    
    29   14   73 1    
    30   15   16 1    
    31   15   74 1    
    32   15   75 1    
    33   16   17 1    
    34   17   18 1    
    35   17   76 1    
    36   17   77 1    
    37   18   19 1    
    38   18   27 1    
    39   18   78 1    
    40   19   20 am   BACKBONE|DICT|INTERRES
    41   19   79 1    
    42   20   21 2    
    43   20   22 1    
    44   22   23 1    
    45   22   24 1    
    46   22   80 1    
    47   23   81 1    
    48   23   82 1    
    49   23   83 1    
    50   24   25 am   BACKBONE|DICT|INTERRES
    51   24   84 1    
    52   25   26 2    
    53   27   28 2    
    54   27   29 am   BACKBONE|DICT|INTERRES
    55   29   30 1    
    56   29   85 1    
    57   30   31 1    
    58   30   32 1    
    59   30   86 1    
    60   31   87 1    
    61   31   88 1    
    62   31   89 1    
    63   32   33 2    
    64   32   34 am   BACKBONE|DICT|INTERRES
    65   34   35 1    
    66   34   90 1    
    67   35   36 1    
    68   35   37 1    
    69   35   91 1    
    70   36   92 1    
    71   36   93 1    
    72   36   94 1    
    73   37   38 2    
    74   37   39 am   BACKBONE|DICT|INTERRES
    75   39   40 1    
    76   39   95 1    
    77   40   41 1    
    78   40   42 1    
    79   40   96 1    
    80   41   97 1    
    81   41   98 1    
    82   41   99 1    
    83   42   43 2    
    84   42   44 am   BACKBONE|DICT|INTERRES
    85   44   45 1    
    86   44  100 1    
    87   45   46 1    
    88   45   47 1    
    89   45  101 1    
    90   46  102 1    
    91   46  103 1    
    92   46  104 1    
    93   47   48 2    
    94   47   49 am   BACKBONE|DICT|INTERRES
    95   49   50 1    
    96   49  105 1    
    97   50   51 1    
    98   50   52 1    
    99   50  106 1    
   100   51  107 1    
   101   51  108 1    
   102   51  109 1    
   103   52   53 2    
   104   52   54 am   BACKBONE|DICT|INTERRES
   105   54   55 1    
   106   54  110 1    
   107   55   56 1    
   108   55   59 1    
   109   55  111 1    
   110   56   57 am   BACKBONE|DICT|INTERRES
   111   56   58 2    
   112   57  112 1    
   113   57  113 1    
   114   59   60 1    
   115   59  114 1    
   116   59  115 1    
   117   60   61 1    
   118   61  116 1    
   119   61  117 1    
@<TRIPOS>SUBSTRUCTURE
     1 UNK         1 GROUP             0       ****    0 ROOT    
