@<TRIPOS>MOLECULE
3R8
117   119    1
SMALL
USER_CHARGES


@<TRIPOS>ATOM
      1 CA         15.5496  -22.0305  -44.6221 C.3       0 UNK        -0.2013 
      2 C          15.9123  -23.3044  -45.3707 C.2       0 UNK         0.4866 
      3 O          15.3422  -23.5782  -46.4271 O.2       0 UNK        -0.5176 
      4 N          16.8574  -24.0817  -44.8344 N.am      1 UNK        -0.4884 
      5 CA         17.3874  -25.3123  -45.4190 C.3       1 UNK         0.0853 
      6 C6         16.4103  -26.5136  -45.2820 C.3       10 UNK        -0.0849 
      7 S7         16.6776  -27.7692  -46.5812 S.3       10 UNK        -0.2776 
      8 C8         15.9764  -29.2614  -45.8111 C.3       10 UNK         0.0316 
      9 C9         16.8809  -29.8364  -44.7294 C.ar      10 UNK        -0.0863 
     10 C10        17.9998  -30.5990  -45.0806 C.ar      10 UNK        -0.1009 
     11 C11        18.8062  -31.1732  -44.0923 C.ar      10 UNK        -0.0712 
     12 C12        18.4834  -30.9831  -42.7469 C.ar      10 UNK        -0.0894 
     13 C13        17.3657  -30.2266  -42.3824 C.ar      10 UNK        -0.0745 
     14 C14        16.5717  -29.6503  -43.3783 C.ar      10 UNK        -0.0972 
     15 C15        16.9799  -30.0840  -40.9166 C.3       10 UNK         0.0209 
     16 S16        18.3344  -29.4364  -39.8888 S.3       10 UNK        -0.2568 
     17 C17        18.4248  -27.7003  -40.4294 C.3       10 UNK        -0.0983 
     18 CA         19.8293  -27.3483  -40.9967 C.3       3 UNK         0.0876 
     19 N          19.8566  -27.4169  -42.4666 N.am      3 UNK        -0.4424 
     20 C          20.9448  -27.2954  -43.2431 C.2       2 UNK         0.4918 
     21 O          22.0900  -27.2253  -42.8037 O.2       2 UNK        -0.4875 
     22 CA         20.7323  -27.1325  -44.7609 C.3       2 UNK         0.0481 
     23 CB         21.1142  -28.4143  -45.5133 C.3       2 UNK        -0.1831 
     24 N          19.3841  -26.7143  -45.1615 N.am      2 UNK        -0.4498 
     25 C          18.7730  -25.5782  -44.7994 C.2       1 UNK         0.5027 
     26 O          19.2563  -24.7715  -43.9977 O.2       1 UNK        -0.4969 
     27 C          20.3355  -26.0042  -40.4151 C.2       3 UNK         0.5005 
     28 O          20.6026  -25.9404  -39.2136 O.2       3 UNK        -0.5279 
     29 N          20.4883  -24.9625  -41.2493 N.am      4 UNK        -0.4463 
     30 CA         21.1925  -23.7210  -40.9101 C.3       4 UNK         0.0283 
     31 CB         20.9806  -22.6997  -42.0390 C.3       4 UNK        -0.1875 
     32 C          22.7008  -23.9202  -40.6413 C.2       4 UNK         0.4949 
     33 O          23.3105  -23.0641  -39.9998 O.2       4 UNK        -0.5039 
     34 N          23.2703  -25.0325  -41.1224 N.am      5 UNK        -0.4663 
     35 CA         24.6339  -25.4857  -40.8628 C.3       5 UNK         0.0242 
     36 CB         25.3916  -25.5210  -42.2022 C.3       5 UNK        -0.1982 
     37 C          24.5895  -26.8855  -40.2278 C.2       5 UNK         0.5017 
     38 O          23.5283  -27.5116  -40.1641 O.2       5 UNK        -0.5012 
     39 N          25.7550  -27.3896  -39.8045 N.am      6 UNK        -0.4439 
     40 CA         25.9385  -28.7527  -39.2928 C.3       6 UNK         0.0297 
     41 CB         27.1777  -28.7817  -38.3780 C.3       6 UNK        -0.2006 
     42 C          26.0217  -29.7803  -40.4423 C.2       6 UNK         0.4892 
     43 O          27.0268  -30.4818  -40.5696 O.2       6 UNK        -0.5089 
     44 N          24.9786  -29.8187  -41.2833 N.am      7 UNK        -0.4243 
     45 CA         24.8841  -30.6708  -42.4709 C.3       7 UNK         0.0196 
     46 CB         23.7139  -30.2003  -43.3490 C.3       7 UNK        -0.2007 
     47 C          24.7492  -32.1617  -42.1283 C.2       7 UNK         0.5020 
     48 O          25.4510  -32.9796  -42.7232 O.2       7 UNK        -0.5147 
     49 N          23.8596  -32.4721  -41.1707 N.am      8 UNK        -0.4734 
     50 CA         23.5828  -33.8045  -40.6104 C.3       8 UNK         0.0238 
     51 CB         24.7427  -34.2339  -39.6862 C.3       8 UNK        -0.1912 
     52 C          23.2434  -34.8703  -41.6758 C.2       8 UNK         0.5038 
     53 O          23.7836  -35.9783  -41.6318 O.2       8 UNK        -0.5046 
     54 N          22.3782  -34.5014  -42.6307 N.am      9 UNK        -0.4200 
     55 CA         21.9347  -35.3625  -43.7373 C.3       9 UNK         0.0839 
     56 C          21.1188  -36.6087  -43.2833 C.2       9 UNK         0.5513 
     57 N          21.0799  -37.6513  -44.1025 N.am      9 UNK        -0.7519 
     58 O          20.5040  -36.6323  -42.2183 O.2       9 UNK        -0.4960 
     59 C59        21.2151  -34.5481  -44.8471 C.3       10 UNK        -0.0876 
     60 S60        19.6380  -33.7844  -44.3275 S.3       10 UNK        -0.2414 
     61 C61        20.0169  -32.0131  -44.4688 C.3       10 UNK         0.0169 
     62 H62        14.4941  -22.0418  -44.3519 H         1 UNK         0.0903 
     63 H63        16.1321  -21.9147  -43.7081 H         1 UNK         0.0903 
     64 H64        15.7310  -21.1602  -45.2522 H         1 UNK         0.0903 
     65 H65        17.3565  -23.7886  -44.0022 H         1 UNK         0.3096 
     66 H66        17.5604  -25.1107  -46.4790 H         1 UNK         0.1121 
     67 H67        15.3774  -26.1780  -45.3847 H         1 UNK         0.0849 
     68 H68        16.4754  -26.9604  -44.2891 H         1 UNK         0.0849 
     69 H69        14.9861  -29.0347  -45.4124 H         1 UNK         0.0865 
     70 H70        15.8218  -30.0145  -46.5853 H         1 UNK         0.0865 
     71 H71        18.2358  -30.7538  -46.1248 H         1 UNK         0.1346 
     72 H72        19.0937  -31.4413  -41.9807 H         1 UNK         0.1412 
     73 H73        15.6952  -29.0797  -43.1025 H         1 UNK         0.1426 
     74 H74        16.6946  -31.0660  -40.5370 H         1 UNK         0.0716 
     75 H75        16.1042  -29.4439  -40.7977 H         1 UNK         0.0716 
     76 H76        18.1707  -27.1046  -39.5498 H         1 UNK         0.0695 
     77 H77        17.6386  -27.4829  -41.1542 H         1 UNK         0.0695 
     78 H78        20.5558  -28.0840  -40.6431 H         1 UNK         0.0983 
     79 H79        18.9611  -27.4944  -42.9238 H         1 UNK         0.3095 
     80 H80        21.4136  -26.3439  -45.0869 H         1 UNK         0.0454 
     81 H81        22.1481  -28.6928  -45.3111 H         1 UNK         0.0851 
     82 H82        21.0230  -28.2875  -46.5920 H         1 UNK         0.0851 
     83 H83        20.4869  -29.2520  -45.2187 H         1 UNK         0.0851 
     84 H84        18.8866  -27.3325  -45.7907 H         1 UNK         0.2976 
     85 H85        20.1887  -25.0606  -42.2146 H         1 UNK         0.3116 
     86 H86        20.7472  -23.3203  -39.9972 H         1 UNK         0.0646 
     87 H87        19.9217  -22.4920  -42.1939 H         1 UNK         0.0847 
     88 H88        21.3936  -23.0537  -42.9846 H         1 UNK         0.0847 
     89 H89        21.4657  -21.7511  -41.8052 H         1 UNK         0.0847 
     90 H90        22.6855  -25.7225  -41.5859 H         1 UNK         0.3040 
     91 H91        25.1421  -24.8120  -40.1693 H         1 UNK         0.1015 
     92 H92        26.4325  -25.8163  -42.0660 H         1 UNK         0.0786 
     93 H93        25.3964  -24.5401  -42.6781 H         1 UNK         0.0786 
     94 H94        24.9391  -26.2274  -42.9004 H         1 UNK         0.0786 
     95 H95        26.5931  -26.8370  -39.9190 H         1 UNK         0.3172 
     96 H96        25.0747  -29.0234  -38.6815 H         1 UNK         0.0595 
     97 H97        28.0885  -28.5242  -38.9200 H         1 UNK         0.0839 
     98 H98        27.3233  -29.7743  -37.9493 H         1 UNK         0.0839 
     99 H99        27.0735  -28.0852  -37.5459 H         1 UNK         0.0839 
    100 H100       24.2116  -29.1773  -41.1054 H         1 UNK         0.2998 
    101 H101       25.8059  -30.5477  -43.0441 H         1 UNK         0.0822 
    102 H102       22.7643  -30.2231  -42.8131 H         1 UNK         0.0787 
    103 H103       23.8762  -29.1788  -43.6932 H         1 UNK         0.0787 
    104 H104       23.6083  -30.8284  -44.2347 H         1 UNK         0.0787 
    105 H105       23.3379  -31.7096  -40.7608 H         1 UNK         0.3055 
    106 H106       22.6893  -33.7064  -39.9914 H         1 UNK         0.1106 
    107 H107       25.6684  -34.3817  -40.2437 H         1 UNK         0.0828 
    108 H108       24.5144  -35.1716  -39.1780 H         1 UNK         0.0828 
    109 H109       24.9330  -33.4876  -38.9149 H         1 UNK         0.0828 
    110 H110       21.9583  -33.5865  -42.5808 H         1 UNK         0.2931 
    111 H111       22.8509  -35.7517  -44.1868 H         1 UNK         0.0412 
    112 H112       20.5487  -38.4654  -43.8340 H         1 UNK         0.3472 
    113 H113       21.5764  -37.6458  -44.9802 H         1 UNK         0.3472 
    114 H114       21.8876  -33.7765  -45.2252 H         1 UNK         0.0970 
    115 H115       21.0082  -35.1889  -45.7060 H         1 UNK         0.0970 
    116 H116       20.3334  -31.7918  -45.4894 H         1 UNK         0.0612 
    117 H117       20.8566  -31.7640  -43.8185 H         1 UNK         0.0612 
@<TRIPOS>BOND
     1    1    2 1    
     2    1   62 1    
     3    1   63 1    
     4    1   64 1    
     5    2    3 2    
     6    2    4 am   BACKBONE|DICT|INTERRES
     7    4    5 1    
     8    4   65 1    
     9    5    6 1    
    10    5   25 1    
    11    5   66 1    
    12    6    7 1    
    13    6   67 1    
    14    6   68 1    
    15    7    8 1    
    16    8    9 1    
    17    8   69 1    
    18    8   70 1    
    19    9   10 ar   
    20    9   14 ar   
    21   10   11 ar   
    22   10   71 1    
    23   11   12 ar   
    24   11   61 1    
    25   12   13 ar   
    26   12   72 1    
    27   13   14 ar   
    28   13   15 1    
    29   14   73 1    
    30   15   16 1    
    31   15   74 1    
    32   15   75 1    
    33   16   17 1    
    34   17   18 1    
    35   17   76 1    
    36   17   77 1    
    37   18   19 1    
    38   18   27 1    
    39   18   78 1    
    40   19   20 am   BACKBONE|DICT|INTERRES
    41   19   79 1    
    42   20   21 2    
    43   20   22 1    
    44   22   23 1    
    45   22   24 1    
    46   22   80 1    
    47   23   81 1    
    48   23   82 1    
    49   23   83 1    
    50   24   25 am   BACKBONE|DICT|INTERRES
    51   24   84 1    
    52   25   26 2    
    53   27   28 2    
    54   27   29 am   BACKBONE|DICT|INTERRES
    55   29   30 1    
    56   29   85 1    
    57   30   31 1    
    58   30   32 1    
    59   30   86 1    
    60   31   87 1    
    61   31   88 1    
    62   31   89 1    
    63   32   33 2    
    64   32   34 am   BACKBONE|DICT|INTERRES
    65   34   35 1    
    66   34   90 1    
    67   35   36 1    
    68   35   37 1    
    69   35   91 1    
    70   36   92 1    
    71   36   93 1    
    72   36   94 1    
    73   37   38 2    
    74   37   39 am   BACKBONE|DICT|INTERRES
    75   39   40 1    
    76   39   95 1    
    77   40   41 1    
    78   40   42 1    
    79   40   96 1    
    80   41   97 1    
    81   41   98 1    
    82   41   99 1    
    83   42   43 2    
    84   42   44 am   BACKBONE|DICT|INTERRES
    85   44   45 1    
    86   44  100 1    
    87   45   46 1    
    88   45   47 1    
    89   45  101 1    
    90   46  102 1    
    91   46  103 1    
    92   46  104 1    
    93   47   48 2    
    94   47   49 am   BACKBONE|DICT|INTERRES
    95   49   50 1    
    96   49  105 1    
    97   50   51 1    
    98   50   52 1    
    99   50  106 1    
   100   51  107 1    
   101   51  108 1    
   102   51  109 1    
   103   52   53 2    
   104   52   54 am   BACKBONE|DICT|INTERRES
   105   54   55 1    
   106   54  110 1    
   107   55   56 1    
   108   55   59 1    
   109   55  111 1    
   110   56   57 am   BACKBONE|DICT|INTERRES
   111   56   58 2    
   112   57  112 1    
   113   57  113 1    
   114   59   60 1    
   115   59  114 1    
   116   59  115 1    
   117   60   61 1    
   118   61  116 1    
   119   61  117 1    
@<TRIPOS>SUBSTRUCTURE
     1 UNK         1 GROUP             0       ****    0 ROOT    
