@<TRIPOS>MOLECULE
3R8
117   119    1
SMALL
USER_CHARGES


@<TRIPOS>ATOM
      1 CA         14.1070  -24.0856  -46.3628 C.3       0 UNK        -0.2013 
      2 C          15.3479  -24.9105  -46.0582 C.2       0 UNK         0.4866 
      3 O          15.9297  -25.5037  -46.9669 O.2       0 UNK        -0.5176 
      4 N          15.7751  -24.9399  -44.7897 N.am      1 UNK        -0.4884 
      5 CA         16.9164  -25.7113  -44.2726 C.3       1 UNK         0.0853 
      6 C6         16.7646  -25.9882  -42.7528 C.3       10 UNK        -0.0849 
      7 S7         15.3455  -27.0873  -42.4156 S.3       10 UNK        -0.2776 
      8 C8         16.0924  -28.4001  -41.3831 C.3       10 UNK         0.0316 
      9 C9         17.2833  -29.1186  -42.0178 C.ar      10 UNK        -0.0863 
     10 C10        18.3781  -29.4666  -41.2199 C.ar      10 UNK        -0.1009 
     11 C11        19.4790  -30.1335  -41.7656 C.ar      10 UNK        -0.0712 
     12 C12        19.4910  -30.4360  -43.1312 C.ar      10 UNK        -0.0894 
     13 C13        18.4007  -30.1051  -43.9401 C.ar      10 UNK        -0.0745 
     14 C14        17.2955  -29.4604  -43.3749 C.ar      10 UNK        -0.0972 
     15 C15        18.3922  -30.4736  -45.4168 C.3       10 UNK         0.0209 
     16 S16        18.4624  -29.0001  -46.4860 S.3       10 UNK        -0.2568 
     17 C17        20.1910  -28.9844  -47.0979 C.3       10 UNK        -0.0983 
     18 CA         21.0530  -27.7955  -46.5877 C.3       3 UNK         0.0876 
     19 N          20.2928  -26.5473  -46.6228 N.am      3 UNK        -0.4424 
     20 C          20.7704  -25.2986  -46.5892 C.2       2 UNK         0.4918 
     21 O          21.9673  -25.0169  -46.6268 O.2       2 UNK        -0.4875 
     22 CA         19.7180  -24.1781  -46.4651 C.3       2 UNK         0.0481 
     23 CB         19.4457  -23.5397  -47.8359 C.3       2 UNK        -0.1831 
     24 N          18.4500  -24.6504  -45.8920 N.am      2 UNK        -0.4498 
     25 C          18.2829  -25.0781  -44.6323 C.2       1 UNK         0.5027 
     26 O          19.1803  -25.0223  -43.7915 O.2       1 UNK        -0.4969 
     27 C          21.6927  -28.1015  -45.2143 C.2       3 UNK         0.5005 
     28 O          22.5180  -29.0143  -45.1426 O.2       3 UNK        -0.5279 
     29 N          21.3171  -27.3721  -44.1521 N.am      4 UNK        -0.4463 
     30 CA         21.8414  -27.5709  -42.8023 C.3       4 UNK         0.0283 
     31 CB         20.9412  -26.8488  -41.7874 C.3       4 UNK        -0.1875 
     32 C          23.2912  -27.0869  -42.6618 C.2       4 UNK         0.4949 
     33 O          23.6130  -25.9782  -43.0922 O.2       4 UNK        -0.5039 
     34 N          24.1123  -27.9068  -41.9977 N.am      5 UNK        -0.4663 
     35 CA         25.4861  -27.5919  -41.5920 C.3       5 UNK         0.0242 
     36 CB         26.4434  -28.5795  -42.2859 C.3       5 UNK        -0.1982 
     37 C          25.6210  -27.6405  -40.0570 C.2       5 UNK         0.5017 
     38 O          26.7086  -27.9154  -39.5498 O.2       5 UNK        -0.5012 
     39 N          24.4973  -27.4262  -39.3500 N.am      6 UNK        -0.4439 
     40 CA         24.2842  -27.5929  -37.9014 C.3       6 UNK         0.0297 
     41 CB         25.1869  -26.6428  -37.0860 C.3       6 UNK        -0.2006 
     42 C          24.3853  -29.0575  -37.4167 C.2       6 UNK         0.4892 
     43 O          24.4240  -29.2981  -36.2092 O.2       6 UNK        -0.5089 
     44 N          24.4029  -30.0014  -38.3629 N.am      7 UNK        -0.4243 
     45 CA         24.5356  -31.4456  -38.2227 C.3       7 UNK         0.0196 
     46 CB         25.9149  -31.8082  -37.6295 C.3       7 UNK        -0.2007 
     47 C          24.3660  -32.0467  -39.6276 C.2       7 UNK         0.5020 
     48 O          24.2273  -31.2951  -40.5994 O.2       7 UNK        -0.5147 
     49 N          24.4049  -33.3853  -39.7058 N.am      8 UNK        -0.4734 
     50 CA         24.3662  -34.2016  -40.9300 C.3       8 UNK         0.0238 
     51 CB         25.6380  -33.9720  -41.7763 C.3       8 UNK        -0.1912 
     52 C          23.0678  -34.0286  -41.7434 C.2       8 UNK         0.5038 
     53 O          23.1098  -33.9824  -42.9744 O.2       8 UNK        -0.5046 
     54 N          21.9372  -33.9336  -41.0328 N.am      9 UNK        -0.4200 
     55 CA         20.5998  -33.7183  -41.6077 C.3       9 UNK         0.0839 
     56 C          19.9859  -34.9513  -42.3327 C.2       9 UNK         0.5513 
     57 N          20.5491  -36.1473  -42.2088 N.am      9 UNK        -0.7519 
     58 O          18.9795  -34.8178  -43.0235 O.2       9 UNK        -0.4960 
     59 C59        19.6037  -33.1406  -40.5658 C.3       10 UNK        -0.0876 
     60 S60        20.2318  -31.7233  -39.5958 S.3       10 UNK        -0.2414 
     61 C61        20.6634  -30.5084  -40.8825 C.3       10 UNK         0.0169 
     62 H62        13.3328  -24.7198  -46.7939 H         1 UNK         0.0903 
     63 H63        13.7002  -23.6147  -45.4682 H         1 UNK         0.0903 
     64 H64        14.3447  -23.3016  -47.0813 H         1 UNK         0.0903 
     65 H65        15.2640  -24.4175  -44.0919 H         1 UNK         0.3096 
     66 H66        16.9169  -26.6811  -44.7762 H         1 UNK         0.1121 
     67 H67        16.6348  -25.0565  -42.1997 H         1 UNK         0.0849 
     68 H68        17.6642  -26.4521  -42.3472 H         1 UNK         0.0849 
     69 H69        16.3833  -27.9546  -40.4304 H         1 UNK         0.0865 
     70 H70        15.3255  -29.1404  -41.1523 H         1 UNK         0.0865 
     71 H71        18.3767  -29.2250  -40.1656 H         1 UNK         0.1346 
     72 H72        20.3472  -30.9335  -43.5656 H         1 UNK         0.1412 
     73 H73        16.4473  -29.2164  -43.9997 H         1 UNK         0.1426 
     74 H74        17.4696  -31.0132  -45.6355 H         1 UNK         0.0716 
     75 H75        19.2034  -31.1623  -45.6556 H         1 UNK         0.0716 
     76 H76        20.6757  -29.9430  -46.9047 H         1 UNK         0.0695 
     77 H77        20.1278  -28.9203  -48.1852 H         1 UNK         0.0695 
     78 H78        21.8923  -27.6793  -47.2770 H         1 UNK         0.0983 
     79 H79        19.2903  -26.6704  -46.6127 H         1 UNK         0.3095 
     80 H80        20.1262  -23.4117  -45.8032 H         1 UNK         0.0454 
     81 H81        20.3666  -23.1577  -48.2786 H         1 UNK         0.0851 
     82 H82        19.0188  -24.2567  -48.5383 H         1 UNK         0.0851 
     83 H83        18.7557  -22.7000  -47.7524 H         1 UNK         0.0851 
     84 H84        17.6618  -24.7621  -46.5245 H         1 UNK         0.2976 
     85 H85        20.6659  -26.6075  -44.2765 H         1 UNK         0.3116 
     86 H86        21.8089  -28.6401  -42.5930 H         1 UNK         0.0646 
     87 H87        21.2464  -27.0662  -40.7637 H         1 UNK         0.0847 
     88 H88        19.9026  -27.1595  -41.8880 H         1 UNK         0.0847 
     89 H89        20.9776  -25.7661  -41.9149 H         1 UNK         0.0847 
     90 H90        23.7712  -28.8181  -41.7196 H         1 UNK         0.3040 
     91 H91        25.7563  -26.5785  -41.8971 H         1 UNK         0.1015 
     92 H92        26.3316  -28.5422  -43.3697 H         1 UNK         0.0786 
     93 H93        26.2625  -29.6068  -41.9659 H         1 UNK         0.0786 
     94 H94        27.4847  -28.3442  -42.0618 H         1 UNK         0.0786 
     95 H95        23.6717  -27.1856  -39.8800 H         1 UNK         0.3172 
     96 H96        23.2509  -27.2938  -37.7195 H         1 UNK         0.0595 
     97 H97        24.9079  -26.6486  -36.0316 H         1 UNK         0.0839 
     98 H98        25.1012  -25.6142  -37.4359 H         1 UNK         0.0839 
     99 H99        26.2369  -26.9312  -37.1414 H         1 UNK         0.0839 
    100 H100       24.3383  -29.7201  -39.3334 H         1 UNK         0.2998 
    101 H101       23.7345  -31.8153  -37.5800 H         1 UNK         0.0822 
    102 H102       26.0497  -31.3869  -36.6335 H         1 UNK         0.0787 
    103 H103       26.0385  -32.8870  -37.5313 H         1 UNK         0.0787 
    104 H104       26.7280  -31.4416  -38.2578 H         1 UNK         0.0787 
    105 H105       24.5064  -33.9047  -38.8440 H         1 UNK         0.3055 
    106 H106       24.3759  -35.2441  -40.6071 H         1 UNK         0.1106 
    107 H107       25.6730  -32.9636  -42.1902 H         1 UNK         0.0828 
    108 H108       26.5413  -34.1235  -41.1855 H         1 UNK         0.0828 
    109 H109       25.6815  -34.6679  -42.6151 H         1 UNK         0.0828 
    110 H110       21.9898  -33.9678  -40.0258 H         1 UNK         0.2931 
    111 H111       20.7179  -32.9673  -42.3890 H         1 UNK         0.0412 
    112 H112       21.3747  -36.2688  -41.6447 H         1 UNK         0.3472 
    113 H113       20.1427  -36.9368  -42.6863 H         1 UNK         0.3472 
    114 H114       18.6803  -32.8295  -41.0588 H         1 UNK         0.0970 
    115 H115       19.3137  -33.9166  -39.8550 H         1 UNK         0.0970 
    116 H116       21.4915  -30.8965  -41.4774 H         1 UNK         0.0612 
    117 H117       21.0391  -29.6108  -40.3907 H         1 UNK         0.0612 
@<TRIPOS>BOND
     1    1    2 1    
     2    1   62 1    
     3    1   63 1    
     4    1   64 1    
     5    2    3 2    
     6    2    4 am   BACKBONE|DICT|INTERRES
     7    4    5 1    
     8    4   65 1    
     9    5    6 1    
    10    5   25 1    
    11    5   66 1    
    12    6    7 1    
    13    6   67 1    
    14    6   68 1    
    15    7    8 1    
    16    8    9 1    
    17    8   69 1    
    18    8   70 1    
    19    9   10 ar   
    20    9   14 ar   
    21   10   11 ar   
    22   10   71 1    
    23   11   12 ar   
    24   11   61 1    
    25   12   13 ar   
    26   12   72 1    
    27   13   14 ar   
    28   13   15 1    
    29   14   73 1    
    30   15   16 1    
    31   15   74 1    
    32   15   75 1    
    33   16   17 1    
    34   17   18 1    
    35   17   76 1    
    36   17   77 1    
    37   18   19 1    
    38   18   27 1    
    39   18   78 1    
    40   19   20 am   BACKBONE|DICT|INTERRES
    41   19   79 1    
    42   20   21 2    
    43   20   22 1    
    44   22   23 1    
    45   22   24 1    
    46   22   80 1    
    47   23   81 1    
    48   23   82 1    
    49   23   83 1    
    50   24   25 am   BACKBONE|DICT|INTERRES
    51   24   84 1    
    52   25   26 2    
    53   27   28 2    
    54   27   29 am   BACKBONE|DICT|INTERRES
    55   29   30 1    
    56   29   85 1    
    57   30   31 1    
    58   30   32 1    
    59   30   86 1    
    60   31   87 1    
    61   31   88 1    
    62   31   89 1    
    63   32   33 2    
    64   32   34 am   BACKBONE|DICT|INTERRES
    65   34   35 1    
    66   34   90 1    
    67   35   36 1    
    68   35   37 1    
    69   35   91 1    
    70   36   92 1    
    71   36   93 1    
    72   36   94 1    
    73   37   38 2    
    74   37   39 am   BACKBONE|DICT|INTERRES
    75   39   40 1    
    76   39   95 1    
    77   40   41 1    
    78   40   42 1    
    79   40   96 1    
    80   41   97 1    
    81   41   98 1    
    82   41   99 1    
    83   42   43 2    
    84   42   44 am   BACKBONE|DICT|INTERRES
    85   44   45 1    
    86   44  100 1    
    87   45   46 1    
    88   45   47 1    
    89   45  101 1    
    90   46  102 1    
    91   46  103 1    
    92   46  104 1    
    93   47   48 2    
    94   47   49 am   BACKBONE|DICT|INTERRES
    95   49   50 1    
    96   49  105 1    
    97   50   51 1    
    98   50   52 1    
    99   50  106 1    
   100   51  107 1    
   101   51  108 1    
   102   51  109 1    
   103   52   53 2    
   104   52   54 am   BACKBONE|DICT|INTERRES
   105   54   55 1    
   106   54  110 1    
   107   55   56 1    
   108   55   59 1    
   109   55  111 1    
   110   56   57 am   BACKBONE|DICT|INTERRES
   111   56   58 2    
   112   57  112 1    
   113   57  113 1    
   114   59   60 1    
   115   59  114 1    
   116   59  115 1    
   117   60   61 1    
   118   61  116 1    
   119   61  117 1    
@<TRIPOS>SUBSTRUCTURE
     1 UNK         1 GROUP             0       ****    0 ROOT    
