@<TRIPOS>MOLECULE
3R8
117   119    1
SMALL
USER_CHARGES


@<TRIPOS>ATOM
      1 CA         17.0857  -21.2501  -43.9139 C.3       0 UNK        -0.2013 
      2 C          16.9667  -22.3169  -44.9919 C.2       0 UNK         0.4866 
      3 O          16.9606  -21.9899  -46.1788 O.2       0 UNK        -0.5176 
      4 N          16.8718  -23.5887  -44.5861 N.am      1 UNK        -0.4884 
      5 CA         16.7963  -24.7526  -45.4734 C.3       1 UNK         0.0853 
      6 C6         16.2187  -26.0123  -44.7784 C.3       10 UNK        -0.0849 
      7 S7         17.0381  -26.5016  -43.2216 S.3       10 UNK        -0.2776 
      8 C8         16.2820  -28.1412  -42.9482 C.3       10 UNK         0.0316 
      9 C9         17.2661  -29.2669  -43.2337 C.ar      10 UNK        -0.0863 
     10 C10        17.6579  -30.1401  -42.2132 C.ar      10 UNK        -0.1009 
     11 C11        18.6139  -31.1307  -42.4543 C.ar      10 UNK        -0.0712 
     12 C12        19.1626  -31.2601  -43.7329 C.ar      10 UNK        -0.0894 
     13 C13        18.7629  -30.4095  -44.7659 C.ar      10 UNK        -0.0745 
     14 C14        17.8042  -29.4254  -44.5135 C.ar      10 UNK        -0.0972 
     15 C15        19.3718  -30.5421  -46.1522 C.3       10 UNK         0.0209 
     16 S16        20.2493  -29.0275  -46.6513 S.3       10 UNK        -0.2568 
     17 C17        21.6872  -29.0148  -45.5190 C.3       10 UNK        -0.0983 
     18 CA         21.6606  -27.9521  -44.3771 C.3       3 UNK         0.0876 
     19 N          20.7882  -26.8036  -44.6645 N.am      3 UNK        -0.4424 
     20 C          20.8209  -25.6079  -44.0588 C.2       2 UNK         0.4918 
     21 O          21.5810  -25.3506  -43.1251 O.2       2 UNK        -0.4875 
     22 CA         19.8379  -24.5312  -44.5528 C.3       2 UNK         0.0481 
     23 CB         20.5204  -23.1514  -44.6030 C.3       2 UNK        -0.1831 
     24 N          19.3174  -24.8588  -45.8850 N.am      2 UNK        -0.4498 
     25 C          18.0605  -25.0496  -46.3251 C.2       1 UNK         0.5027 
     26 O          17.8785  -25.4589  -47.4707 O.2       1 UNK        -0.4969 
     27 C          21.5006  -28.5550  -42.9584 C.2       3 UNK         0.5005 
     28 O          22.3290  -29.3781  -42.5586 O.2       3 UNK        -0.5279 
     29 N          20.5191  -28.0690  -42.1823 N.am      4 UNK        -0.4463 
     30 CA         20.4306  -28.2303  -40.7286 C.3       4 UNK         0.0283 
     31 CB         19.1514  -27.5535  -40.2085 C.3       4 UNK        -0.1875 
     32 C          21.6469  -27.6404  -39.9931 C.2       4 UNK         0.4949 
     33 O          22.1329  -28.2554  -39.0455 O.2       4 UNK        -0.5039 
     34 N          22.1384  -26.4801  -40.4576 N.am      5 UNK        -0.4663 
     35 CA         23.3121  -25.7962  -39.9020 C.3       5 UNK         0.0242 
     36 CB         23.3439  -24.3439  -40.4041 C.3       5 UNK        -0.1982 
     37 C          24.6307  -26.5129  -40.2369 C.2       5 UNK         0.5017 
     38 O          25.5850  -26.4182  -39.4652 O.2       5 UNK        -0.5012 
     39 N          24.6465  -27.2392  -41.3629 N.am      6 UNK        -0.4439 
     40 CA         25.7339  -28.1309  -41.7721 C.3       6 UNK         0.0297 
     41 CB         25.6643  -28.3413  -43.2946 C.3       6 UNK        -0.2006 
     42 C          25.7007  -29.4870  -41.0395 C.2       6 UNK         0.4892 
     43 O          26.6740  -30.2351  -41.1365 O.2       6 UNK        -0.5089 
     44 N          24.5897  -29.7818  -40.3435 N.am      7 UNK        -0.4243 
     45 CA         24.2747  -31.0251  -39.6332 C.3       7 UNK         0.0196 
     46 CB         25.2132  -31.2242  -38.4244 C.3       7 UNK        -0.2007 
     47 C          24.2265  -32.2462  -40.5701 C.2       7 UNK         0.5020 
     48 O          24.6479  -33.3377  -40.1830 O.2       7 UNK        -0.5147 
     49 N          23.6967  -32.0511  -41.7880 N.am      8 UNK        -0.4734 
     50 CA         23.6416  -33.0707  -42.8455 C.3       8 UNK         0.0238 
     51 CB         23.1790  -32.4118  -44.1523 C.3       8 UNK        -0.1912 
     52 C          22.7611  -34.2907  -42.5122 C.2       8 UNK         0.5038 
     53 O          22.9520  -35.3519  -43.1073 O.2       8 UNK        -0.5046 
     54 N          21.8334  -34.1200  -41.5635 N.am      9 UNK        -0.4200 
     55 CA         20.9973  -35.1825  -40.9865 C.3       9 UNK         0.0839 
     56 C          21.7439  -36.0854  -39.9598 C.2       9 UNK         0.5513 
     57 N          22.9670  -35.7713  -39.5456 N.am      9 UNK        -0.7519 
     58 O          21.2004  -37.1012  -39.5339 O.2       9 UNK        -0.4960 
     59 C59        19.6878  -34.6106  -40.3790 C.3       10 UNK        -0.0876 
     60 S60        18.6503  -33.7697  -41.6225 S.3       10 UNK        -0.2414 
     61 C61        19.0959  -32.0305  -41.3282 C.3       10 UNK         0.0169 
     62 H62        16.2377  -20.5678  -43.9662 H         1 UNK         0.0903 
     63 H63        17.1128  -21.6820  -42.9136 H         1 UNK         0.0903 
     64 H64        17.9979  -20.6716  -44.0571 H         1 UNK         0.0903 
     65 H65        16.8810  -23.8039  -43.5989 H         1 UNK         0.3096 
     66 H66        16.0456  -24.4796  -46.2195 H         1 UNK         0.1121 
     67 H67        16.2099  -26.8565  -45.4698 H         1 UNK         0.0849 
     68 H68        15.1694  -25.8295  -44.5403 H         1 UNK         0.0849 
     69 H69        15.9346  -28.1894  -41.9151 H         1 UNK         0.0865 
     70 H70        15.3940  -28.2675  -43.5691 H         1 UNK         0.0865 
     71 H71        17.2406  -30.0326  -41.2216 H         1 UNK         0.1346 
     72 H72        19.9006  -32.0269  -43.9178 H         1 UNK         0.1412 
     73 H73        17.5044  -28.7614  -45.3113 H         1 UNK         0.1426 
     74 H74        18.5752  -30.7410  -46.8704 H         1 UNK         0.0716 
     75 H75        20.0553  -31.3910  -46.2066 H         1 UNK         0.0716 
     76 H76        22.5582  -28.8240  -46.1479 H         1 UNK         0.0695 
     77 H77        21.8459  -30.0212  -45.1341 H         1 UNK         0.0695 
     78 H78        22.6686  -27.5324  -44.3471 H         1 UNK         0.0983 
     79 H79        20.1150  -26.9583  -45.4024 H         1 UNK         0.3095 
     80 H80        19.0482  -24.5047  -43.8076 H         1 UNK         0.0454 
     81 H81        21.4144  -23.1681  -45.2274 H         1 UNK         0.0851 
     82 H82        20.8255  -22.8277  -43.6070 H         1 UNK         0.0851 
     83 H83        19.8574  -22.3851  -45.0011 H         1 UNK         0.0851 
     84 H84        20.0445  -25.0348  -46.5641 H         1 UNK         0.2976 
     85 H85        19.8577  -27.4352  -42.6066 H         1 UNK         0.3116 
     86 H86        20.3809  -29.2986  -40.5097 H         1 UNK         0.0646 
     87 H87        18.2561  -27.9673  -40.6651 H         1 UNK         0.0847 
     88 H88        19.1522  -26.4804  -40.4039 H         1 UNK         0.0847 
     89 H89        19.0512  -27.6875  -39.1305 H         1 UNK         0.0847 
     90 H90        21.7142  -26.0538  -41.2767 H         1 UNK         0.3040 
     91 H91        23.2149  -25.7805  -38.8139 H         1 UNK         0.1015 
     92 H92        24.1747  -23.7957  -39.9575 H         1 UNK         0.0786 
     93 H93        22.4282  -23.8130  -40.1433 H         1 UNK         0.0786 
     94 H94        23.4649  -24.2919  -41.4868 H         1 UNK         0.0786 
     95 H95        23.8066  -27.2558  -41.9224 H         1 UNK         0.3172 
     96 H96        26.6870  -27.6521  -41.5377 H         1 UNK         0.0595 
     97 H97        24.7611  -28.8750  -43.5913 H         1 UNK         0.0839 
     98 H98        26.5135  -28.9308  -43.6430 H         1 UNK         0.0839 
     99 H99        25.6896  -27.3928  -43.8311 H         1 UNK         0.0839 
    100 H100       23.8490  -29.0928  -40.3370 H         1 UNK         0.2998 
    101 H101       23.2621  -30.9030  -39.2456 H         1 UNK         0.0822 
    102 H102       25.2150  -30.3477  -37.7764 H         1 UNK         0.0787 
    103 H103       24.8951  -32.0735  -37.8184 H         1 UNK         0.0787 
    104 H104       26.2409  -31.4147  -38.7354 H         1 UNK         0.0787 
    105 H105       23.3481  -31.1260  -42.0250 H         1 UNK         0.3055 
    106 H106       24.6570  -33.4453  -42.9926 H         1 UNK         0.1106 
    107 H107       22.1719  -32.0113  -44.0539 H         1 UNK         0.0828 
    108 H108       23.1681  -33.1297  -44.9736 H         1 UNK         0.0828 
    109 H109       23.8402  -31.5951  -44.4429 H         1 UNK         0.0828 
    110 H110       21.7722  -33.2145  -41.1262 H         1 UNK         0.2931 
    111 H111       20.7086  -35.8474  -41.8031 H         1 UNK         0.0412 
    112 H112       23.4444  -34.9421  -39.8819 H         1 UNK         0.3472 
    113 H113       23.4285  -36.3754  -38.8841 H         1 UNK         0.3472 
    114 H114       19.0848  -35.4149  -39.9530 H         1 UNK         0.0970 
    115 H115       19.9054  -33.9314  -39.5526 H         1 UNK         0.0970 
    116 H116       20.1781  -31.9285  -41.2463 H         1 UNK         0.0612 
    117 H117       18.6815  -31.7142  -40.3697 H         1 UNK         0.0612 
@<TRIPOS>BOND
     1    1    2 1    
     2    1   62 1    
     3    1   63 1    
     4    1   64 1    
     5    2    3 2    
     6    2    4 am   BACKBONE|DICT|INTERRES
     7    4    5 1    
     8    4   65 1    
     9    5    6 1    
    10    5   25 1    
    11    5   66 1    
    12    6    7 1    
    13    6   67 1    
    14    6   68 1    
    15    7    8 1    
    16    8    9 1    
    17    8   69 1    
    18    8   70 1    
    19    9   10 ar   
    20    9   14 ar   
    21   10   11 ar   
    22   10   71 1    
    23   11   12 ar   
    24   11   61 1    
    25   12   13 ar   
    26   12   72 1    
    27   13   14 ar   
    28   13   15 1    
    29   14   73 1    
    30   15   16 1    
    31   15   74 1    
    32   15   75 1    
    33   16   17 1    
    34   17   18 1    
    35   17   76 1    
    36   17   77 1    
    37   18   19 1    
    38   18   27 1    
    39   18   78 1    
    40   19   20 am   BACKBONE|DICT|INTERRES
    41   19   79 1    
    42   20   21 2    
    43   20   22 1    
    44   22   23 1    
    45   22   24 1    
    46   22   80 1    
    47   23   81 1    
    48   23   82 1    
    49   23   83 1    
    50   24   25 am   BACKBONE|DICT|INTERRES
    51   24   84 1    
    52   25   26 2    
    53   27   28 2    
    54   27   29 am   BACKBONE|DICT|INTERRES
    55   29   30 1    
    56   29   85 1    
    57   30   31 1    
    58   30   32 1    
    59   30   86 1    
    60   31   87 1    
    61   31   88 1    
    62   31   89 1    
    63   32   33 2    
    64   32   34 am   BACKBONE|DICT|INTERRES
    65   34   35 1    
    66   34   90 1    
    67   35   36 1    
    68   35   37 1    
    69   35   91 1    
    70   36   92 1    
    71   36   93 1    
    72   36   94 1    
    73   37   38 2    
    74   37   39 am   BACKBONE|DICT|INTERRES
    75   39   40 1    
    76   39   95 1    
    77   40   41 1    
    78   40   42 1    
    79   40   96 1    
    80   41   97 1    
    81   41   98 1    
    82   41   99 1    
    83   42   43 2    
    84   42   44 am   BACKBONE|DICT|INTERRES
    85   44   45 1    
    86   44  100 1    
    87   45   46 1    
    88   45   47 1    
    89   45  101 1    
    90   46  102 1    
    91   46  103 1    
    92   46  104 1    
    93   47   48 2    
    94   47   49 am   BACKBONE|DICT|INTERRES
    95   49   50 1    
    96   49  105 1    
    97   50   51 1    
    98   50   52 1    
    99   50  106 1    
   100   51  107 1    
   101   51  108 1    
   102   51  109 1    
   103   52   53 2    
   104   52   54 am   BACKBONE|DICT|INTERRES
   105   54   55 1    
   106   54  110 1    
   107   55   56 1    
   108   55   59 1    
   109   55  111 1    
   110   56   57 am   BACKBONE|DICT|INTERRES
   111   56   58 2    
   112   57  112 1    
   113   57  113 1    
   114   59   60 1    
   115   59  114 1    
   116   59  115 1    
   117   60   61 1    
   118   61  116 1    
   119   61  117 1    
@<TRIPOS>SUBSTRUCTURE
     1 UNK         1 GROUP             0       ****    0 ROOT    
