@<TRIPOS>MOLECULE
3R8
117   119    1
SMALL
USER_CHARGES


@<TRIPOS>ATOM
      1 CA         13.5170  -29.2646  -47.6704 C.3       0 UNK        -0.2013 
      2 C          14.8863  -29.1565  -47.0161 C.2       0 UNK         0.4866 
      3 O          15.7732  -29.9551  -47.3187 O.2       0 UNK        -0.5176 
      4 N          15.0606  -28.1804  -46.1167 N.am      1 UNK        -0.4884 
      5 CA         16.3147  -27.8951  -45.4100 C.3       1 UNK         0.0853 
      6 C6         16.1047  -26.8931  -44.2428 C.3       10 UNK        -0.0849 
      7 S7         14.8138  -27.4260  -43.0655 S.3       10 UNK        -0.2776 
      8 C8         15.5242  -26.9360  -41.4564 C.3       10 UNK         0.0316 
      9 C9         16.7397  -27.7661  -41.0589 C.ar      10 UNK        -0.0863 
     10 C10        16.6858  -29.1621  -41.0931 C.ar      10 UNK        -0.1009 
     11 C11        17.8009  -29.9294  -40.7471 C.ar      10 UNK        -0.0712 
     12 C12        18.9674  -29.2913  -40.3156 C.ar      10 UNK        -0.0894 
     13 C13        19.0350  -27.8957  -40.2734 C.ar      10 UNK        -0.0745 
     14 C14        17.9181  -27.1384  -40.6436 C.ar      10 UNK        -0.0972 
     15 C15        20.3237  -27.2061  -39.8483 C.3       10 UNK         0.0209 
     16 S16        21.6460  -27.3999  -41.0860 S.3       10 UNK        -0.2568 
     17 C17        20.9402  -26.5483  -42.5348 C.3       10 UNK        -0.0983 
     18 CA         21.6782  -26.9227  -43.8444 C.3       3 UNK         0.0876 
     19 N          20.7773  -26.8238  -44.9888 N.am      3 UNK        -0.4424 
     20 C          20.9664  -27.4121  -46.1752 C.2       2 UNK         0.4918 
     21 O          21.9927  -28.0156  -46.4940 O.2       2 UNK        -0.4875 
     22 CA         19.7473  -27.4049  -47.1070 C.3       2 UNK         0.0481 
     23 CB         19.9319  -28.2828  -48.3588 C.3       2 UNK        -0.1831 
     24 N          18.5899  -27.8741  -46.3421 N.am      2 UNK        -0.4498 
     25 C          17.3655  -27.3407  -46.3944 C.2       1 UNK         0.5027 
     26 O          17.0530  -26.4181  -47.1523 O.2       1 UNK        -0.4969 
     27 C          22.9575  -26.0857  -44.0268 C.2       3 UNK         0.5005 
     28 O          22.9218  -25.0203  -44.6481 O.2       3 UNK        -0.5279 
     29 N          24.0423  -26.5650  -43.4093 N.am      4 UNK        -0.4463 
     30 CA         25.3154  -25.8647  -43.2358 C.3       4 UNK         0.0283 
     31 CB         26.4031  -26.5788  -44.0602 C.3       4 UNK        -0.1875 
     32 C          25.6651  -25.7857  -41.7367 C.2       4 UNK         0.4949 
     33 O          26.8432  -25.8354  -41.3825 O.2       4 UNK        -0.5039 
     34 N          24.6269  -25.6885  -40.8880 N.am      5 UNK        -0.4663 
     35 CA         24.6563  -25.7112  -39.4190 C.3       5 UNK         0.0242 
     36 CB         25.3512  -24.4491  -38.8636 C.3       5 UNK        -0.1982 
     37 C          25.2522  -27.0243  -38.8742 C.2       5 UNK         0.5017 
     38 O          26.1910  -26.9947  -38.0755 O.2       5 UNK        -0.5012 
     39 N          24.7095  -28.1561  -39.3406 N.am      6 UNK        -0.4439 
     40 CA         25.1703  -29.5026  -39.0150 C.3       6 UNK         0.0297 
     41 CB         26.3153  -29.8962  -39.9679 C.3       6 UNK        -0.2006 
     42 C          24.0057  -30.4916  -39.1285 C.2       6 UNK         0.4892 
     43 O          23.0227  -30.2141  -39.8192 O.2       6 UNK        -0.5089 
     44 N          24.1695  -31.6597  -38.4935 N.am      7 UNK        -0.4243 
     45 CA         23.2104  -32.7729  -38.4866 C.3       7 UNK         0.0196 
     46 CB         23.6583  -33.8063  -37.4389 C.3       7 UNK        -0.2007 
     47 C          22.9945  -33.4498  -39.8562 C.2       7 UNK         0.5020 
     48 O          22.0769  -34.2599  -39.9864 O.2       7 UNK        -0.5147 
     49 N          23.8235  -33.1065  -40.8528 N.am      8 UNK        -0.4734 
     50 CA         23.7228  -33.5519  -42.2458 C.3       8 UNK         0.0238 
     51 CB         24.9717  -33.0817  -43.0101 C.3       8 UNK        -0.1912 
     52 C          22.4439  -33.0846  -42.9685 C.2       8 UNK         0.5038 
     53 O          22.0747  -33.7000  -43.9688 O.2       8 UNK        -0.5046 
     54 N          21.7938  -32.0269  -42.4579 N.am      9 UNK        -0.4200 
     55 CA         20.5078  -31.4854  -42.9339 C.3       9 UNK         0.0839 
     56 C          20.5760  -30.6796  -44.2667 C.2       9 UNK         0.5513 
     57 N          21.7458  -30.5106  -44.8711 N.am      9 UNK        -0.7519 
     58 O          19.5720  -30.1421  -44.7291 O.2       9 UNK        -0.4960 
     59 C59        19.3842  -32.5647  -42.9010 C.3       10 UNK        -0.0876 
     60 S60        17.6955  -31.9350  -42.6285 S.3       10 UNK        -0.2414 
     61 C61        17.7350  -31.4430  -40.8741 C.3       10 UNK         0.0169 
     62 H62        12.8268  -28.5064  -47.3008 H         1 UNK         0.0903 
     63 H63        13.6066  -29.1442  -48.7497 H         1 UNK         0.0903 
     64 H64        13.0824  -30.2439  -47.4715 H         1 UNK         0.0903 
     65 H65        14.2975  -27.5525  -45.9078 H         1 UNK         0.3096 
     66 H66        16.6852  -28.8358  -44.9937 H         1 UNK         0.1121 
     67 H67        15.8217  -25.9089  -44.6221 H         1 UNK         0.0849 
     68 H68        17.0432  -26.7516  -43.7031 H         1 UNK         0.0849 
     69 H69        15.7683  -25.8729  -41.4875 H         1 UNK         0.0865 
     70 H70        14.7597  -27.0520  -40.6870 H         1 UNK         0.0865 
     71 H71        15.7813  -29.6563  -41.4213 H         1 UNK         0.1346 
     72 H72        19.8364  -29.8739  -40.0400 H         1 UNK         0.1412 
     73 H73        17.9708  -26.0584  -40.6147 H         1 UNK         0.1426 
     74 H74        20.6632  -27.6309  -38.9026 H         1 UNK         0.0716 
     75 H75        20.1573  -26.1432  -39.6663 H         1 UNK         0.0716 
     76 H76        19.8956  -26.8506  -42.6124 H         1 UNK         0.0695 
     77 H77        20.9272  -25.4701  -42.3619 H         1 UNK         0.0695 
     78 H78        21.9736  -27.9721  -43.7838 H         1 UNK         0.0983 
     79 H79        19.9152  -26.3235  -44.8357 H         1 UNK         0.3095 
     80 H80        19.6022  -26.3706  -47.4254 H         1 UNK         0.0454 
     81 H81        20.0987  -29.3278  -48.0947 H         1 UNK         0.0851 
     82 H82        20.7880  -27.9512  -48.9476 H         1 UNK         0.0851 
     83 H83        19.0559  -28.2374  -49.0058 H         1 UNK         0.0851 
     84 H84        18.7825  -28.6404  -45.6984 H         1 UNK         0.2976 
     85 H85        23.9603  -27.4423  -42.9131 H         1 UNK         0.3116 
     86 H86        25.2354  -24.8353  -43.5911 H         1 UNK         0.0646 
     87 H87        26.5735  -27.5965  -43.7069 H         1 UNK         0.0847 
     88 H88        27.3540  -26.0478  -44.0001 H         1 UNK         0.0847 
     89 H89        26.1301  -26.6308  -45.1142 H         1 UNK         0.0847 
     90 H90        23.7026  -25.6589  -41.2962 H         1 UNK         0.3040 
     91 H91        23.6178  -25.6861  -39.0839 H         1 UNK         0.1015 
     92 H92        26.4093  -24.4171  -39.1254 H         1 UNK         0.0786 
     93 H93        25.2859  -24.4158  -37.7753 H         1 UNK         0.0786 
     94 H94        24.8846  -23.5403  -39.2435 H         1 UNK         0.0786 
     95 H95        23.8881  -28.1222  -39.9339 H         1 UNK         0.3172 
     96 H96        25.5293  -29.5236  -37.9837 H         1 UNK         0.0595 
     97 H97        26.6955  -30.8934  -39.7435 H         1 UNK         0.0839 
     98 H98        27.1560  -29.2072  -39.8824 H         1 UNK         0.0839 
     99 H99        25.9907  -29.8945  -41.0094 H         1 UNK         0.0839 
    100 H100       25.0196  -31.8037  -37.9665 H         1 UNK         0.2998 
    101 H101       22.2422  -32.3718  -38.1791 H         1 UNK         0.0822 
    102 H102       22.9466  -34.6305  -37.3712 H         1 UNK         0.0787 
    103 H103       24.6303  -34.2353  -37.6858 H         1 UNK         0.0787 
    104 H104       23.7281  -33.3617  -36.4459 H         1 UNK         0.0787 
    105 H105       24.5509  -32.4395  -40.6430 H         1 UNK         0.3055 
    106 H106       23.7071  -34.6441  -42.2455 H         1 UNK         0.1106 
    107 H107       24.9447  -33.4178  -44.0478 H         1 UNK         0.0828 
    108 H108       25.0541  -31.9941  -43.0220 H         1 UNK         0.0828 
    109 H109       25.8834  -33.4834  -42.5675 H         1 UNK         0.0828 
    110 H110       22.1935  -31.5620  -41.6527 H         1 UNK         0.2931 
    111 H111       20.2664  -30.7337  -42.1871 H         1 UNK         0.0412 
    112 H112       21.8026  -29.9245  -45.6936 H         1 UNK         0.3472 
    113 H113       22.5735  -30.9540  -44.5094 H         1 UNK         0.3472 
    114 H114       19.3890  -33.1436  -43.8261 H         1 UNK         0.0970 
    115 H115       19.5805  -33.2889  -42.1084 H         1 UNK         0.0970 
    116 H116       18.5730  -31.9181  -40.3617 H         1 UNK         0.0612 
    117 H117       16.8294  -31.8053  -40.3857 H         1 UNK         0.0612 
@<TRIPOS>BOND
     1    1    2 1    
     2    1   62 1    
     3    1   63 1    
     4    1   64 1    
     5    2    3 2    
     6    2    4 am   BACKBONE|DICT|INTERRES
     7    4    5 1    
     8    4   65 1    
     9    5    6 1    
    10    5   25 1    
    11    5   66 1    
    12    6    7 1    
    13    6   67 1    
    14    6   68 1    
    15    7    8 1    
    16    8    9 1    
    17    8   69 1    
    18    8   70 1    
    19    9   10 ar   
    20    9   14 ar   
    21   10   11 ar   
    22   10   71 1    
    23   11   12 ar   
    24   11   61 1    
    25   12   13 ar   
    26   12   72 1    
    27   13   14 ar   
    28   13   15 1    
    29   14   73 1    
    30   15   16 1    
    31   15   74 1    
    32   15   75 1    
    33   16   17 1    
    34   17   18 1    
    35   17   76 1    
    36   17   77 1    
    37   18   19 1    
    38   18   27 1    
    39   18   78 1    
    40   19   20 am   BACKBONE|DICT|INTERRES
    41   19   79 1    
    42   20   21 2    
    43   20   22 1    
    44   22   23 1    
    45   22   24 1    
    46   22   80 1    
    47   23   81 1    
    48   23   82 1    
    49   23   83 1    
    50   24   25 am   BACKBONE|DICT|INTERRES
    51   24   84 1    
    52   25   26 2    
    53   27   28 2    
    54   27   29 am   BACKBONE|DICT|INTERRES
    55   29   30 1    
    56   29   85 1    
    57   30   31 1    
    58   30   32 1    
    59   30   86 1    
    60   31   87 1    
    61   31   88 1    
    62   31   89 1    
    63   32   33 2    
    64   32   34 am   BACKBONE|DICT|INTERRES
    65   34   35 1    
    66   34   90 1    
    67   35   36 1    
    68   35   37 1    
    69   35   91 1    
    70   36   92 1    
    71   36   93 1    
    72   36   94 1    
    73   37   38 2    
    74   37   39 am   BACKBONE|DICT|INTERRES
    75   39   40 1    
    76   39   95 1    
    77   40   41 1    
    78   40   42 1    
    79   40   96 1    
    80   41   97 1    
    81   41   98 1    
    82   41   99 1    
    83   42   43 2    
    84   42   44 am   BACKBONE|DICT|INTERRES
    85   44   45 1    
    86   44  100 1    
    87   45   46 1    
    88   45   47 1    
    89   45  101 1    
    90   46  102 1    
    91   46  103 1    
    92   46  104 1    
    93   47   48 2    
    94   47   49 am   BACKBONE|DICT|INTERRES
    95   49   50 1    
    96   49  105 1    
    97   50   51 1    
    98   50   52 1    
    99   50  106 1    
   100   51  107 1    
   101   51  108 1    
   102   51  109 1    
   103   52   53 2    
   104   52   54 am   BACKBONE|DICT|INTERRES
   105   54   55 1    
   106   54  110 1    
   107   55   56 1    
   108   55   59 1    
   109   55  111 1    
   110   56   57 am   BACKBONE|DICT|INTERRES
   111   56   58 2    
   112   57  112 1    
   113   57  113 1    
   114   59   60 1    
   115   59  114 1    
   116   59  115 1    
   117   60   61 1    
   118   61  116 1    
   119   61  117 1    
@<TRIPOS>SUBSTRUCTURE
     1 UNK         1 GROUP             0       ****    0 ROOT    
