@<TRIPOS>MOLECULE
3R8
117   119    1
SMALL
USER_CHARGES


@<TRIPOS>ATOM
      1 CA         22.4961  -27.9991  -48.2692 C.3       0 UNK        -0.2013 
      2 C          21.3110  -27.2299  -47.7049 C.2       0 UNK         0.4866 
      3 O          21.1917  -26.0292  -47.9452 O.2       0 UNK        -0.5176 
      4 N          20.4449  -27.9125  -46.9419 N.am      1 UNK        -0.4884 
      5 CA         19.2311  -27.3781  -46.3009 C.3       1 UNK         0.0853 
      6 C6         18.1987  -26.8316  -47.3269 C.3       10 UNK        -0.0849 
      7 S7         16.4666  -26.8434  -46.7438 S.3       10 UNK        -0.2776 
      8 C8         15.9389  -28.5580  -47.0656 C.3       10 UNK         0.0316 
      9 C9         16.3709  -29.5169  -45.9620 C.ar      10 UNK        -0.0863 
     10 C10        17.2558  -30.5637  -46.2382 C.ar      10 UNK        -0.1009 
     11 C11        17.6228  -31.4770  -45.2438 C.ar      10 UNK        -0.0712 
     12 C12        17.0819  -31.3319  -43.9580 C.ar      10 UNK        -0.0894 
     13 C13        16.2085  -30.2817  -43.6620 C.ar      10 UNK        -0.0745 
     14 C14        15.8552  -29.3794  -44.6695 C.ar      10 UNK        -0.0972 
     15 C15        15.6102  -30.1494  -42.2659 C.3       10 UNK         0.0209 
     16 S16        16.8667  -29.9080  -40.9661 S.3       10 UNK        -0.2568 
     17 C17        17.5024  -28.2436  -41.3491 C.3       10 UNK        -0.0983 
     18 CA         19.0406  -28.1548  -41.1784 C.3       3 UNK         0.0876 
     19 N          19.6033  -27.1239  -42.0476 N.am      3 UNK        -0.4424 
     20 C          20.9005  -26.8773  -42.2690 C.2       2 UNK         0.4918 
     21 O          21.8317  -27.4880  -41.7377 O.2       2 UNK        -0.4875 
     22 CA         21.1790  -25.8246  -43.3583 C.3       2 UNK         0.0481 
     23 CB         22.6507  -25.3796  -43.4181 C.3       2 UNK        -0.1831 
     24 N          20.7785  -26.3717  -44.6568 N.am      2 UNK        -0.4498 
     25 C          19.5168  -26.4313  -45.1085 C.2       1 UNK         0.5027 
     26 O          18.5903  -25.8449  -44.5462 O.2       1 UNK        -0.4969 
     27 C          19.4465  -27.9130  -39.7122 C.2       3 UNK         0.5005 
     28 O          19.2856  -26.7940  -39.2175 O.2       3 UNK        -0.5279 
     29 N          19.9882  -28.9559  -39.0667 N.am      4 UNK        -0.4463 
     30 CA         20.5815  -28.9625  -37.7232 C.3       4 UNK         0.0283 
     31 CB         19.5013  -28.7303  -36.6455 C.3       4 UNK        -0.1875 
     32 C          21.7866  -28.0079  -37.5728 C.2       4 UNK         0.4949 
     33 O          22.0909  -27.5829  -36.4568 O.2       4 UNK        -0.5039 
     34 N          22.4524  -27.6891  -38.6894 N.am      5 UNK        -0.4663 
     35 CA         23.5835  -26.7720  -38.7708 C.3       5 UNK         0.0242 
     36 CB         23.0685  -25.3451  -39.0609 C.3       5 UNK        -0.1982 
     37 C          24.5972  -27.3114  -39.7922 C.2       5 UNK         0.5017 
     38 O          24.8743  -28.5122  -39.7864 O.2       5 UNK        -0.5012 
     39 N          25.1443  -26.4241  -40.6347 N.am      6 UNK        -0.4439 
     40 CA         26.2756  -26.6535  -41.5419 C.3       6 UNK         0.0297 
     41 CB         26.5789  -25.3484  -42.2967 C.3       6 UNK        -0.2006 
     42 C          26.1381  -27.8192  -42.5397 C.2       6 UNK         0.4892 
     43 O          27.1639  -28.3496  -42.9681 O.2       6 UNK        -0.5089 
     44 N          24.9038  -28.2001  -42.8984 N.am      7 UNK        -0.4243 
     45 CA         24.6366  -29.3260  -43.7993 C.3       7 UNK         0.0196 
     46 CB         23.2832  -29.1158  -44.5015 C.3       7 UNK        -0.2007 
     47 C          24.6611  -30.6862  -43.0815 C.2       7 UNK         0.5020 
     48 O          24.7056  -31.7107  -43.7612 O.2       7 UNK        -0.5147 
     49 N          24.5722  -30.6824  -41.7406 N.am      8 UNK        -0.4734 
     50 CA         24.4592  -31.8353  -40.8302 C.3       8 UNK         0.0238 
     51 CB         25.7115  -32.7327  -40.9152 C.3       8 UNK        -0.1912 
     52 C          23.1566  -32.6529  -40.9755 C.2       8 UNK         0.5038 
     53 O          22.9874  -33.6455  -40.2655 O.2       8 UNK        -0.5046 
     54 N          22.2617  -32.2247  -41.8728 N.am      9 UNK        -0.4200 
     55 CA         20.9382  -32.8018  -42.1191 C.3       9 UNK         0.0839 
     56 C          19.9374  -32.4625  -40.9816 C.2       9 UNK         0.5513 
     57 N          18.9189  -33.2855  -40.7814 N.am      9 UNK        -0.7519 
     58 O          20.0615  -31.4453  -40.3028 O.2       9 UNK        -0.4960 
     59 C59        20.4162  -32.3603  -43.5122 C.3       10 UNK        -0.0876 
     60 S60        19.2740  -33.5790  -44.2418 S.3       10 UNK        -0.2414 
     61 C61        18.5724  -32.6160  -45.6255 C.3       10 UNK         0.0169 
     62 H62        23.4300  -27.5559  -47.9245 H         1 UNK         0.0903 
     63 H63        22.4867  -29.0463  -47.9673 H         1 UNK         0.0903 
     64 H64        22.4829  -27.9607  -49.3581 H         1 UNK         0.0903 
     65 H65        20.6059  -28.8990  -46.7891 H         1 UNK         0.3096 
     66 H66        18.7826  -28.2501  -45.8270 H         1 UNK         0.1121 
     67 H67        18.2405  -27.4167  -48.2469 H         1 UNK         0.0849 
     68 H68        18.4577  -25.8124  -47.6188 H         1 UNK         0.0849 
     69 H69        14.8503  -28.5779  -47.1344 H         1 UNK         0.0865 
     70 H70        16.3068  -28.8817  -48.0404 H         1 UNK         0.0865 
     71 H71        17.6521  -30.6783  -47.2383 H         1 UNK         0.1346 
     72 H72        17.3286  -32.0319  -43.1725 H         1 UNK         0.1412 
     73 H73        15.1678  -28.5722  -44.4545 H         1 UNK         0.1426 
     74 H74        15.0467  -31.0557  -42.0404 H         1 UNK         0.0716 
     75 H75        14.8948  -29.3267  -42.2223 H         1 UNK         0.0716 
     76 H76        16.9811  -27.5060  -40.7355 H         1 UNK         0.0695 
     77 H77        17.2316  -28.0107  -42.3800 H         1 UNK         0.0695 
     78 H78        19.4831  -29.0950  -41.5149 H         1 UNK         0.0983 
     79 H79        18.9348  -26.5704  -42.5699 H         1 UNK         0.3095 
     80 H80        20.5793  -24.9412  -43.1289 H         1 UNK         0.0454 
     81 H81        23.3111  -26.1841  -43.7332 H         1 UNK         0.0851 
     82 H82        22.9954  -25.0292  -42.4453 H         1 UNK         0.0851 
     83 H83        22.7807  -24.5558  -44.1200 H         1 UNK         0.0851 
     84 H84        21.4784  -26.8853  -45.1704 H         1 UNK         0.2976 
     85 H85        20.0389  -29.8499  -39.5596 H         1 UNK         0.3116 
     86 H86        20.9779  -29.9687  -37.5795 H         1 UNK         0.0646 
     87 H87        18.6655  -29.4192  -36.7666 H         1 UNK         0.0847 
     88 H88        19.1072  -27.7143  -36.6798 H         1 UNK         0.0847 
     89 H89        19.9056  -28.8872  -35.6448 H         1 UNK         0.0847 
     90 H90        22.1536  -28.0861  -39.5724 H         1 UNK         0.3040 
     91 H91        24.1087  -26.7588  -37.8132 H         1 UNK         0.1015 
     92 H92        22.5623  -25.2847  -40.0246 H         1 UNK         0.0786 
     93 H93        23.8769  -24.6130  -39.0520 H         1 UNK         0.0786 
     94 H94        22.3538  -25.0290  -38.3005 H         1 UNK         0.0786 
     95 H95        24.8271  -25.4685  -40.5611 H         1 UNK         0.3172 
     96 H96        27.1369  -26.8843  -40.9117 H         1 UNK         0.0595 
     97 H97        25.7373  -25.0340  -42.9150 H         1 UNK         0.0839 
     98 H98        27.4391  -25.4686  -42.9572 H         1 UNK         0.0839 
     99 H99        26.8159  -24.5353  -41.6104 H         1 UNK         0.0839 
    100 H100       24.1062  -27.7481  -42.4701 H         1 UNK         0.2998 
    101 H101       25.4091  -29.3562  -44.5712 H         1 UNK         0.0822 
    102 H102       23.2816  -28.1949  -45.0829 H         1 UNK         0.0787 
    103 H103       23.0745  -29.9306  -45.1964 H         1 UNK         0.0787 
    104 H104       22.4571  -29.0769  -43.7917 H         1 UNK         0.0787 
    105 H105       24.5758  -29.7818  -41.2681 H         1 UNK         0.3055 
    106 H106       24.4275  -31.4121  -39.8245 H         1 UNK         0.1106 
    107 H107       25.7794  -33.2482  -41.8734 H         1 UNK         0.0828 
    108 H108       25.6977  -33.4980  -40.1382 H         1 UNK         0.0828 
    109 H109       26.6244  -32.1528  -40.7797 H         1 UNK         0.0828 
    110 H110       22.4882  -31.3881  -42.3863 H         1 UNK         0.2931 
    111 H111       21.0747  -33.8855  -42.1280 H         1 UNK         0.0412 
    112 H112       18.2507  -33.0702  -40.0585 H         1 UNK         0.3472 
    113 H113       18.7975  -34.1067  -41.3537 H         1 UNK         0.3472 
    114 H114       21.2468  -32.2611  -44.2137 H         1 UNK         0.0970 
    115 H115       19.9464  -31.3757  -43.4664 H         1 UNK         0.0970 
    116 H116       19.3968  -32.2191  -46.2200 H         1 UNK         0.0612 
    117 H117       18.0303  -33.3064  -46.2729 H         1 UNK         0.0612 
@<TRIPOS>BOND
     1    1    2 1    
     2    1   62 1    
     3    1   63 1    
     4    1   64 1    
     5    2    3 2    
     6    2    4 am   BACKBONE|DICT|INTERRES
     7    4    5 1    
     8    4   65 1    
     9    5    6 1    
    10    5   25 1    
    11    5   66 1    
    12    6    7 1    
    13    6   67 1    
    14    6   68 1    
    15    7    8 1    
    16    8    9 1    
    17    8   69 1    
    18    8   70 1    
    19    9   10 ar   
    20    9   14 ar   
    21   10   11 ar   
    22   10   71 1    
    23   11   12 ar   
    24   11   61 1    
    25   12   13 ar   
    26   12   72 1    
    27   13   14 ar   
    28   13   15 1    
    29   14   73 1    
    30   15   16 1    
    31   15   74 1    
    32   15   75 1    
    33   16   17 1    
    34   17   18 1    
    35   17   76 1    
    36   17   77 1    
    37   18   19 1    
    38   18   27 1    
    39   18   78 1    
    40   19   20 am   BACKBONE|DICT|INTERRES
    41   19   79 1    
    42   20   21 2    
    43   20   22 1    
    44   22   23 1    
    45   22   24 1    
    46   22   80 1    
    47   23   81 1    
    48   23   82 1    
    49   23   83 1    
    50   24   25 am   BACKBONE|DICT|INTERRES
    51   24   84 1    
    52   25   26 2    
    53   27   28 2    
    54   27   29 am   BACKBONE|DICT|INTERRES
    55   29   30 1    
    56   29   85 1    
    57   30   31 1    
    58   30   32 1    
    59   30   86 1    
    60   31   87 1    
    61   31   88 1    
    62   31   89 1    
    63   32   33 2    
    64   32   34 am   BACKBONE|DICT|INTERRES
    65   34   35 1    
    66   34   90 1    
    67   35   36 1    
    68   35   37 1    
    69   35   91 1    
    70   36   92 1    
    71   36   93 1    
    72   36   94 1    
    73   37   38 2    
    74   37   39 am   BACKBONE|DICT|INTERRES
    75   39   40 1    
    76   39   95 1    
    77   40   41 1    
    78   40   42 1    
    79   40   96 1    
    80   41   97 1    
    81   41   98 1    
    82   41   99 1    
    83   42   43 2    
    84   42   44 am   BACKBONE|DICT|INTERRES
    85   44   45 1    
    86   44  100 1    
    87   45   46 1    
    88   45   47 1    
    89   45  101 1    
    90   46  102 1    
    91   46  103 1    
    92   46  104 1    
    93   47   48 2    
    94   47   49 am   BACKBONE|DICT|INTERRES
    95   49   50 1    
    96   49  105 1    
    97   50   51 1    
    98   50   52 1    
    99   50  106 1    
   100   51  107 1    
   101   51  108 1    
   102   51  109 1    
   103   52   53 2    
   104   52   54 am   BACKBONE|DICT|INTERRES
   105   54   55 1    
   106   54  110 1    
   107   55   56 1    
   108   55   59 1    
   109   55  111 1    
   110   56   57 am   BACKBONE|DICT|INTERRES
   111   56   58 2    
   112   57  112 1    
   113   57  113 1    
   114   59   60 1    
   115   59  114 1    
   116   59  115 1    
   117   60   61 1    
   118   61  116 1    
   119   61  117 1    
@<TRIPOS>SUBSTRUCTURE
     1 UNK         1 GROUP             0       ****    0 ROOT    
