@<TRIPOS>MOLECULE
3R8
117   119    1
SMALL
USER_CHARGES


@<TRIPOS>ATOM
      1 CA         20.0896  -26.8717  -50.4991 C.3       0 UNK        -0.2013 
      2 C          20.3998  -27.2738  -49.0648 C.2       0 UNK         0.4866 
      3 O          21.5701  -27.3373  -48.6862 O.2       0 UNK        -0.5176 
      4 N          19.3620  -27.5550  -48.2674 N.am      1 UNK        -0.4884 
      5 CA         19.4713  -27.9106  -46.8487 C.3       1 UNK         0.0853 
      6 C6         18.1526  -28.5094  -46.3047 C.3       10 UNK        -0.0849 
      7 S7         17.7330  -30.1168  -47.0575 S.3       10 UNK        -0.2776 
      8 C8         16.0505  -30.3901  -46.4029 C.3       10 UNK         0.0316 
      9 C9         16.0061  -30.2618  -44.8862 C.ar      10 UNK        -0.0863 
     10 C10        16.5349  -31.2702  -44.0772 C.ar      10 UNK        -0.1009 
     11 C11        16.5815  -31.1202  -42.6839 C.ar      10 UNK        -0.0712 
     12 C12        16.0512  -29.9607  -42.1077 C.ar      10 UNK        -0.0894 
     13 C13        15.4951  -28.9578  -42.9062 C.ar      10 UNK        -0.0745 
     14 C14        15.4743  -29.1142  -44.2939 C.ar      10 UNK        -0.0972 
     15 C15        14.9173  -27.6981  -42.2836 C.3       10 UNK         0.0209 
     16 S16        16.0975  -26.3172  -42.3801 S.3       10 UNK        -0.2568 
     17 C17        17.0460  -26.4935  -40.8292 C.3       10 UNK        -0.0983 
     18 CA         18.4709  -27.0857  -41.0060 C.3       3 UNK         0.0876 
     19 N          19.2048  -26.4321  -42.0941 N.am      3 UNK        -0.4424 
     20 C          20.4520  -26.7010  -42.4985 C.2       2 UNK         0.4918 
     21 O          21.2090  -27.5042  -41.9509 O.2       2 UNK        -0.4875 
     22 CA         20.8758  -26.0294  -43.8094 C.3       2 UNK         0.0481 
     23 CB         22.3757  -25.6920  -43.8567 C.3       2 UNK        -0.1831 
     24 N          20.5547  -26.9764  -44.8711 N.am      2 UNK        -0.4498 
     25 C          19.8752  -26.6952  -45.9881 C.2       1 UNK         0.5027 
     26 O          19.5186  -25.5592  -46.3130 O.2       1 UNK        -0.4969 
     27 C          19.2359  -27.0220  -39.6668 C.2       3 UNK         0.5005 
     28 O          19.3651  -25.9348  -39.0988 O.2       3 UNK        -0.5279 
     29 N          19.7272  -28.1780  -39.1968 N.am      4 UNK        -0.4463 
     30 CA         20.4719  -28.3882  -37.9479 C.3       4 UNK         0.0283 
     31 CB         19.5862  -28.0876  -36.7196 C.3       4 UNK        -0.1875 
     32 C          21.8340  -27.6650  -37.8858 C.2       4 UNK         0.4949 
     33 O          22.3742  -27.4861  -36.7925 O.2       4 UNK        -0.5039 
     34 N          22.3800  -27.2791  -39.0464 N.am      5 UNK        -0.4663 
     35 CA         23.7111  -26.6860  -39.1820 C.3       5 UNK         0.0242 
     36 CB         23.7196  -25.8054  -40.4434 C.3       5 UNK        -0.1982 
     37 C          24.7948  -27.7753  -39.2679 C.2       5 UNK         0.5017 
     38 O          24.4836  -28.9697  -39.2440 O.2       5 UNK        -0.5012 
     39 N          26.0547  -27.3447  -39.4218 N.am      6 UNK        -0.4439 
     40 CA         27.2021  -28.1957  -39.7526 C.3       6 UNK         0.0297 
     41 CB         28.5014  -27.4533  -39.3889 C.3       6 UNK        -0.2006 
     42 C          27.1513  -28.6097  -41.2378 C.2       6 UNK         0.4892 
     43 O          27.9391  -28.1228  -42.0509 O.2       6 UNK        -0.5089 
     44 N          26.1801  -29.4655  -41.5611 N.am      7 UNK        -0.4243 
     45 CA         25.8292  -29.9388  -42.8943 C.3       7 UNK         0.0196 
     46 CB         24.8546  -28.9336  -43.5409 C.3       7 UNK        -0.2007 
     47 C          25.1947  -31.3302  -42.7675 C.2       7 UNK         0.5020 
     48 O          24.9822  -31.8108  -41.6509 O.2       7 UNK        -0.5147 
     49 N          24.8554  -31.9391  -43.9121 N.am      8 UNK        -0.4734 
     50 CA         24.2371  -33.2705  -44.0228 C.3       8 UNK         0.0238 
     51 CB         24.1041  -33.6380  -45.5102 C.3       8 UNK        -0.1912 
     52 C          22.8781  -33.4298  -43.3085 C.2       8 UNK         0.5038 
     53 O          22.4846  -34.5613  -43.0220 O.2       8 UNK        -0.5046 
     54 N          22.2063  -32.3089  -43.0245 N.am      9 UNK        -0.4200 
     55 CA         20.9928  -32.2158  -42.2027 C.3       9 UNK         0.0839 
     56 C          21.1116  -31.0990  -41.1248 C.2       9 UNK         0.5513 
     57 N          22.3182  -30.7389  -40.7003 N.am      9 UNK        -0.7519 
     58 O          20.1108  -30.5543  -40.6653 O.2       9 UNK        -0.4960 
     59 C59        19.7128  -32.1216  -43.0829 C.3       10 UNK        -0.0876 
     60 S60        18.4145  -33.2891  -42.5474 S.3       10 UNK        -0.2414 
     61 C61        17.1907  -32.1811  -41.7656 C.3       10 UNK         0.0169 
     62 H62        19.0184  -26.8715  -50.7004 H         1 UNK         0.0903 
     63 H63        20.4722  -25.8712  -50.6989 H         1 UNK         0.0903 
     64 H64        20.5647  -27.5637  -51.1940 H         1 UNK         0.0903 
     65 H65        18.4213  -27.4794  -48.6268 H         1 UNK         0.3096 
     66 H66        20.2584  -28.6630  -46.7554 H         1 UNK         0.1121 
     67 H67        18.2266  -28.6678  -45.2264 H         1 UNK         0.0849 
     68 H68        17.3228  -27.8156  -46.4551 H         1 UNK         0.0849 
     69 H69        15.3649  -29.6816  -46.8706 H         1 UNK         0.0865 
     70 H70        15.7090  -31.3837  -46.6969 H         1 UNK         0.0865 
     71 H71        16.9377  -32.1557  -44.5477 H         1 UNK         0.1346 
     72 H72        16.0746  -29.8363  -41.0336 H         1 UNK         0.1412 
     73 H73        15.0639  -28.3278  -44.9130 H         1 UNK         0.1426 
     74 H74        14.6116  -27.8731  -41.2511 H         1 UNK         0.0716 
     75 H75        14.0097  -27.4163  -42.8197 H         1 UNK         0.0716 
     76 H76        16.4762  -27.0932  -40.1176 H         1 UNK         0.0695 
     77 H77        17.1011  -25.4937  -40.3936 H         1 UNK         0.0695 
     78 H78        18.3632  -28.1344  -41.2922 H         1 UNK         0.0983 
     79 H79        18.6588  -25.7734  -42.6302 H         1 UNK         0.3095 
     80 H80        20.3097  -25.1026  -43.9256 H         1 UNK         0.0454 
     81 H81        22.9982  -26.5770  -43.7258 H         1 UNK         0.0851 
     82 H82        22.6379  -24.9807  -43.0737 H         1 UNK         0.0851 
     83 H83        22.6455  -25.2360  -44.8092 H         1 UNK         0.0851 
     84 H84        20.7773  -27.9399  -44.6605 H         1 UNK         0.2976 
     85 H85        19.6605  -29.0084  -39.7861 H         1 UNK         0.3116 
     86 H86        20.7064  -29.4535  -37.9256 H         1 UNK         0.0646 
     87 H87        19.3668  -27.0235  -36.6289 H         1 UNK         0.0847 
     88 H88        20.0782  -28.3957  -35.7964 H         1 UNK         0.0847 
     89 H89        18.6386  -28.6234  -36.7721 H         1 UNK         0.0847 
     90 H90        21.8859  -27.4796  -39.9092 H         1 UNK         0.3040 
     91 H91        23.9196  -26.0601  -38.3114 H         1 UNK         0.1015 
     92 H92        23.6744  -26.4130  -41.3475 H         1 UNK         0.0786 
     93 H93        24.6232  -25.1983  -40.5035 H         1 UNK         0.0786 
     94 H94        22.8723  -25.1192  -40.4560 H         1 UNK         0.0786 
     95 H95        26.2196  -26.3488  -39.4519 H         1 UNK         0.3172 
     96 H96        27.1570  -29.1053  -39.1496 H         1 UNK         0.0595 
     97 H97        28.6048  -26.5182  -39.9410 H         1 UNK         0.0839 
     98 H98        29.3754  -28.0646  -39.6181 H         1 UNK         0.0839 
     99 H99        28.5410  -27.2208  -38.3246 H         1 UNK         0.0839 
    100 H100       25.5844  -29.8201  -40.8176 H         1 UNK         0.2998 
    101 H101       26.7328  -30.0289  -43.5009 H         1 UNK         0.0822 
    102 H102       25.2975  -27.9394  -43.6041 H         1 UNK         0.0787 
    103 H103       24.5873  -29.2272  -44.5564 H         1 UNK         0.0787 
    104 H104       23.9297  -28.8476  -42.9676 H         1 UNK         0.0787 
    105 H105       25.0578  -31.4689  -44.7834 H         1 UNK         0.3055 
    106 H106       24.9187  -33.9836  -43.5538 H         1 UNK         0.1106 
    107 H107       23.6776  -34.6351  -45.6306 H         1 UNK         0.0828 
    108 H108       23.4553  -32.9409  -46.0418 H         1 UNK         0.0828 
    109 H109       25.0740  -33.6433  -46.0078 H         1 UNK         0.0828 
    110 H110       22.6213  -31.4267  -43.2856 H         1 UNK         0.2931 
    111 H111       20.9348  -33.1284  -41.6068 H         1 UNK         0.0412 
    112 H112       23.1479  -31.2225  -41.0233 H         1 UNK         0.3472 
    113 H113       22.4195  -30.0093  -40.0130 H         1 UNK         0.3472 
    114 H114       19.3244  -31.1026  -43.1284 H         1 UNK         0.0970 
    115 H115       19.9403  -32.3786  -44.1187 H         1 UNK         0.0970 
    116 H116       16.3819  -32.7934  -41.3654 H         1 UNK         0.0612 
    117 H117       17.6666  -31.7008  -40.9096 H         1 UNK         0.0612 
@<TRIPOS>BOND
     1    1    2 1    
     2    1   62 1    
     3    1   63 1    
     4    1   64 1    
     5    2    3 2    
     6    2    4 am   BACKBONE|DICT|INTERRES
     7    4    5 1    
     8    4   65 1    
     9    5    6 1    
    10    5   25 1    
    11    5   66 1    
    12    6    7 1    
    13    6   67 1    
    14    6   68 1    
    15    7    8 1    
    16    8    9 1    
    17    8   69 1    
    18    8   70 1    
    19    9   10 ar   
    20    9   14 ar   
    21   10   11 ar   
    22   10   71 1    
    23   11   12 ar   
    24   11   61 1    
    25   12   13 ar   
    26   12   72 1    
    27   13   14 ar   
    28   13   15 1    
    29   14   73 1    
    30   15   16 1    
    31   15   74 1    
    32   15   75 1    
    33   16   17 1    
    34   17   18 1    
    35   17   76 1    
    36   17   77 1    
    37   18   19 1    
    38   18   27 1    
    39   18   78 1    
    40   19   20 am   BACKBONE|DICT|INTERRES
    41   19   79 1    
    42   20   21 2    
    43   20   22 1    
    44   22   23 1    
    45   22   24 1    
    46   22   80 1    
    47   23   81 1    
    48   23   82 1    
    49   23   83 1    
    50   24   25 am   BACKBONE|DICT|INTERRES
    51   24   84 1    
    52   25   26 2    
    53   27   28 2    
    54   27   29 am   BACKBONE|DICT|INTERRES
    55   29   30 1    
    56   29   85 1    
    57   30   31 1    
    58   30   32 1    
    59   30   86 1    
    60   31   87 1    
    61   31   88 1    
    62   31   89 1    
    63   32   33 2    
    64   32   34 am   BACKBONE|DICT|INTERRES
    65   34   35 1    
    66   34   90 1    
    67   35   36 1    
    68   35   37 1    
    69   35   91 1    
    70   36   92 1    
    71   36   93 1    
    72   36   94 1    
    73   37   38 2    
    74   37   39 am   BACKBONE|DICT|INTERRES
    75   39   40 1    
    76   39   95 1    
    77   40   41 1    
    78   40   42 1    
    79   40   96 1    
    80   41   97 1    
    81   41   98 1    
    82   41   99 1    
    83   42   43 2    
    84   42   44 am   BACKBONE|DICT|INTERRES
    85   44   45 1    
    86   44  100 1    
    87   45   46 1    
    88   45   47 1    
    89   45  101 1    
    90   46  102 1    
    91   46  103 1    
    92   46  104 1    
    93   47   48 2    
    94   47   49 am   BACKBONE|DICT|INTERRES
    95   49   50 1    
    96   49  105 1    
    97   50   51 1    
    98   50   52 1    
    99   50  106 1    
   100   51  107 1    
   101   51  108 1    
   102   51  109 1    
   103   52   53 2    
   104   52   54 am   BACKBONE|DICT|INTERRES
   105   54   55 1    
   106   54  110 1    
   107   55   56 1    
   108   55   59 1    
   109   55  111 1    
   110   56   57 am   BACKBONE|DICT|INTERRES
   111   56   58 2    
   112   57  112 1    
   113   57  113 1    
   114   59   60 1    
   115   59  114 1    
   116   59  115 1    
   117   60   61 1    
   118   61  116 1    
   119   61  117 1    
@<TRIPOS>SUBSTRUCTURE
     1 UNK         1 GROUP             0       ****    0 ROOT    
