@<TRIPOS>MOLECULE
3R8
117   119    1
SMALL
USER_CHARGES


@<TRIPOS>ATOM
      1 CA         16.9491  -24.5482  -48.1993 C.3       0 UNK        -0.2013 
      2 C          17.9594  -25.5615  -47.6821 C.2       0 UNK         0.4866 
      3 O          19.0891  -25.6034  -48.1706 O.2       0 UNK        -0.5176 
      4 N          17.5591  -26.3837  -46.7046 N.am      1 UNK        -0.4884 
      5 CA         18.4081  -27.3874  -46.0549 C.3       1 UNK         0.0853 
      6 C6         17.5772  -28.3658  -45.1920 C.3       10 UNK        -0.0849 
      7 S7         16.4813  -29.4209  -46.1945 S.3       10 UNK        -0.2776 
      8 C8         15.2349  -29.9151  -44.9606 C.3       10 UNK         0.0316 
      9 C9         15.8652  -30.5704  -43.7385 C.ar      10 UNK        -0.0863 
     10 C10        16.4179  -31.8511  -43.8309 C.ar      10 UNK        -0.1009 
     11 C11        17.0101  -32.4509  -42.7149 C.ar      10 UNK        -0.0712 
     12 C12        17.0273  -31.7681  -41.4952 C.ar      10 UNK        -0.0894 
     13 C13        16.4715  -30.4897  -41.3886 C.ar      10 UNK        -0.0745 
     14 C14        15.8940  -29.8953  -42.5144 C.ar      10 UNK        -0.0972 
     15 C15        16.4744  -29.7602  -40.0522 C.3       10 UNK         0.0209 
     16 S16        18.1519  -29.3126  -39.5044 S.3       10 UNK        -0.2568 
     17 C17        18.6257  -28.0383  -40.7211 C.3       10 UNK        -0.0983 
     18 CA         20.1580  -28.0029  -40.9385 C.3       3 UNK         0.0876 
     19 N          20.4958  -27.4497  -42.2498 N.am      3 UNK        -0.4424 
     20 C          21.6404  -27.6696  -42.9069 C.2       2 UNK         0.4918 
     21 O          22.5250  -28.4280  -42.5037 O.2       2 UNK        -0.4875 
     22 CA         21.7910  -26.9629  -44.2660 C.3       2 UNK         0.0481 
     23 CB         23.1144  -27.3155  -44.9686 C.3       2 UNK        -0.1831 
     24 N          20.6805  -27.3237  -45.1474 N.am      2 UNK        -0.4498 
     25 C          19.4858  -26.7223  -45.1778 C.2       1 UNK         0.5027 
     26 O          19.1985  -25.7401  -44.4882 O.2       1 UNK        -0.4969 
     27 C          20.8758  -27.2108  -39.8264 C.2       3 UNK         0.5005 
     28 O          21.1249  -26.0142  -39.9942 O.2       3 UNK        -0.5279 
     29 N          21.1933  -27.8909  -38.7142 N.am      4 UNK        -0.4463 
     30 CA         21.9074  -27.4206  -37.5141 C.3       4 UNK         0.0283 
     31 CB         21.1624  -26.2640  -36.8192 C.3       4 UNK        -0.1875 
     32 C          23.3878  -27.0678  -37.7526 C.2       4 UNK         0.4949 
     33 O          24.2422  -27.5089  -36.9846 O.2       4 UNK        -0.5039 
     34 N          23.6684  -26.3155  -38.8185 N.am      5 UNK        -0.4663 
     35 CA         24.9965  -26.0219  -39.3384 C.3       5 UNK         0.0242 
     36 CB         25.4639  -24.6476  -38.8289 C.3       5 UNK        -0.1982 
     37 C          24.8801  -26.0474  -40.8716 C.2       5 UNK         0.5017 
     38 O          24.1144  -25.2493  -41.4098 O.2       5 UNK        -0.5012 
     39 N          25.5755  -26.9320  -41.6002 N.am      6 UNK        -0.4439 
     40 CA         26.5033  -27.9785  -41.1537 C.3       6 UNK         0.0297 
     41 CB         27.3507  -28.4077  -42.3644 C.3       6 UNK        -0.2006 
     42 C          25.8276  -29.2145  -40.5208 C.2       6 UNK         0.4892 
     43 O          26.5472  -30.1027  -40.0648 O.2       6 UNK        -0.5089 
     44 N          24.4858  -29.2640  -40.5305 N.am      7 UNK        -0.4243 
     45 CA         23.6309  -30.4137  -40.1997 C.3       7 UNK         0.0196 
     46 CB         23.8463  -30.9167  -38.7558 C.3       7 UNK        -0.2007 
     47 C          23.7609  -31.5140  -41.2687 C.2       7 UNK         0.5020 
     48 O          23.8763  -32.6962  -40.9435 O.2       7 UNK        -0.5147 
     49 N          23.7585  -31.0800  -42.5352 N.am      8 UNK        -0.4734 
     50 CA         23.9626  -31.9149  -43.7208 C.3       8 UNK         0.0238 
     51 CB         25.0201  -31.2407  -44.6131 C.3       8 UNK        -0.1912 
     52 C          22.6643  -32.1675  -44.5070 C.2       8 UNK         0.5038 
     53 O          22.7154  -32.8789  -45.5115 O.2       8 UNK        -0.5046 
     54 N          21.5389  -31.5940  -44.0545 N.am      9 UNK        -0.4200 
     55 CA         20.2147  -31.6694  -44.6963 C.3       9 UNK         0.0839 
     56 C          20.2072  -30.9670  -46.0889 C.2       9 UNK         0.5513 
     57 N          19.4832  -31.4677  -47.0810 N.am      9 UNK        -0.7519 
     58 O          20.8182  -29.9139  -46.2591 O.2       9 UNK        -0.4960 
     59 C59        19.6182  -33.1099  -44.6890 C.3       10 UNK        -0.0876 
     60 S60        19.4312  -33.7819  -43.0011 S.3       10 UNK        -0.2414 
     61 C61        17.6197  -33.8415  -42.8174 C.3       10 UNK         0.0169 
     62 H62        16.7796  -24.6978  -49.2653 H         1 UNK         0.0903 
     63 H63        15.9896  -24.6311  -47.6888 H         1 UNK         0.0903 
     64 H64        17.3248  -23.5359  -48.0524 H         1 UNK         0.0903 
     65 H65        16.6222  -26.3014  -46.3367 H         1 UNK         0.3096 
     66 H66        18.9128  -27.9557  -46.8402 H         1 UNK         0.1121 
     67 H67        16.9821  -27.8162  -44.4598 H         1 UNK         0.0849 
     68 H68        18.2267  -29.0292  -44.6173 H         1 UNK         0.0849 
     69 H69        14.6493  -29.0401  -44.6740 H         1 UNK         0.0865 
     70 H70        14.5336  -30.6110  -45.4232 H         1 UNK         0.0865 
     71 H71        16.3923  -32.3739  -44.7770 H         1 UNK         0.1346 
     72 H72        17.4791  -32.2297  -40.6277 H         1 UNK         0.1412 
     73 H73        15.4638  -28.9060  -42.4364 H         1 UNK         0.1426 
     74 H74        16.0195  -30.4032  -39.2974 H         1 UNK         0.0716 
     75 H75        15.8609  -28.8588  -40.0949 H         1 UNK         0.0716 
     76 H76        18.2345  -27.0678  -40.4090 H         1 UNK         0.0695 
     77 H77        18.1296  -28.2716  -41.6640 H         1 UNK         0.0695 
     78 H78        20.5292  -29.0299  -40.9252 H         1 UNK         0.0983 
     79 H79        19.8525  -26.7706  -42.6361 H         1 UNK         0.3095 
     80 H80        21.7842  -25.8868  -44.0814 H         1 UNK         0.0454 
     81 H81        23.9710  -27.0540  -44.3472 H         1 UNK         0.0851 
     82 H82        23.2197  -26.7724  -45.9077 H         1 UNK         0.0851 
     83 H83        23.1794  -28.3810  -45.1909 H         1 UNK         0.0851 
     84 H84        20.8045  -28.1830  -45.6818 H         1 UNK         0.2976 
     85 H85        20.9115  -28.8612  -38.6740 H         1 UNK         0.3116 
     86 H86        21.8994  -28.2668  -36.8250 H         1 UNK         0.0646 
     87 H87        21.1449  -25.3603  -37.4287 H         1 UNK         0.0847 
     88 H88        20.1315  -26.5358  -36.5928 H         1 UNK         0.0847 
     89 H89        21.6442  -26.0053  -35.8754 H         1 UNK         0.0847 
     90 H90        22.8881  -26.0055  -39.3981 H         1 UNK         0.3040 
     91 H91        25.7000  -26.7719  -38.9803 H         1 UNK         0.1015 
     92 H92        26.4511  -24.4023  -39.2224 H         1 UNK         0.0786 
     93 H93        25.5343  -24.6332  -37.7411 H         1 UNK         0.0786 
     94 H94        24.7829  -23.8500  -39.1292 H         1 UNK         0.0786 
     95 H95        25.4462  -26.8863  -42.5998 H         1 UNK         0.3172 
     96 H96        27.1862  -27.5556  -40.4152 H         1 UNK         0.0595 
     97 H97        26.7370  -28.8440  -43.1535 H         1 UNK         0.0839 
     98 H98        28.0935  -29.1549  -42.0811 H         1 UNK         0.0839 
     99 H99        27.8950  -27.5640  -42.7893 H         1 UNK         0.0839 
    100 H100       24.0016  -28.5073  -40.9995 H         1 UNK         0.2998 
    101 H101       22.6039  -30.0563  -40.2621 H         1 UNK         0.0822 
    102 H102       23.0895  -31.6545  -38.4874 H         1 UNK         0.0787 
    103 H103       23.7764  -30.1033  -38.0347 H         1 UNK         0.0787 
    104 H104       24.8175  -31.3949  -38.6280 H         1 UNK         0.0787 
    105 H105       23.5977  -30.0897  -42.6946 H         1 UNK         0.3055 
    106 H106       24.3444  -32.8953  -43.4267 H         1 UNK         0.1106 
    107 H107       25.9634  -31.1168  -44.0811 H         1 UNK         0.0828 
    108 H108       25.2291  -31.8418  -45.4991 H         1 UNK         0.0828 
    109 H109       24.6957  -30.2581  -44.9554 H         1 UNK         0.0828 
    110 H110       21.5999  -31.0174  -43.2297 H         1 UNK         0.2931 
    111 H111       19.5610  -31.0528  -44.0781 H         1 UNK         0.0412 
    112 H112       18.9540  -32.3170  -46.9727 H         1 UNK         0.3472 
    113 H113       19.4736  -30.9851  -47.9654 H         1 UNK         0.3472 
    114 H114       18.6434  -33.1281  -45.1753 H         1 UNK         0.0970 
    115 H115       20.2463  -33.7919  -45.2636 H         1 UNK         0.0970 
    116 H116       17.3789  -34.4097  -41.9178 H         1 UNK         0.0612 
    117 H117       17.1849  -34.3957  -43.6507 H         1 UNK         0.0612 
@<TRIPOS>BOND
     1    1    2 1    
     2    1   62 1    
     3    1   63 1    
     4    1   64 1    
     5    2    3 2    
     6    2    4 am   BACKBONE|DICT|INTERRES
     7    4    5 1    
     8    4   65 1    
     9    5    6 1    
    10    5   25 1    
    11    5   66 1    
    12    6    7 1    
    13    6   67 1    
    14    6   68 1    
    15    7    8 1    
    16    8    9 1    
    17    8   69 1    
    18    8   70 1    
    19    9   10 ar   
    20    9   14 ar   
    21   10   11 ar   
    22   10   71 1    
    23   11   12 ar   
    24   11   61 1    
    25   12   13 ar   
    26   12   72 1    
    27   13   14 ar   
    28   13   15 1    
    29   14   73 1    
    30   15   16 1    
    31   15   74 1    
    32   15   75 1    
    33   16   17 1    
    34   17   18 1    
    35   17   76 1    
    36   17   77 1    
    37   18   19 1    
    38   18   27 1    
    39   18   78 1    
    40   19   20 am   BACKBONE|DICT|INTERRES
    41   19   79 1    
    42   20   21 2    
    43   20   22 1    
    44   22   23 1    
    45   22   24 1    
    46   22   80 1    
    47   23   81 1    
    48   23   82 1    
    49   23   83 1    
    50   24   25 am   BACKBONE|DICT|INTERRES
    51   24   84 1    
    52   25   26 2    
    53   27   28 2    
    54   27   29 am   BACKBONE|DICT|INTERRES
    55   29   30 1    
    56   29   85 1    
    57   30   31 1    
    58   30   32 1    
    59   30   86 1    
    60   31   87 1    
    61   31   88 1    
    62   31   89 1    
    63   32   33 2    
    64   32   34 am   BACKBONE|DICT|INTERRES
    65   34   35 1    
    66   34   90 1    
    67   35   36 1    
    68   35   37 1    
    69   35   91 1    
    70   36   92 1    
    71   36   93 1    
    72   36   94 1    
    73   37   38 2    
    74   37   39 am   BACKBONE|DICT|INTERRES
    75   39   40 1    
    76   39   95 1    
    77   40   41 1    
    78   40   42 1    
    79   40   96 1    
    80   41   97 1    
    81   41   98 1    
    82   41   99 1    
    83   42   43 2    
    84   42   44 am   BACKBONE|DICT|INTERRES
    85   44   45 1    
    86   44  100 1    
    87   45   46 1    
    88   45   47 1    
    89   45  101 1    
    90   46  102 1    
    91   46  103 1    
    92   46  104 1    
    93   47   48 2    
    94   47   49 am   BACKBONE|DICT|INTERRES
    95   49   50 1    
    96   49  105 1    
    97   50   51 1    
    98   50   52 1    
    99   50  106 1    
   100   51  107 1    
   101   51  108 1    
   102   51  109 1    
   103   52   53 2    
   104   52   54 am   BACKBONE|DICT|INTERRES
   105   54   55 1    
   106   54  110 1    
   107   55   56 1    
   108   55   59 1    
   109   55  111 1    
   110   56   57 am   BACKBONE|DICT|INTERRES
   111   56   58 2    
   112   57  112 1    
   113   57  113 1    
   114   59   60 1    
   115   59  114 1    
   116   59  115 1    
   117   60   61 1    
   118   61  116 1    
   119   61  117 1    
@<TRIPOS>SUBSTRUCTURE
     1 UNK         1 GROUP             0       ****    0 ROOT    
