@<TRIPOS>MOLECULE
3R8
117   119    1
SMALL
USER_CHARGES


@<TRIPOS>ATOM
      1 CA         15.3477  -23.4444  -41.3937 C.3       0 UNK        -0.2013 
      2 C          16.0215  -23.7665  -42.7193 C.2       0 UNK         0.4866 
      3 O          16.3363  -22.8539  -43.4843 O.2       0 UNK        -0.5176 
      4 N          16.2361  -25.0573  -43.0008 N.am      1 UNK        -0.4884 
      5 CA         16.9216  -25.5525  -44.2001 C.3       1 UNK         0.0853 
      6 C6         16.7211  -27.0770  -44.3903 C.3       10 UNK        -0.0849 
      7 S7         14.9655  -27.5770  -44.4553 S.3       10 UNK        -0.2776 
      8 C8         15.0111  -28.9883  -45.6122 C.3       10 UNK         0.0316 
      9 C9         16.0518  -30.0289  -45.2166 C.ar      10 UNK        -0.0863 
     10 C10        15.9189  -30.7478  -44.0244 C.ar      10 UNK        -0.1009 
     11 C11        16.8918  -31.6719  -43.6278 C.ar      10 UNK        -0.0712 
     12 C12        18.0021  -31.8800  -44.4573 C.ar      10 UNK        -0.0894 
     13 C13        18.1501  -31.1637  -45.6477 C.ar      10 UNK        -0.0745 
     14 C14        17.1658  -30.2501  -46.0303 C.ar      10 UNK        -0.0972 
     15 C15        19.4078  -31.3342  -46.4871 C.3       10 UNK         0.0209 
     16 S16        20.4774  -29.8592  -46.4121 S.3       10 UNK        -0.2568 
     17 C17        20.6728  -29.6296  -44.6109 C.3       10 UNK        -0.0983 
     18 CA         21.4742  -28.3554  -44.2542 C.3       3 UNK         0.0876 
     19 N          20.8679  -27.1571  -44.8424 N.am      3 UNK        -0.4424 
     20 C          21.3982  -25.9275  -44.8711 C.2       2 UNK         0.4918 
     21 O          22.5079  -25.6484  -44.4187 O.2       2 UNK        -0.4875 
     22 CA         20.5080  -24.8088  -45.4480 C.3       2 UNK         0.0481 
     23 CB         20.8407  -24.5746  -46.9297 C.3       2 UNK        -0.1831 
     24 N          19.0643  -25.0542  -45.3033 N.am      2 UNK        -0.4498 
     25 C          18.4303  -25.2381  -44.1345 C.2       1 UNK         0.5027 
     26 O          19.0074  -25.2418  -43.0437 O.2       1 UNK        -0.4969 
     27 C          21.6681  -28.2669  -42.7234 C.2       3 UNK         0.5005 
     28 O          22.3861  -29.0999  -42.1721 O.2       3 UNK        -0.5279 
     29 N          21.0554  -27.2796  -42.0482 N.am      4 UNK        -0.4463 
     30 CA         21.2860  -26.9943  -40.6285 C.3       4 UNK         0.0283 
     31 CB         20.2996  -25.9189  -40.1486 C.3       4 UNK        -0.1875 
     32 C          22.7352  -26.5685  -40.3263 C.2       4 UNK         0.4949 
     33 O          23.2170  -26.8287  -39.2230 O.2       4 UNK        -0.5039 
     34 N          23.4179  -25.9604  -41.3099 N.am      5 UNK        -0.4663 
     35 CA         24.8415  -25.6259  -41.2556 C.3       5 UNK         0.0242 
     36 CB         25.2215  -24.7995  -42.4953 C.3       5 UNK        -0.1982 
     37 C          25.6900  -26.9049  -41.1554 C.2       5 UNK         0.5017 
     38 O          25.7085  -27.6964  -42.0996 O.2       5 UNK        -0.5012 
     39 N          26.3250  -27.0957  -39.9903 N.am      6 UNK        -0.4439 
     40 CA         27.0975  -28.2757  -39.5768 C.3       6 UNK         0.0297 
     41 CB         28.3237  -28.4904  -40.4909 C.3       6 UNK        -0.2006 
     42 C          26.2582  -29.5622  -39.4065 C.2       6 UNK         0.4892 
     43 O          26.8447  -30.6418  -39.3156 O.2       6 UNK        -0.5089 
     44 N          24.9224  -29.4269  -39.3292 N.am      7 UNK        -0.4243 
     45 CA         23.9235  -30.4871  -39.1364 C.3       7 UNK         0.0196 
     46 CB         23.9623  -30.9969  -37.6807 C.3       7 UNK        -0.2007 
     47 C          24.0361  -31.6255  -40.1708 C.2       7 UNK         0.5020 
     48 O          24.1250  -32.7985  -39.8027 O.2       7 UNK        -0.5147 
     49 N          24.0130  -31.2607  -41.4589 N.am      8 UNK        -0.4734 
     50 CA         24.1218  -32.1767  -42.6004 C.3       8 UNK         0.0238 
     51 CB         24.3705  -31.3653  -43.8823 C.3       8 UNK        -0.1912 
     52 C          22.9143  -33.1194  -42.7667 C.2       8 UNK         0.5038 
     53 O          23.0406  -34.1308  -43.4583 O.2       8 UNK        -0.5046 
     54 N          21.7873  -32.7993  -42.1136 N.am      9 UNK        -0.4200 
     55 CA         20.6467  -33.7103  -41.9267 C.3       9 UNK         0.0839 
     56 C          20.9574  -34.9307  -41.0025 C.2       9 UNK         0.5513 
     57 N          22.0074  -34.9057  -40.1876 N.am      9 UNK        -0.7519 
     58 O          20.2438  -35.9293  -41.0363 O.2       9 UNK        -0.4960 
     59 C59        19.3795  -32.9399  -41.4583 C.3       10 UNK        -0.0876 
     60 S60        17.8279  -33.7817  -41.9388 S.3       10 UNK        -0.2414 
     61 C61        16.7060  -32.3812  -42.2834 C.3       10 UNK         0.0169 
     62 H62        16.0031  -22.8262  -40.7809 H         1 UNK         0.0903 
     63 H63        15.1062  -24.3450  -40.8295 H         1 UNK         0.0903 
     64 H64        14.4230  -22.8945  -41.5662 H         1 UNK         0.0903 
     65 H65        15.9603  -25.7664  -42.3367 H         1 UNK         0.3096 
     66 H66        16.4997  -25.0339  -45.0641 H         1 UNK         0.1121 
     67 H67        17.1982  -27.6374  -43.5830 H         1 UNK         0.0849 
     68 H68        17.2071  -27.4005  -45.3127 H         1 UNK         0.0849 
     69 H69        14.0265  -29.4572  -45.6407 H         1 UNK         0.0865 
     70 H70        15.1991  -28.6136  -46.6197 H         1 UNK         0.0865 
     71 H71        15.0621  -30.5657  -43.3894 H         1 UNK         0.1346 
     72 H72        18.7771  -32.5765  -44.1757 H         1 UNK         0.1412 
     73 H73        17.2901  -29.6874  -46.9458 H         1 UNK         0.1426 
     74 H74        19.9804  -32.2033  -46.1593 H         1 UNK         0.0716 
     75 H75        19.1302  -31.5218  -47.5252 H         1 UNK         0.0716 
     76 H76        21.1519  -30.5236  -44.2075 H         1 UNK         0.0695 
     77 H77        19.6857  -29.5753  -44.1489 H         1 UNK         0.0695 
     78 H78        22.4743  -28.4504  -44.6826 H         1 UNK         0.0983 
     79 H79        19.9624  -27.2921  -45.2653 H         1 UNK         0.3095 
     80 H80        20.7400  -23.8944  -44.8982 H         1 UNK         0.0454 
     81 H81        20.2931  -23.7219  -47.3311 H         1 UNK         0.0851 
     82 H82        20.6034  -25.4463  -47.5409 H         1 UNK         0.0851 
     83 H83        21.9031  -24.3644  -47.0621 H         1 UNK         0.0851 
     84 H84        18.5263  -25.0737  -46.1584 H         1 UNK         0.2976 
     85 H85        20.4527  -26.6333  -42.5478 H         1 UNK         0.3116 
     86 H86        21.0894  -27.9112  -40.0688 H         1 UNK         0.0646 
     87 H87        19.2661  -26.2295  -40.3027 H         1 UNK         0.0847 
     88 H88        20.4239  -25.7228  -39.0828 H         1 UNK         0.0847 
     89 H89        20.4463  -24.9739  -40.6734 H         1 UNK         0.0847 
     90 H90        22.9633  -25.8352  -42.2063 H         1 UNK         0.3040 
     91 H91        25.0103  -25.0075  -40.3712 H         1 UNK         0.1015 
     92 H92        24.6337  -23.8835  -42.5584 H         1 UNK         0.0786 
     93 H93        25.0661  -25.3598  -43.4183 H         1 UNK         0.0786 
     94 H94        26.2727  -24.5103  -42.4632 H         1 UNK         0.0786 
     95 H95        26.2066  -26.3928  -39.2725 H         1 UNK         0.3172 
     96 H96        27.4758  -28.0416  -38.5807 H         1 UNK         0.0595 
     97 H97        28.9074  -27.5760  -40.5961 H         1 UNK         0.0839 
     98 H98        28.0339  -28.8216  -41.4885 H         1 UNK         0.0839 
     99 H99        28.9893  -29.2509  -40.0808 H         1 UNK         0.0839 
    100 H100       24.5428  -28.4898  -39.4083 H         1 UNK         0.2998 
    101 H101       22.9494  -30.0223  -39.2980 H         1 UNK         0.0822 
    102 H102       23.8248  -30.1807  -36.9714 H         1 UNK         0.0787 
    103 H103       23.1675  -31.7213  -37.4983 H         1 UNK         0.0787 
    104 H104       24.9089  -31.4867  -37.4493 H         1 UNK         0.0787 
    105 H105       23.8130  -30.2878  -41.6818 H         1 UNK         0.3055 
    106 H106       24.9933  -32.8122  -42.4280 H         1 UNK         0.1106 
    107 H107       25.2664  -30.7504  -43.7942 H         1 UNK         0.0828 
    108 H108       24.5118  -32.0233  -44.7408 H         1 UNK         0.0828 
    109 H109       23.5353  -30.7057  -44.1126 H         1 UNK         0.0828 
    110 H110       21.7827  -31.9447  -41.5771 H         1 UNK         0.2931 
    111 H111       20.4335  -34.1238  -42.9147 H         1 UNK         0.0412 
    112 H112       22.6361  -34.1107  -40.1509 H         1 UNK         0.3472 
    113 H113       22.1911  -35.7085  -39.6069 H         1 UNK         0.3472 
    114 H114       19.3860  -32.7874  -40.3773 H         1 UNK         0.0970 
    115 H115       19.3694  -31.9395  -41.8938 H         1 UNK         0.0970 
    116 H116       16.7982  -31.6496  -41.4794 H         1 UNK         0.0612 
    117 H117       15.6854  -32.7638  -42.2338 H         1 UNK         0.0612 
@<TRIPOS>BOND
     1    1    2 1    
     2    1   62 1    
     3    1   63 1    
     4    1   64 1    
     5    2    3 2    
     6    2    4 am   BACKBONE|DICT|INTERRES
     7    4    5 1    
     8    4   65 1    
     9    5    6 1    
    10    5   25 1    
    11    5   66 1    
    12    6    7 1    
    13    6   67 1    
    14    6   68 1    
    15    7    8 1    
    16    8    9 1    
    17    8   69 1    
    18    8   70 1    
    19    9   10 ar   
    20    9   14 ar   
    21   10   11 ar   
    22   10   71 1    
    23   11   12 ar   
    24   11   61 1    
    25   12   13 ar   
    26   12   72 1    
    27   13   14 ar   
    28   13   15 1    
    29   14   73 1    
    30   15   16 1    
    31   15   74 1    
    32   15   75 1    
    33   16   17 1    
    34   17   18 1    
    35   17   76 1    
    36   17   77 1    
    37   18   19 1    
    38   18   27 1    
    39   18   78 1    
    40   19   20 am   BACKBONE|DICT|INTERRES
    41   19   79 1    
    42   20   21 2    
    43   20   22 1    
    44   22   23 1    
    45   22   24 1    
    46   22   80 1    
    47   23   81 1    
    48   23   82 1    
    49   23   83 1    
    50   24   25 am   BACKBONE|DICT|INTERRES
    51   24   84 1    
    52   25   26 2    
    53   27   28 2    
    54   27   29 am   BACKBONE|DICT|INTERRES
    55   29   30 1    
    56   29   85 1    
    57   30   31 1    
    58   30   32 1    
    59   30   86 1    
    60   31   87 1    
    61   31   88 1    
    62   31   89 1    
    63   32   33 2    
    64   32   34 am   BACKBONE|DICT|INTERRES
    65   34   35 1    
    66   34   90 1    
    67   35   36 1    
    68   35   37 1    
    69   35   91 1    
    70   36   92 1    
    71   36   93 1    
    72   36   94 1    
    73   37   38 2    
    74   37   39 am   BACKBONE|DICT|INTERRES
    75   39   40 1    
    76   39   95 1    
    77   40   41 1    
    78   40   42 1    
    79   40   96 1    
    80   41   97 1    
    81   41   98 1    
    82   41   99 1    
    83   42   43 2    
    84   42   44 am   BACKBONE|DICT|INTERRES
    85   44   45 1    
    86   44  100 1    
    87   45   46 1    
    88   45   47 1    
    89   45  101 1    
    90   46  102 1    
    91   46  103 1    
    92   46  104 1    
    93   47   48 2    
    94   47   49 am   BACKBONE|DICT|INTERRES
    95   49   50 1    
    96   49  105 1    
    97   50   51 1    
    98   50   52 1    
    99   50  106 1    
   100   51  107 1    
   101   51  108 1    
   102   51  109 1    
   103   52   53 2    
   104   52   54 am   BACKBONE|DICT|INTERRES
   105   54   55 1    
   106   54  110 1    
   107   55   56 1    
   108   55   59 1    
   109   55  111 1    
   110   56   57 am   BACKBONE|DICT|INTERRES
   111   56   58 2    
   112   57  112 1    
   113   57  113 1    
   114   59   60 1    
   115   59  114 1    
   116   59  115 1    
   117   60   61 1    
   118   61  116 1    
   119   61  117 1    
@<TRIPOS>SUBSTRUCTURE
     1 UNK         1 GROUP             0       ****    0 ROOT    
