@<TRIPOS>MOLECULE
3R8
117   119    1
SMALL
USER_CHARGES


@<TRIPOS>ATOM
      1 CA         18.1041  -25.3983  -48.1991 C.3       0 UNK        -0.2013 
      2 C          17.9578  -26.3022  -46.9848 C.2       0 UNK         0.4866 
      3 O          18.2167  -27.5021  -47.0776 O.2       0 UNK        -0.5176 
      4 N          17.5531  -25.7394  -45.8386 N.am      1 UNK        -0.4884 
      5 CA         17.3749  -26.4445  -44.5646 C.3       1 UNK         0.0853 
      6 C6         16.3004  -25.7401  -43.6988 C.3       10 UNK        -0.0849 
      7 S7         15.6744  -26.7348  -42.3034 S.3       10 UNK        -0.2776 
      8 C8         14.8444  -28.1307  -43.1370 C.3       10 UNK         0.0316 
      9 C9         15.7136  -29.3823  -43.1303 C.ar      10 UNK        -0.0863 
     10 C10        16.1490  -29.9713  -44.3245 C.ar      10 UNK        -0.1009 
     11 C11        16.9422  -31.1243  -44.2974 C.ar      10 UNK        -0.0712 
     12 C12        17.2804  -31.6959  -43.0695 C.ar      10 UNK        -0.0894 
     13 C13        16.8721  -31.1047  -41.8741 C.ar      10 UNK        -0.0745 
     14 C14        16.0764  -29.9587  -41.9094 C.ar      10 UNK        -0.0972 
     15 C15        17.3204  -31.6964  -40.5499 C.3       10 UNK         0.0209 
     16 S16        19.1020  -31.4341  -40.2905 S.3       10 UNK        -0.2568 
     17 C17        19.1742  -29.6439  -39.9544 C.3       10 UNK        -0.0983 
     18 CA         20.4254  -29.0045  -40.6010 C.3       3 UNK         0.0876 
     19 N          20.2719  -28.7053  -42.0315 N.am      3 UNK        -0.4424 
     20 C          21.3040  -28.3495  -42.8120 C.2       2 UNK         0.4918 
     21 O          22.4763  -28.5059  -42.4682 O.2       2 UNK        -0.4875 
     22 CA         21.0161  -27.6215  -44.1405 C.3       2 UNK         0.0481 
     23 CB         21.7519  -28.2503  -45.3322 C.3       2 UNK        -0.1831 
     24 N          19.6045  -27.4418  -44.4863 N.am      2 UNK        -0.4498 
     25 C          18.7370  -26.6349  -43.8622 C.2       1 UNK         0.5027 
     26 O          18.9997  -26.0422  -42.8136 O.2       1 UNK        -0.4969 
     27 C          20.8957  -27.7661  -39.8094 C.2       3 UNK         0.5005 
     28 O          21.6848  -27.9252  -38.8761 O.2       3 UNK        -0.5279 
     29 N          20.4869  -26.5604  -40.2415 N.am      4 UNK        -0.4463 
     30 CA         20.9621  -25.2768  -39.7115 C.3       4 UNK         0.0283 
     31 CB         20.0928  -24.1422  -40.2760 C.3       4 UNK        -0.1875 
     32 C          22.4522  -25.0042  -39.9992 C.2       4 UNK         0.4949 
     33 O          23.0589  -24.1915  -39.3030 O.2       4 UNK        -0.5039 
     34 N          23.0246  -25.7087  -40.9857 N.am      5 UNK        -0.4663 
     35 CA         24.4481  -25.7040  -41.3286 C.3       5 UNK         0.0242 
     36 CB         24.5906  -25.7366  -42.8619 C.3       5 UNK        -0.1982 
     37 C          25.2065  -26.8582  -40.6381 C.2       5 UNK         0.5017 
     38 O          26.2182  -27.3188  -41.1672 O.2       5 UNK        -0.5012 
     39 N          24.7120  -27.2884  -39.4663 N.am      6 UNK        -0.4439 
     40 CA         25.2433  -28.3333  -38.5857 C.3       6 UNK         0.0297 
     41 CB         26.6542  -27.9716  -38.0717 C.3       6 UNK        -0.2006 
     42 C          25.1660  -29.7324  -39.2212 C.2       6 UNK         0.4892 
     43 O          26.1939  -30.3889  -39.3984 O.2       6 UNK        -0.5089 
     44 N          23.9299  -30.1592  -39.5256 N.am      7 UNK        -0.4243 
     45 CA         23.5592  -31.4871  -40.0448 C.3       7 UNK         0.0196 
     46 CB         23.8061  -32.5729  -38.9749 C.3       7 UNK        -0.2007 
     47 C          24.2123  -31.8234  -41.4010 C.2       7 UNK         0.5020 
     48 O          24.6445  -32.9574  -41.6131 O.2       7 UNK        -0.5147 
     49 N          24.2731  -30.8331  -42.3003 N.am      8 UNK        -0.4734 
     50 CA         24.9086  -30.9520  -43.6162 C.3       8 UNK         0.0238 
     51 CB         25.5510  -29.6011  -43.9738 C.3       8 UNK        -0.1912 
     52 C          23.9463  -31.4198  -44.7248 C.2       8 UNK         0.5038 
     53 O          24.4009  -31.6369  -45.8491 O.2       8 UNK        -0.5046 
     54 N          22.6483  -31.5465  -44.4136 N.am      9 UNK        -0.4200 
     55 CA         21.6019  -32.0036  -45.3425 C.3       9 UNK         0.0839 
     56 C          21.7483  -33.4967  -45.7496 C.2       9 UNK         0.5513 
     57 N          21.2288  -33.8732  -46.9095 N.am      9 UNK        -0.7519 
     58 O          22.2869  -34.3190  -45.0113 O.2       9 UNK        -0.4960 
     59 C59        20.1803  -31.6905  -44.7933 C.3       10 UNK        -0.0876 
     60 S60        19.0544  -31.0682  -46.0918 S.3       10 UNK        -0.2414 
     61 C61        17.4453  -31.7561  -45.5871 C.3       10 UNK         0.0169 
     62 H62        19.1336  -25.4143  -48.5559 H         1 UNK         0.0903 
     63 H63        17.4588  -25.7468  -49.0050 H         1 UNK         0.0903 
     64 H64        17.8385  -24.3655  -47.9743 H         1 UNK         0.0903 
     65 H65        17.3890  -24.7424  -45.8118 H         1 UNK         0.3096 
     66 H66        17.0058  -27.4421  -44.7974 H         1 UNK         0.1121 
     67 H67        16.6779  -24.7929  -43.3086 H         1 UNK         0.0849 
     68 H68        15.4394  -25.4793  -44.3168 H         1 UNK         0.0849 
     69 H69        13.9150  -28.3494  -42.6090 H         1 UNK         0.0865 
     70 H70        14.5562  -27.8511  -44.1516 H         1 UNK         0.0865 
     71 H71        15.8785  -29.5341  -45.2761 H         1 UNK         0.1346 
     72 H72        17.8865  -32.5898  -43.0350 H         1 UNK         0.1412 
     73 H73        15.7518  -29.5003  -40.9848 H         1 UNK         0.1426 
     74 H74        17.1140  -32.7676  -40.5446 H         1 UNK         0.0716 
     75 H75        16.7621  -31.2696  -39.7150 H         1 UNK         0.0716 
     76 H76        18.2666  -29.1421  -40.2917 H         1 UNK         0.0695 
     77 H77        19.1897  -29.5390  -38.8673 H         1 UNK         0.0695 
     78 H78        21.2406  -29.7187  -40.5171 H         1 UNK         0.0983 
     79 H79        19.3319  -28.5653  -42.3719 H         1 UNK         0.3095 
     80 H80        21.4355  -26.6220  -44.0088 H         1 UNK         0.0454 
     81 H81        22.8026  -28.4307  -45.1099 H         1 UNK         0.0851 
     82 H82        21.7200  -27.5937  -46.2017 H         1 UNK         0.0851 
     83 H83        21.3085  -29.1980  -45.6241 H         1 UNK         0.0851 
     84 H84        19.2963  -27.8560  -45.3613 H         1 UNK         0.2976 
     85 H85        19.8615  -26.5065  -41.0411 H         1 UNK         0.3116 
     86 H86        20.8366  -25.2967  -38.6269 H         1 UNK         0.0646 
     87 H87        20.1940  -24.0566  -41.3586 H         1 UNK         0.0847 
     88 H88        19.0377  -24.2975  -40.0499 H         1 UNK         0.0847 
     89 H89        20.3779  -23.1810  -39.8461 H         1 UNK         0.0847 
     90 H90        22.4621  -26.3923  -41.4725 H         1 UNK         0.3040 
     91 H91        24.9071  -24.7781  -40.9747 H         1 UNK         0.1015 
     92 H92        25.6372  -25.6753  -43.1629 H         1 UNK         0.0786 
     93 H93        24.0745  -24.8952  -43.3244 H         1 UNK         0.0786 
     94 H94        24.1822  -26.6521  -43.2872 H         1 UNK         0.0786 
     95 H95        23.8439  -26.8709  -39.1567 H         1 UNK         0.3172 
     96 H96        24.5837  -28.3567  -37.7166 H         1 UNK         0.0595 
     97 H97        27.3924  -27.9581  -38.8740 H         1 UNK         0.0839 
     98 H98        26.9955  -28.6986  -37.3337 H         1 UNK         0.0839 
     99 H99        26.6633  -26.9936  -37.5907 H         1 UNK         0.0839 
    100 H100       23.1655  -29.5218  -39.3360 H         1 UNK         0.2998 
    101 H101       22.4865  -31.4772  -40.2300 H         1 UNK         0.0822 
    102 H102       23.4182  -33.5390  -39.3005 H         1 UNK         0.0787 
    103 H103       23.3079  -32.3264  -38.0373 H         1 UNK         0.0787 
    104 H104       24.8685  -32.7036  -38.7666 H         1 UNK         0.0787 
    105 H105       23.8586  -29.9320  -42.0808 H         1 UNK         0.3055 
    106 H106       25.7088  -31.6941  -43.5656 H         1 UNK         0.1106 
    107 H107       26.2993  -29.3133  -43.2348 H         1 UNK         0.0828 
    108 H108       26.0531  -29.6445  -44.9411 H         1 UNK         0.0828 
    109 H109       24.8128  -28.8029  -44.0232 H         1 UNK         0.0828 
    110 H110       22.3756  -31.3878  -43.4565 H         1 UNK         0.2931 
    111 H111       21.7569  -31.4209  -46.2531 H         1 UNK         0.0412 
    112 H112       21.2968  -34.8390  -47.1906 H         1 UNK         0.3472 
    113 H113       20.7573  -33.2082  -47.5035 H         1 UNK         0.3472 
    114 H114       19.7506  -32.5676  -44.3082 H         1 UNK         0.0970 
    115 H115       20.2153  -30.9222  -44.0206 H         1 UNK         0.0970 
    116 H116       16.7247  -31.5843  -46.3879 H         1 UNK         0.0612 
    117 H117       17.5283  -32.8387  -45.4782 H         1 UNK         0.0612 
@<TRIPOS>BOND
     1    1    2 1    
     2    1   62 1    
     3    1   63 1    
     4    1   64 1    
     5    2    3 2    
     6    2    4 am   BACKBONE|DICT|INTERRES
     7    4    5 1    
     8    4   65 1    
     9    5    6 1    
    10    5   25 1    
    11    5   66 1    
    12    6    7 1    
    13    6   67 1    
    14    6   68 1    
    15    7    8 1    
    16    8    9 1    
    17    8   69 1    
    18    8   70 1    
    19    9   10 ar   
    20    9   14 ar   
    21   10   11 ar   
    22   10   71 1    
    23   11   12 ar   
    24   11   61 1    
    25   12   13 ar   
    26   12   72 1    
    27   13   14 ar   
    28   13   15 1    
    29   14   73 1    
    30   15   16 1    
    31   15   74 1    
    32   15   75 1    
    33   16   17 1    
    34   17   18 1    
    35   17   76 1    
    36   17   77 1    
    37   18   19 1    
    38   18   27 1    
    39   18   78 1    
    40   19   20 am   BACKBONE|DICT|INTERRES
    41   19   79 1    
    42   20   21 2    
    43   20   22 1    
    44   22   23 1    
    45   22   24 1    
    46   22   80 1    
    47   23   81 1    
    48   23   82 1    
    49   23   83 1    
    50   24   25 am   BACKBONE|DICT|INTERRES
    51   24   84 1    
    52   25   26 2    
    53   27   28 2    
    54   27   29 am   BACKBONE|DICT|INTERRES
    55   29   30 1    
    56   29   85 1    
    57   30   31 1    
    58   30   32 1    
    59   30   86 1    
    60   31   87 1    
    61   31   88 1    
    62   31   89 1    
    63   32   33 2    
    64   32   34 am   BACKBONE|DICT|INTERRES
    65   34   35 1    
    66   34   90 1    
    67   35   36 1    
    68   35   37 1    
    69   35   91 1    
    70   36   92 1    
    71   36   93 1    
    72   36   94 1    
    73   37   38 2    
    74   37   39 am   BACKBONE|DICT|INTERRES
    75   39   40 1    
    76   39   95 1    
    77   40   41 1    
    78   40   42 1    
    79   40   96 1    
    80   41   97 1    
    81   41   98 1    
    82   41   99 1    
    83   42   43 2    
    84   42   44 am   BACKBONE|DICT|INTERRES
    85   44   45 1    
    86   44  100 1    
    87   45   46 1    
    88   45   47 1    
    89   45  101 1    
    90   46  102 1    
    91   46  103 1    
    92   46  104 1    
    93   47   48 2    
    94   47   49 am   BACKBONE|DICT|INTERRES
    95   49   50 1    
    96   49  105 1    
    97   50   51 1    
    98   50   52 1    
    99   50  106 1    
   100   51  107 1    
   101   51  108 1    
   102   51  109 1    
   103   52   53 2    
   104   52   54 am   BACKBONE|DICT|INTERRES
   105   54   55 1    
   106   54  110 1    
   107   55   56 1    
   108   55   59 1    
   109   55  111 1    
   110   56   57 am   BACKBONE|DICT|INTERRES
   111   56   58 2    
   112   57  112 1    
   113   57  113 1    
   114   59   60 1    
   115   59  114 1    
   116   59  115 1    
   117   60   61 1    
   118   61  116 1    
   119   61  117 1    
@<TRIPOS>SUBSTRUCTURE
     1 UNK         1 GROUP             0       ****    0 ROOT    
