@<TRIPOS>MOLECULE
3R8
117   119    1
SMALL
USER_CHARGES


@<TRIPOS>ATOM
      1 CA         19.5423  -24.7452  -49.9505 C.3       0 UNK        -0.2013 
      2 C          19.5506  -25.3800  -48.5678 C.2       0 UNK         0.4866 
      3 O          20.6212  -25.6802  -48.0386 O.2       0 UNK        -0.5176 
      4 N          18.3656  -25.5950  -47.9832 N.am      1 UNK        -0.4884 
      5 CA         18.1840  -26.1506  -46.6379 C.3       1 UNK         0.0853 
      6 C6         16.7214  -26.5958  -46.3961 C.3       10 UNK        -0.0849 
      7 S7         16.3062  -28.0507  -47.4162 S.3       10 UNK        -0.2776 
      8 C8         15.6607  -29.2293  -46.1776 C.3       10 UNK         0.0316 
      9 C9         16.6199  -29.5507  -45.0310 C.ar      10 UNK        -0.0863 
     10 C10        17.9910  -29.7324  -45.2471 C.ar      10 UNK        -0.1009 
     11 C11        18.8426  -30.0479  -44.1844 C.ar      10 UNK        -0.0712 
     12 C12        18.3116  -30.2107  -42.9016 C.ar      10 UNK        -0.0894 
     13 C13        16.9444  -30.0325  -42.6660 C.ar      10 UNK        -0.0745 
     14 C14        16.1090  -29.7009  -43.7372 C.ar      10 UNK        -0.0972 
     15 C15        16.3383  -30.2342  -41.2768 C.3       10 UNK         0.0209 
     16 S16        17.3428  -29.5770  -39.8993 S.3       10 UNK        -0.2568 
     17 C17        17.4577  -27.8047  -40.3154 C.3       10 UNK        -0.0983 
     18 CA         18.9107  -27.4071  -40.6792 C.3       3 UNK         0.0876 
     19 N          18.9488  -26.3491  -41.6927 N.am      3 UNK        -0.4424 
     20 C          20.0640  -25.8985  -42.2805 C.2       2 UNK         0.4918 
     21 O          21.1945  -26.3100  -42.0172 O.2       2 UNK        -0.4875 
     22 CA         19.8623  -24.8911  -43.4142 C.3       2 UNK         0.0481 
     23 CB         21.1595  -24.1509  -43.7980 C.3       2 UNK        -0.1831 
     24 N          19.3504  -25.6422  -44.5545 N.am      2 UNK        -0.4498 
     25 C          18.6326  -25.1410  -45.5639 C.2       1 UNK         0.5027 
     26 O          18.3031  -23.9557  -45.6576 O.2       1 UNK        -0.4969 
     27 C          19.7494  -27.0584  -39.4303 C.2       3 UNK         0.5005 
     28 O          19.8391  -25.8855  -39.0575 O.2       3 UNK        -0.5279 
     29 N          20.3829  -28.0826  -38.8420 N.am      4 UNK        -0.4463 
     30 CA         21.3606  -28.0527  -37.7433 C.3       4 UNK         0.0283 
     31 CB         20.7911  -27.3904  -36.4733 C.3       4 UNK        -0.1875 
     32 C          22.7252  -27.4488  -38.1283 C.2       4 UNK         0.4949 
     33 O          23.7478  -27.9746  -37.6896 O.2       4 UNK        -0.5039 
     34 N          22.7335  -26.3864  -38.9457 N.am      5 UNK        -0.4663 
     35 CA         23.9389  -25.7753  -39.5122 C.3       5 UNK         0.0242 
     36 CB         23.5944  -24.4090  -40.1274 C.3       5 UNK        -0.1982 
     37 C          24.6095  -26.7015  -40.5388 C.2       5 UNK         0.5017 
     38 O          25.7994  -26.9941  -40.4111 O.2       5 UNK        -0.5012 
     39 N          23.8219  -27.1943  -41.5041 N.am      6 UNK        -0.4439 
     40 CA         24.2053  -28.2471  -42.4424 C.3       6 UNK         0.0297 
     41 CB         23.3924  -28.0980  -43.7405 C.3       6 UNK        -0.2006 
     42 C          24.0156  -29.6180  -41.7726 C.2       6 UNK         0.4892 
     43 O          23.0596  -30.3362  -42.0714 O.2       6 UNK        -0.5089 
     44 N          24.9352  -29.9447  -40.8544 N.am      7 UNK        -0.4243 
     45 CA         24.9398  -31.1610  -40.0326 C.3       7 UNK         0.0196 
     46 CB         26.0911  -31.0730  -39.0186 C.3       7 UNK        -0.2007 
     47 C          25.0170  -32.4795  -40.8260 C.2       7 UNK         0.5020 
     48 O          24.6587  -33.5261  -40.2856 O.2       7 UNK        -0.5147 
     49 N          25.4418  -32.4113  -42.0963 N.am      8 UNK        -0.4734 
     50 CA         25.4695  -33.5231  -43.0532 C.3       8 UNK         0.0238 
     51 CB         26.1031  -33.0376  -44.3671 C.3       8 UNK        -0.1912 
     52 C          24.0925  -34.1611  -43.3253 C.2       8 UNK         0.5038 
     53 O          24.0473  -35.3308  -43.7092 O.2       8 UNK        -0.5046 
     54 N          23.0064  -33.4063  -43.1046 N.am      9 UNK        -0.4200 
     55 CA         21.6254  -33.9143  -43.1283 C.3       9 UNK         0.0839 
     56 C          21.2482  -34.8007  -41.9033 C.2       9 UNK         0.5513 
     57 N          22.0554  -34.8848  -40.8513 N.am      9 UNK        -0.7519 
     58 O          20.1966  -35.4353  -41.9123 O.2       9 UNK        -0.4960 
     59 C59        20.5936  -32.7733  -43.3153 C.3       10 UNK        -0.0876 
     60 S60        20.7971  -31.8886  -44.8980 S.3       10 UNK        -0.2414 
     61 C61        20.3386  -30.1956  -44.4187 C.3       10 UNK         0.0169 
     62 H62        20.0880  -23.8021  -49.9332 H         1 UNK         0.0903 
     63 H63        20.0259  -25.4058  -50.6696 H         1 UNK         0.0903 
     64 H64        18.5302  -24.5449  -50.3017 H         1 UNK         0.0903 
     65 H65        17.5179  -25.3220  -48.4595 H         1 UNK         0.3096 
     66 H66        18.8274  -27.0303  -46.5584 H         1 UNK         0.1121 
     67 H67        16.0243  -25.7884  -46.6284 H         1 UNK         0.0849 
     68 H68        16.5580  -26.8368  -45.3439 H         1 UNK         0.0849 
     69 H69        14.7237  -28.8280  -45.7879 H         1 UNK         0.0865 
     70 H70        15.4055  -30.1606  -46.6846 H         1 UNK         0.0865 
     71 H71        18.3987  -29.6301  -46.2434 H         1 UNK         0.1346 
     72 H72        18.9652  -30.4757  -42.0832 H         1 UNK         0.1412 
     73 H73        15.0484  -29.5758  -43.5649 H         1 UNK         0.1426 
     74 H74        16.1911  -31.3031  -41.1180 H         1 UNK         0.0716 
     75 H75        15.3489  -29.7773  -41.2223 H         1 UNK         0.0716 
     76 H76        17.0706  -27.2111  -39.4847 H         1 UNK         0.0695 
     77 H77        16.7849  -27.6079  -41.1517 H         1 UNK         0.0695 
     78 H78        19.3964  -28.2583  -41.1602 H         1 UNK         0.0983 
     79 H79        18.0617  -25.9517  -41.9631 H         1 UNK         0.3095 
     80 H80        19.1201  -24.1592  -43.0886 H         1 UNK         0.0454 
     81 H81        21.9270  -24.8383  -44.1559 H         1 UNK         0.0851 
     82 H82        21.5711  -23.6173  -42.9408 H         1 UNK         0.0851 
     83 H83        20.9804  -23.4147  -44.5814 H         1 UNK         0.0851 
     84 H84        19.5561  -26.6321  -44.5403 H         1 UNK         0.2976 
     85 H85        20.2291  -29.0022  -39.2337 H         1 UNK         0.3116 
     86 H86        21.5474  -29.1003  -37.5011 H         1 UNK         0.0646 
     87 H87        20.6256  -26.3209  -36.6051 H         1 UNK         0.0847 
     88 H88        21.4805  -27.5060  -35.6361 H         1 UNK         0.0847 
     89 H89        19.8447  -27.8436  -36.1787 H         1 UNK         0.0847 
     90 H90        21.8359  -26.0079  -39.2322 H         1 UNK         0.3040 
     91 H91        24.6508  -25.6119  -38.6998 H         1 UNK         0.1015 
     92 H92        22.8578  -24.4942  -40.9262 H         1 UNK         0.0786 
     93 H93        24.4822  -23.9379  -40.5514 H         1 UNK         0.0786 
     94 H94        23.1939  -23.7278  -39.3765 H         1 UNK         0.0786 
     95 H95        22.8488  -26.8927  -41.5441 H         1 UNK         0.3172 
     96 H96        25.2608  -28.1415  -42.7022 H         1 UNK         0.0595 
     97 H97        23.6203  -28.9019  -44.4416 H         1 UNK         0.0839 
     98 H98        23.6167  -27.1555  -44.2400 H         1 UNK         0.0839 
     99 H99        22.3206  -28.1228  -43.5515 H         1 UNK         0.0839 
    100 H100       25.6519  -29.2588  -40.6501 H         1 UNK         0.2998 
    101 H101       23.9984  -31.1794  -39.4795 H         1 UNK         0.0822 
    102 H102       26.1060  -31.9469  -38.3655 H         1 UNK         0.0787 
    103 H103       27.0615  -31.0184  -39.5138 H         1 UNK         0.0787 
    104 H104       25.9886  -30.1954  -38.3793 H         1 UNK         0.0787 
    105 H105       25.7149  -31.5054  -42.4479 H         1 UNK         0.3055 
    106 H106       26.1046  -34.3044  -42.6299 H         1 UNK         0.1106 
    107 H107       26.1657  -33.8493  -45.0936 H         1 UNK         0.0828 
    108 H108       25.5205  -32.2365  -44.8242 H         1 UNK         0.0828 
    109 H109       27.1171  -32.6700  -44.2089 H         1 UNK         0.0828 
    110 H110       23.1261  -32.4491  -42.7954 H         1 UNK         0.2931 
    111 H111       21.5378  -34.5685  -43.9981 H         1 UNK         0.0412 
    112 H112       21.7872  -35.4699  -40.0760 H         1 UNK         0.3472 
    113 H113       22.9343  -34.3796  -40.8148 H         1 UNK         0.3472 
    114 H114       20.6769  -32.0695  -42.4857 H         1 UNK         0.0970 
    115 H115       19.5726  -33.1594  -43.2892 H         1 UNK         0.0970 
    116 H116       20.6604  -29.5089  -45.2030 H         1 UNK         0.0612 
    117 H117       20.8862  -29.9118  -43.5206 H         1 UNK         0.0612 
@<TRIPOS>BOND
     1    1    2 1    
     2    1   62 1    
     3    1   63 1    
     4    1   64 1    
     5    2    3 2    
     6    2    4 am   BACKBONE|DICT|INTERRES
     7    4    5 1    
     8    4   65 1    
     9    5    6 1    
    10    5   25 1    
    11    5   66 1    
    12    6    7 1    
    13    6   67 1    
    14    6   68 1    
    15    7    8 1    
    16    8    9 1    
    17    8   69 1    
    18    8   70 1    
    19    9   10 ar   
    20    9   14 ar   
    21   10   11 ar   
    22   10   71 1    
    23   11   12 ar   
    24   11   61 1    
    25   12   13 ar   
    26   12   72 1    
    27   13   14 ar   
    28   13   15 1    
    29   14   73 1    
    30   15   16 1    
    31   15   74 1    
    32   15   75 1    
    33   16   17 1    
    34   17   18 1    
    35   17   76 1    
    36   17   77 1    
    37   18   19 1    
    38   18   27 1    
    39   18   78 1    
    40   19   20 am   BACKBONE|DICT|INTERRES
    41   19   79 1    
    42   20   21 2    
    43   20   22 1    
    44   22   23 1    
    45   22   24 1    
    46   22   80 1    
    47   23   81 1    
    48   23   82 1    
    49   23   83 1    
    50   24   25 am   BACKBONE|DICT|INTERRES
    51   24   84 1    
    52   25   26 2    
    53   27   28 2    
    54   27   29 am   BACKBONE|DICT|INTERRES
    55   29   30 1    
    56   29   85 1    
    57   30   31 1    
    58   30   32 1    
    59   30   86 1    
    60   31   87 1    
    61   31   88 1    
    62   31   89 1    
    63   32   33 2    
    64   32   34 am   BACKBONE|DICT|INTERRES
    65   34   35 1    
    66   34   90 1    
    67   35   36 1    
    68   35   37 1    
    69   35   91 1    
    70   36   92 1    
    71   36   93 1    
    72   36   94 1    
    73   37   38 2    
    74   37   39 am   BACKBONE|DICT|INTERRES
    75   39   40 1    
    76   39   95 1    
    77   40   41 1    
    78   40   42 1    
    79   40   96 1    
    80   41   97 1    
    81   41   98 1    
    82   41   99 1    
    83   42   43 2    
    84   42   44 am   BACKBONE|DICT|INTERRES
    85   44   45 1    
    86   44  100 1    
    87   45   46 1    
    88   45   47 1    
    89   45  101 1    
    90   46  102 1    
    91   46  103 1    
    92   46  104 1    
    93   47   48 2    
    94   47   49 am   BACKBONE|DICT|INTERRES
    95   49   50 1    
    96   49  105 1    
    97   50   51 1    
    98   50   52 1    
    99   50  106 1    
   100   51  107 1    
   101   51  108 1    
   102   51  109 1    
   103   52   53 2    
   104   52   54 am   BACKBONE|DICT|INTERRES
   105   54   55 1    
   106   54  110 1    
   107   55   56 1    
   108   55   59 1    
   109   55  111 1    
   110   56   57 am   BACKBONE|DICT|INTERRES
   111   56   58 2    
   112   57  112 1    
   113   57  113 1    
   114   59   60 1    
   115   59  114 1    
   116   59  115 1    
   117   60   61 1    
   118   61  116 1    
   119   61  117 1    
@<TRIPOS>SUBSTRUCTURE
     1 UNK         1 GROUP             0       ****    0 ROOT    
