@<TRIPOS>MOLECULE
3R8
117   119    1
SMALL
USER_CHARGES


@<TRIPOS>ATOM
      1 CA         14.5385  -26.2242  -46.8693 C.3       0 UNK        -0.2013 
      2 C          15.7531  -26.9110  -47.4761 C.2       0 UNK         0.4866 
      3 O          15.7739  -27.1576  -48.6827 O.2       0 UNK        -0.5176 
      4 N          16.7556  -27.2193  -46.6469 N.am      1 UNK        -0.4884 
      5 CA         18.0211  -27.8510  -47.0374 C.3       1 UNK         0.0853 
      6 C6         18.1936  -29.2749  -46.4334 C.3       10 UNK        -0.0849 
      7 S7         16.7444  -30.3701  -46.6512 S.3       10 UNK        -0.2776 
      8 C8         16.6623  -31.2608  -45.0510 C.3       10 UNK         0.0316 
      9 C9         16.7364  -30.3683  -43.8115 C.ar      10 UNK        -0.0863 
     10 C10        17.5004  -30.7772  -42.7129 C.ar      10 UNK        -0.1009 
     11 C11        17.6233  -29.9599  -41.5856 C.ar      10 UNK        -0.0712 
     12 C12        16.9733  -28.7229  -41.5584 C.ar      10 UNK        -0.0894 
     13 C13        16.2218  -28.2935  -42.6548 C.ar      10 UNK        -0.0745 
     14 C14        16.0801  -29.1331  -43.7630 C.ar      10 UNK        -0.0972 
     15 C15        15.5891  -26.9114  -42.6633 C.3       10 UNK         0.0209 
     16 S16        16.6569  -25.7109  -43.5253 S.3       10 UNK        -0.2568 
     17 C17        17.8439  -25.2206  -42.2253 C.3       10 UNK        -0.0983 
     18 CA         19.1871  -25.9910  -42.2801 C.3       3 UNK         0.0876 
     19 N          19.8283  -25.9249  -43.5941 N.am      3 UNK        -0.4424 
     20 C          20.9508  -26.5740  -43.9292 C.2       2 UNK         0.4918 
     21 O          21.6390  -27.2061  -43.1278 O.2       2 UNK        -0.4875 
     22 CA         21.2968  -26.5882  -45.4265 C.3       2 UNK         0.0481 
     23 CB         22.6830  -27.1959  -45.7109 C.3       2 UNK        -0.1831 
     24 N          20.2711  -27.3819  -46.1044 N.am      2 UNK        -0.4498 
     25 C          19.1545  -26.8750  -46.6472 C.2       1 UNK         0.5027 
     26 O          18.9824  -25.6622  -46.7986 O.2       1 UNK        -0.4969 
     27 C          20.1318  -25.5308  -41.1515 C.2       3 UNK         0.5005 
     28 O          20.7118  -24.4467  -41.2459 O.2       3 UNK        -0.5279 
     29 N          20.2637  -26.3801  -40.1235 N.am      4 UNK        -0.4463 
     30 CA         21.1204  -26.2489  -38.9398 C.3       4 UNK         0.0283 
     31 CB         20.8685  -24.9292  -38.1798 C.3       4 UNK        -0.1875 
     32 C          22.6206  -26.5006  -39.1893 C.2       4 UNK         0.4949 
     33 O          23.3900  -26.4388  -38.2286 O.2       4 UNK        -0.5039 
     34 N          23.0335  -26.8545  -40.4174 N.am      5 UNK        -0.4663 
     35 CA         24.3944  -27.3164  -40.7224 C.3       5 UNK         0.0242 
     36 CB         24.7310  -27.0205  -42.1958 C.3       5 UNK        -0.1982 
     37 C          24.5203  -28.8111  -40.3766 C.2       5 UNK         0.5017 
     38 O          24.6938  -29.6411  -41.2704 O.2       5 UNK        -0.5012 
     39 N          24.3885  -29.1181  -39.0780 N.am      6 UNK        -0.4439 
     40 CA         24.1762  -30.4397  -38.4695 C.3       6 UNK         0.0297 
     41 CB         24.0957  -30.2672  -36.9437 C.3       6 UNK        -0.2006 
     42 C          25.1727  -31.5593  -38.8302 C.2       6 UNK         0.4892 
     43 O          24.8695  -32.7252  -38.5742 O.2       6 UNK        -0.5089 
     44 N          26.3173  -31.2113  -39.4329 N.am      7 UNK        -0.4243 
     45 CA         27.2682  -32.1489  -40.0364 C.3       7 UNK         0.0196 
     46 CB         28.5303  -31.3797  -40.4589 C.3       7 UNK        -0.2007 
     47 C          26.6873  -32.9284  -41.2350 C.2       7 UNK         0.5020 
     48 O          27.1761  -34.0204  -41.5268 O.2       7 UNK        -0.5147 
     49 N          25.6628  -32.3730  -41.8972 N.am      8 UNK        -0.4734 
     50 CA         24.9259  -33.0205  -42.9852 C.3       8 UNK         0.0238 
     51 CB         25.5233  -32.6159  -44.3444 C.3       8 UNK        -0.1912 
     52 C          23.4290  -32.6921  -42.9163 C.2       8 UNK         0.5038 
     53 O          22.6065  -33.6057  -42.9951 O.2       8 UNK        -0.5046 
     54 N          23.1101  -31.4020  -42.7514 N.am      9 UNK        -0.4200 
     55 CA         21.7732  -30.7975  -42.6782 C.3       9 UNK         0.0839 
     56 C          20.9711  -30.9223  -44.0026 C.2       9 UNK         0.5513 
     57 N          20.5734  -32.1222  -44.4018 N.am      9 UNK        -0.7519 
     58 O          20.7351  -29.9344  -44.6891 O.2       9 UNK        -0.4960 
     59 C59        20.9769  -31.2460  -41.4172 C.3       10 UNK        -0.0876 
     60 S60        20.1887  -29.8469  -40.5466 S.3       10 UNK        -0.2414 
     61 C61        18.4612  -30.4026  -40.3964 C.3       10 UNK         0.0169 
     62 H62        14.4235  -25.2254  -47.2896 H         1 UNK         0.0903 
     63 H63        13.6363  -26.7937  -47.0907 H         1 UNK         0.0903 
     64 H64        14.6194  -26.1296  -45.7870 H         1 UNK         0.0903 
     65 H65        16.7074  -26.9250  -45.6799 H         1 UNK         0.3096 
     66 H66        18.0719  -27.9440  -48.1242 H         1 UNK         0.1121 
     67 H67        18.4089  -29.1916  -45.3694 H         1 UNK         0.0849 
     68 H68        19.0537  -29.7758  -46.8811 H         1 UNK         0.0849 
     69 H69        15.7341  -31.8322  -45.0149 H         1 UNK         0.0865 
     70 H70        17.4724  -31.9916  -45.0346 H         1 UNK         0.0865 
     71 H71        18.0140  -31.7284  -42.7396 H         1 UNK         0.1346 
     72 H72        17.0747  -28.0818  -40.6936 H         1 UNK         0.1412 
     73 H73        15.4914  -28.8058  -44.6086 H         1 UNK         0.1426 
     74 H74        15.3760  -26.5709  -41.6490 H         1 UNK         0.0716 
     75 H75        14.6265  -26.9552  -43.1752 H         1 UNK         0.0716 
     76 H76        17.3723  -25.3443  -41.2487 H         1 UNK         0.0695 
     77 H77        18.0226  -24.1493  -42.3360 H         1 UNK         0.0695 
     78 H78        18.9738  -27.0485  -42.1230 H         1 UNK         0.0983 
     79 H79        19.3168  -25.4342  -44.3141 H         1 UNK         0.3095 
     80 H80        21.3001  -25.5580  -45.7881 H         1 UNK         0.0454 
     81 H81        22.7586  -28.2243  -45.3557 H         1 UNK         0.0851 
     82 H82        23.4667  -26.6222  -45.2150 H         1 UNK         0.0851 
     83 H83        22.9044  -27.1940  -46.7780 H         1 UNK         0.0851 
     84 H84        20.3219  -28.3794  -45.9158 H         1 UNK         0.2976 
     85 H85        19.7800  -27.2667  -40.1847 H         1 UNK         0.3116 
     86 H86        20.8050  -27.0576  -38.2787 H         1 UNK         0.0646 
     87 H87        21.2476  -24.0645  -38.7247 H         1 UNK         0.0847 
     88 H88        21.3674  -24.9377  -37.2100 H         1 UNK         0.0847 
     89 H89        19.8062  -24.7721  -37.9936 H         1 UNK         0.0847 
     90 H90        22.3578  -26.9266  -41.1717 H         1 UNK         0.3040 
     91 H91        25.1122  -26.7683  -40.1079 H         1 UNK         0.1015 
     92 H92        24.5599  -25.9725  -42.4421 H         1 UNK         0.0786 
     93 H93        24.1393  -27.6273  -42.8809 H         1 UNK         0.0786 
     94 H94        25.7795  -27.2377  -42.4026 H         1 UNK         0.0786 
     95 H95        24.2442  -28.3274  -38.4585 H         1 UNK         0.3172 
     96 H96        23.1996  -30.7803  -38.8187 H         1 UNK         0.0595 
     97 H97        25.0298  -29.8813  -36.5335 H         1 UNK         0.0839 
     98 H98        23.8911  -31.2181  -36.4491 H         1 UNK         0.0839 
     99 H99        23.2956  -29.5824  -36.6615 H         1 UNK         0.0839 
    100 H100       26.4692  -30.2300  -39.6154 H         1 UNK         0.2998 
    101 H101       27.5473  -32.8802  -39.2748 H         1 UNK         0.0822 
    102 H102       28.9982  -30.8849  -39.6077 H         1 UNK         0.0787 
    103 H103       29.2727  -32.0542  -40.8880 H         1 UNK         0.0787 
    104 H104       28.3070  -30.6206  -41.2099 H         1 UNK         0.0787 
    105 H105       25.3187  -31.4705  -41.5798 H         1 UNK         0.3055 
    106 H106       25.0095  -34.1053  -42.8838 H         1 UNK         0.1106 
    107 H107       24.9671  -33.0686  -45.1665 H         1 UNK         0.0828 
    108 H108       25.5041  -31.5353  -44.4907 H         1 UNK         0.0828 
    109 H109       26.5583  -32.9462  -44.4339 H         1 UNK         0.0828 
    110 H110       23.8621  -30.7311  -42.6396 H         1 UNK         0.2931 
    111 H111       22.0006  -29.7374  -42.5647 H         1 UNK         0.0412 
    112 H112       20.8944  -32.9386  -43.8959 H         1 UNK         0.3472 
    113 H113       20.0757  -32.2198  -45.2712 H         1 UNK         0.3472 
    114 H114       20.2454  -32.0193  -41.6550 H         1 UNK         0.0970 
    115 H115       21.6482  -31.7084  -40.6922 H         1 UNK         0.0970 
    116 H116       18.0436  -29.9838  -39.4796 H         1 UNK         0.0612 
    117 H117       18.4186  -31.4859  -40.2751 H         1 UNK         0.0612 
@<TRIPOS>BOND
     1    1    2 1    
     2    1   62 1    
     3    1   63 1    
     4    1   64 1    
     5    2    3 2    
     6    2    4 am   BACKBONE|DICT|INTERRES
     7    4    5 1    
     8    4   65 1    
     9    5    6 1    
    10    5   25 1    
    11    5   66 1    
    12    6    7 1    
    13    6   67 1    
    14    6   68 1    
    15    7    8 1    
    16    8    9 1    
    17    8   69 1    
    18    8   70 1    
    19    9   10 ar   
    20    9   14 ar   
    21   10   11 ar   
    22   10   71 1    
    23   11   12 ar   
    24   11   61 1    
    25   12   13 ar   
    26   12   72 1    
    27   13   14 ar   
    28   13   15 1    
    29   14   73 1    
    30   15   16 1    
    31   15   74 1    
    32   15   75 1    
    33   16   17 1    
    34   17   18 1    
    35   17   76 1    
    36   17   77 1    
    37   18   19 1    
    38   18   27 1    
    39   18   78 1    
    40   19   20 am   BACKBONE|DICT|INTERRES
    41   19   79 1    
    42   20   21 2    
    43   20   22 1    
    44   22   23 1    
    45   22   24 1    
    46   22   80 1    
    47   23   81 1    
    48   23   82 1    
    49   23   83 1    
    50   24   25 am   BACKBONE|DICT|INTERRES
    51   24   84 1    
    52   25   26 2    
    53   27   28 2    
    54   27   29 am   BACKBONE|DICT|INTERRES
    55   29   30 1    
    56   29   85 1    
    57   30   31 1    
    58   30   32 1    
    59   30   86 1    
    60   31   87 1    
    61   31   88 1    
    62   31   89 1    
    63   32   33 2    
    64   32   34 am   BACKBONE|DICT|INTERRES
    65   34   35 1    
    66   34   90 1    
    67   35   36 1    
    68   35   37 1    
    69   35   91 1    
    70   36   92 1    
    71   36   93 1    
    72   36   94 1    
    73   37   38 2    
    74   37   39 am   BACKBONE|DICT|INTERRES
    75   39   40 1    
    76   39   95 1    
    77   40   41 1    
    78   40   42 1    
    79   40   96 1    
    80   41   97 1    
    81   41   98 1    
    82   41   99 1    
    83   42   43 2    
    84   42   44 am   BACKBONE|DICT|INTERRES
    85   44   45 1    
    86   44  100 1    
    87   45   46 1    
    88   45   47 1    
    89   45  101 1    
    90   46  102 1    
    91   46  103 1    
    92   46  104 1    
    93   47   48 2    
    94   47   49 am   BACKBONE|DICT|INTERRES
    95   49   50 1    
    96   49  105 1    
    97   50   51 1    
    98   50   52 1    
    99   50  106 1    
   100   51  107 1    
   101   51  108 1    
   102   51  109 1    
   103   52   53 2    
   104   52   54 am   BACKBONE|DICT|INTERRES
   105   54   55 1    
   106   54  110 1    
   107   55   56 1    
   108   55   59 1    
   109   55  111 1    
   110   56   57 am   BACKBONE|DICT|INTERRES
   111   56   58 2    
   112   57  112 1    
   113   57  113 1    
   114   59   60 1    
   115   59  114 1    
   116   59  115 1    
   117   60   61 1    
   118   61  116 1    
   119   61  117 1    
@<TRIPOS>SUBSTRUCTURE
     1 UNK         1 GROUP             0       ****    0 ROOT    
