@<TRIPOS>MOLECULE
3R8
117   119    1
SMALL
USER_CHARGES


@<TRIPOS>ATOM
      1 CA         17.7890  -22.2122  -46.7242 C.3       0 UNK        -0.2013 
      2 C          17.7275  -23.6933  -46.3837 C.2       0 UNK         0.4866 
      3 O          18.7570  -24.3693  -46.3949 O.2       0 UNK        -0.5176 
      4 N          16.5311  -24.2066  -46.0677 N.am      1 UNK        -0.4884 
      5 CA         16.2724  -25.6053  -45.7002 C.3       1 UNK         0.0853 
      6 C6         14.8068  -26.0104  -46.0354 C.3       10 UNK        -0.0849 
      7 S7         14.6613  -27.6685  -46.7790 S.3       10 UNK        -0.2776 
      8 C8         14.7943  -28.7715  -45.3261 C.3       10 UNK         0.0316 
      9 C9         16.1715  -29.4016  -45.0870 C.ar      10 UNK        -0.0863 
     10 C10        16.3478  -30.1812  -43.9366 C.ar      10 UNK        -0.1009 
     11 C11        17.5517  -30.8527  -43.7041 C.ar      10 UNK        -0.0712 
     12 C12        18.5850  -30.7466  -44.6348 C.ar      10 UNK        -0.0894 
     13 C13        18.4551  -29.9260  -45.7551 C.ar      10 UNK        -0.0745 
     14 C14        17.2440  -29.2667  -45.9835 C.ar      10 UNK        -0.0972 
     15 C15        19.6179  -29.7686  -46.7254 C.3       10 UNK         0.0209 
     16 S16        20.6790  -28.3459  -46.3028 S.3       10 UNK        -0.2568 
     17 C17        21.5544  -28.9388  -44.8100 C.3       10 UNK        -0.0983 
     18 CA         21.5396  -27.9380  -43.6287 C.3       3 UNK         0.0876 
     19 N          20.2125  -27.3523  -43.3859 N.am      3 UNK        -0.4424 
     20 C          19.9899  -26.2354  -42.6794 C.2       2 UNK         0.4918 
     21 O          20.8834  -25.6005  -42.1154 O.2       2 UNK        -0.4875 
     22 CA         18.5309  -25.7767  -42.5827 C.3       2 UNK         0.0481 
     23 CB         18.3664  -24.4317  -41.8472 C.3       2 UNK        -0.1831 
     24 N          17.9571  -25.6901  -43.9225 N.am      2 UNK        -0.4498 
     25 C          16.6648  -25.8528  -44.2236 C.2       1 UNK         0.5027 
     26 O          15.8065  -26.1267  -43.3826 O.2       1 UNK        -0.4969 
     27 C          22.1856  -28.5444  -42.3564 C.2       3 UNK         0.5005 
     28 O          23.3532  -28.9383  -42.3921 O.2       3 UNK        -0.5279 
     29 N          21.4521  -28.5497  -41.2313 N.am      4 UNK        -0.4463 
     30 CA         21.9289  -28.8245  -39.8719 C.3       4 UNK         0.0283 
     31 CB         20.7540  -28.7167  -38.8869 C.3       4 UNK        -0.1875 
     32 C          23.0730  -27.8982  -39.4199 C.2       4 UNK         0.4949 
     33 O          23.8634  -28.3020  -38.5690 O.2       4 UNK        -0.5039 
     34 N          23.1962  -26.7138  -40.0392 N.am      5 UNK        -0.4663 
     35 CA         24.3488  -25.8146  -39.9127 C.3       5 UNK         0.0242 
     36 CB         24.0570  -24.5197  -40.6874 C.3       5 UNK        -0.1982 
     37 C          25.6789  -26.4388  -40.3871 C.2       5 UNK         0.5017 
     38 O          26.7351  -26.0383  -39.8978 O.2       5 UNK        -0.5012 
     39 N          25.6018  -27.4186  -41.2997 N.am      6 UNK        -0.4439 
     40 CA         26.7152  -28.2495  -41.7638 C.3       6 UNK         0.0297 
     41 CB         26.7018  -28.2656  -43.3034 C.3       6 UNK        -0.2006 
     42 C          26.6319  -29.6819  -41.1948 C.2       6 UNK         0.4892 
     43 O          27.3664  -30.5528  -41.6622 O.2       6 UNK        -0.5089 
     44 N          25.7335  -29.9090  -40.2210 N.am      7 UNK        -0.4243 
     45 CA         25.3991  -31.1813  -39.5659 C.3       7 UNK         0.0196 
     46 CB         26.6058  -31.7241  -38.7714 C.3       7 UNK        -0.2007 
     47 C          24.7891  -32.2429  -40.5048 C.2       7 UNK         0.5020 
     48 O          24.7645  -33.4216  -40.1465 O.2       7 UNK        -0.5147 
     49 N          24.2863  -31.8303  -41.6781 N.am      8 UNK        -0.4734 
     50 CA         23.8008  -32.7383  -42.7237 C.3       8 UNK         0.0238 
     51 CB         23.7003  -31.9763  -44.0511 C.3       8 UNK        -0.1912 
     52 C          22.4693  -33.4334  -42.3898 C.2       8 UNK         0.5038 
     53 O          22.1881  -34.4844  -42.9675 O.2       8 UNK        -0.5046 
     54 N          21.6872  -32.8579  -41.4663 N.am      9 UNK        -0.4200 
     55 CA         20.4538  -33.4612  -40.9321 C.3       9 UNK         0.0839 
     56 C          20.7001  -34.6285  -39.9299 C.2       9 UNK         0.5513 
     57 N          21.9268  -34.8935  -39.4923 N.am      9 UNK        -0.7519 
     58 O          19.7552  -35.3121  -39.5449 O.2       9 UNK        -0.4960 
     59 C59        19.4829  -32.4099  -40.3268 C.3       10 UNK        -0.0876 
     60 S60        19.1179  -31.0236  -41.4523 S.3       10 UNK        -0.2414 
     61 C61        17.7589  -31.6985  -42.4566 C.3       10 UNK         0.0169 
     62 H62        18.4474  -21.6945  -46.0272 H         1 UNK         0.0903 
     63 H63        18.1832  -22.0755  -47.7309 H         1 UNK         0.0903 
     64 H64        16.8073  -21.7411  -46.6777 H         1 UNK         0.0903 
     65 H65        15.7279  -23.5937  -46.0375 H         1 UNK         0.3096 
     66 H66        16.9390  -26.2253  -46.3045 H         1 UNK         0.1121 
     67 H67        14.1243  -25.9162  -45.1889 H         1 UNK         0.0849 
     68 H68        14.3995  -25.3307  -46.7859 H         1 UNK         0.0849 
     69 H69        14.4722  -28.2397  -44.4298 H         1 UNK         0.0865 
     70 H70        14.0781  -29.5826  -45.4651 H         1 UNK         0.0865 
     71 H71        15.5364  -30.2810  -43.2281 H         1 UNK         0.1346 
     72 H72        19.5006  -31.2946  -44.4641 H         1 UNK         0.1412 
     73 H73        17.1485  -28.6663  -46.8762 H         1 UNK         0.1426 
     74 H74        20.2206  -30.6779  -46.7528 H         1 UNK         0.0716 
     75 H75        19.2351  -29.6301  -47.7377 H         1 UNK         0.0716 
     76 H76        21.1403  -29.8927  -44.4961 H         1 UNK         0.0695 
     77 H77        22.5853  -29.1443  -45.1038 H         1 UNK         0.0695 
     78 H78        22.1923  -27.1104  -43.9159 H         1 UNK         0.0983 
     79 H79        19.4335  -27.8171  -43.8321 H         1 UNK         0.3095 
     80 H80        18.0044  -26.5464  -42.0143 H         1 UNK         0.0454 
     81 H81        18.8746  -23.6226  -42.3730 H         1 UNK         0.0851 
     82 H82        17.3161  -24.1584  -41.7466 H         1 UNK         0.0851 
     83 H83        18.7832  -24.4814  -40.8405 H         1 UNK         0.0851 
     84 H84        18.5880  -25.4183  -44.6724 H         1 UNK         0.2976 
     85 H85        20.4937  -28.2436  -41.3105 H         1 UNK         0.3116 
     86 H86        22.3054  -29.8488  -39.8550 H         1 UNK         0.0646 
     87 H87        21.0774  -28.9389  -37.8688 H         1 UNK         0.0847 
     88 H88        19.9578  -29.4194  -39.1277 H         1 UNK         0.0847 
     89 H89        20.3243  -27.7141  -38.8791 H         1 UNK         0.0847 
     90 H90        22.4830  -26.4424  -40.7059 H         1 UNK         0.3040 
     91 H91        24.4651  -25.5682  -38.8549 H         1 UNK         0.1015 
     92 H92        23.1640  -24.0227  -40.3075 H         1 UNK         0.0786 
     93 H93        23.9054  -24.7113  -41.7507 H         1 UNK         0.0786 
     94 H94        24.8837  -23.8137  -40.5962 H         1 UNK         0.0786 
     95 H95        24.6865  -27.7019  -41.6389 H         1 UNK         0.3172 
     96 H96        27.6672  -27.8286  -41.4348 H         1 UNK         0.0595 
     97 H97        25.7969  -28.7331  -43.6941 H         1 UNK         0.0839 
     98 H98        27.5528  -28.8215  -43.6991 H         1 UNK         0.0839 
     99 H99        26.7602  -27.2563  -43.7108 H         1 UNK         0.0839 
    100 H100       25.2048  -29.1149  -39.8780 H         1 UNK         0.2998 
    101 H101       24.6161  -30.9469  -38.8437 H         1 UNK         0.0822 
    102 H102       27.0112  -30.9671  -38.1000 H         1 UNK         0.0787 
    103 H103       26.3192  -32.5783  -38.1566 H         1 UNK         0.0787 
    104 H104       27.4094  -32.0548  -39.4300 H         1 UNK         0.0787 
    105 H105       24.2912  -30.8397  -41.8961 H         1 UNK         0.3055 
    106 H106       24.5449  -33.5286  -42.8484 H         1 UNK         0.1106 
    107 H107       23.3999  -32.6386  -44.8641 H         1 UNK         0.0828 
    108 H108       22.9621  -31.1822  -43.9870 H         1 UNK         0.0828 
    109 H109       24.6548  -31.5290  -44.3296 H         1 UNK         0.0828 
    110 H110       21.9876  -31.9915  -41.0481 H         1 UNK         0.2931 
    111 H111       19.9321  -33.9138  -41.7775 H         1 UNK         0.0412 
    112 H112       22.0628  -35.6555  -38.8468 H         1 UNK         0.3472 
    113 H113       22.7228  -34.3543  -39.8060 H         1 UNK         0.3472 
    114 H114       19.9056  -31.9929  -39.4111 H         1 UNK         0.0970 
    115 H115       18.5400  -32.8773  -40.0358 H         1 UNK         0.0970 
    116 H116       17.9930  -32.7210  -42.7558 H         1 UNK         0.0612 
    117 H117       16.8515  -31.7430  -41.8526 H         1 UNK         0.0612 
@<TRIPOS>BOND
     1    1    2 1    
     2    1   62 1    
     3    1   63 1    
     4    1   64 1    
     5    2    3 2    
     6    2    4 am   BACKBONE|DICT|INTERRES
     7    4    5 1    
     8    4   65 1    
     9    5    6 1    
    10    5   25 1    
    11    5   66 1    
    12    6    7 1    
    13    6   67 1    
    14    6   68 1    
    15    7    8 1    
    16    8    9 1    
    17    8   69 1    
    18    8   70 1    
    19    9   10 ar   
    20    9   14 ar   
    21   10   11 ar   
    22   10   71 1    
    23   11   12 ar   
    24   11   61 1    
    25   12   13 ar   
    26   12   72 1    
    27   13   14 ar   
    28   13   15 1    
    29   14   73 1    
    30   15   16 1    
    31   15   74 1    
    32   15   75 1    
    33   16   17 1    
    34   17   18 1    
    35   17   76 1    
    36   17   77 1    
    37   18   19 1    
    38   18   27 1    
    39   18   78 1    
    40   19   20 am   BACKBONE|DICT|INTERRES
    41   19   79 1    
    42   20   21 2    
    43   20   22 1    
    44   22   23 1    
    45   22   24 1    
    46   22   80 1    
    47   23   81 1    
    48   23   82 1    
    49   23   83 1    
    50   24   25 am   BACKBONE|DICT|INTERRES
    51   24   84 1    
    52   25   26 2    
    53   27   28 2    
    54   27   29 am   BACKBONE|DICT|INTERRES
    55   29   30 1    
    56   29   85 1    
    57   30   31 1    
    58   30   32 1    
    59   30   86 1    
    60   31   87 1    
    61   31   88 1    
    62   31   89 1    
    63   32   33 2    
    64   32   34 am   BACKBONE|DICT|INTERRES
    65   34   35 1    
    66   34   90 1    
    67   35   36 1    
    68   35   37 1    
    69   35   91 1    
    70   36   92 1    
    71   36   93 1    
    72   36   94 1    
    73   37   38 2    
    74   37   39 am   BACKBONE|DICT|INTERRES
    75   39   40 1    
    76   39   95 1    
    77   40   41 1    
    78   40   42 1    
    79   40   96 1    
    80   41   97 1    
    81   41   98 1    
    82   41   99 1    
    83   42   43 2    
    84   42   44 am   BACKBONE|DICT|INTERRES
    85   44   45 1    
    86   44  100 1    
    87   45   46 1    
    88   45   47 1    
    89   45  101 1    
    90   46  102 1    
    91   46  103 1    
    92   46  104 1    
    93   47   48 2    
    94   47   49 am   BACKBONE|DICT|INTERRES
    95   49   50 1    
    96   49  105 1    
    97   50   51 1    
    98   50   52 1    
    99   50  106 1    
   100   51  107 1    
   101   51  108 1    
   102   51  109 1    
   103   52   53 2    
   104   52   54 am   BACKBONE|DICT|INTERRES
   105   54   55 1    
   106   54  110 1    
   107   55   56 1    
   108   55   59 1    
   109   55  111 1    
   110   56   57 am   BACKBONE|DICT|INTERRES
   111   56   58 2    
   112   57  112 1    
   113   57  113 1    
   114   59   60 1    
   115   59  114 1    
   116   59  115 1    
   117   60   61 1    
   118   61  116 1    
   119   61  117 1    
@<TRIPOS>SUBSTRUCTURE
     1 UNK         1 GROUP             0       ****    0 ROOT    
