@<TRIPOS>MOLECULE
3R8
117   119    1
SMALL
USER_CHARGES


@<TRIPOS>ATOM
      1 CA         16.1939  -22.1208  -42.2765 C.3       0 UNK        -0.2013 
      2 C          16.5812  -23.2378  -43.2341 C.2       0 UNK         0.4866 
      3 O          16.0223  -23.3284  -44.3278 O.2       0 UNK        -0.5176 
      4 N          17.5265  -24.0949  -42.8290 N.am      1 UNK        -0.4884 
      5 CA         18.0588  -25.1968  -43.6354 C.3       1 UNK         0.0853 
      6 C6         18.9242  -26.1603  -42.7795 C.3       10 UNK        -0.0849 
      7 S7         17.9475  -27.1701  -41.6165 S.3       10 UNK        -0.2776 
      8 C8         17.1504  -28.3981  -42.7097 C.3       10 UNK         0.0316 
      9 C9         18.1266  -29.4107  -43.2978 C.ar      10 UNK        -0.0863 
     10 C10        18.3037  -30.6553  -42.6865 C.ar      10 UNK        -0.1009 
     11 C11        19.1435  -31.6163  -43.2587 C.ar      10 UNK        -0.0712 
     12 C12        19.8454  -31.3094  -44.4299 C.ar      10 UNK        -0.0894 
     13 C13        19.6774  -30.0678  -45.0521 C.ar      10 UNK        -0.0745 
     14 C14        18.8005  -29.1348  -44.4913 C.ar      10 UNK        -0.0972 
     15 C15        20.3887  -29.7519  -46.3632 C.3       10 UNK         0.0209 
     16 S16        22.2000  -29.5996  -46.2005 S.3       10 UNK        -0.2568 
     17 C17        22.4278  -28.2655  -44.9766 C.3       10 UNK        -0.0983 
     18 CA         22.5564  -26.8540  -45.6102 C.3       3 UNK         0.0876 
     19 N          21.2521  -26.4040  -46.1004 N.am      3 UNK        -0.4424 
     20 C          21.0197  -25.4593  -47.0194 C.2       2 UNK         0.4918 
     21 O          21.9005  -24.8968  -47.6681 O.2       2 UNK        -0.4875 
     22 CA         19.5454  -25.0417  -47.1991 C.3       2 UNK         0.0481 
     23 CB         18.9262  -25.7725  -48.4009 C.3       2 UNK        -0.1831 
     24 N          18.7213  -25.2835  -46.0033 N.am      2 UNK        -0.4498 
     25 C          18.8898  -24.6689  -44.8211 C.2       1 UNK         0.5027 
     26 O          19.7275  -23.7859  -44.6281 O.2       1 UNK        -0.4969 
     27 C          23.1942  -25.8524  -44.6100 C.2       3 UNK         0.5005 
     28 O          24.2925  -26.1230  -44.1246 O.2       3 UNK        -0.5279 
     29 N          22.5031  -24.7432  -44.2879 N.am      4 UNK        -0.4463 
     30 CA         22.8242  -23.6824  -43.3159 C.3       4 UNK         0.0283 
     31 CB         24.2355  -23.0975  -43.5245 C.3       4 UNK        -0.1875 
     32 C          22.5820  -24.0761  -41.8463 C.2       4 UNK         0.4949 
     33 O          22.4341  -23.1913  -41.0033 O.2       4 UNK        -0.5039 
     34 N          22.5051  -25.3782  -41.5691 N.am      5 UNK        -0.4663 
     35 CA         22.1827  -26.0103  -40.2960 C.3       5 UNK         0.0242 
     36 CB         23.3893  -25.9220  -39.3401 C.3       5 UNK        -0.1982 
     37 C          21.8147  -27.4689  -40.6011 C.2       5 UNK         0.5017 
     38 O          21.9578  -27.9030  -41.7473 O.2       5 UNK        -0.5012 
     39 N          21.3735  -28.2122  -39.5796 N.am      6 UNK        -0.4439 
     40 CA         21.1513  -29.6567  -39.6601 C.3       6 UNK         0.0297 
     41 CB         20.3192  -30.1149  -38.4497 C.3       6 UNK        -0.2006 
     42 C          22.5036  -30.3877  -39.7396 C.2       6 UNK         0.4892 
     43 O          23.1289  -30.6357  -38.7057 O.2       6 UNK        -0.5089 
     44 N          22.9543  -30.6656  -40.9689 N.am      7 UNK        -0.4243 
     45 CA         24.2379  -31.2873  -41.3003 C.3       7 UNK         0.0196 
     46 CB         24.5543  -30.9982  -42.7793 C.3       7 UNK        -0.2007 
     47 C          24.2513  -32.7924  -40.9755 C.2       7 UNK         0.5020 
     48 O          24.2666  -33.6228  -41.8865 O.2       7 UNK        -0.5147 
     49 N          24.2050  -33.1112  -39.6749 N.am      8 UNK        -0.4734 
     50 CA         24.1133  -34.4344  -39.0381 C.3       8 UNK         0.0238 
     51 CB         25.3007  -35.3432  -39.4138 C.3       8 UNK        -0.1912 
     52 C          22.7645  -35.1341  -39.2775 C.2       8 UNK         0.5038 
     53 O          22.1261  -35.5521  -38.3109 O.2       8 UNK        -0.5046 
     54 N          22.3495  -35.2152  -40.5469 N.am      9 UNK        -0.4200 
     55 CA         21.0410  -35.6918  -41.0228 C.3       9 UNK         0.0839 
     56 C          20.7552  -37.2028  -40.7656 C.2       9 UNK         0.5513 
     57 N          21.7631  -38.0304  -40.5166 N.am      9 UNK        -0.7519 
     58 O          19.6095  -37.6426  -40.8247 O.2       9 UNK        -0.4960 
     59 C59        19.8735  -34.7658  -40.5740 C.3       10 UNK        -0.0876 
     60 S60        20.1193  -33.0240  -41.0712 S.3       10 UNK        -0.2414 
     61 C61        19.2253  -33.0091  -42.6515 C.3       10 UNK         0.0169 
     62 H62        15.1335  -22.1851  -42.0341 H         1 UNK         0.0903 
     63 H63        16.7579  -22.1678  -41.3450 H         1 UNK         0.0903 
     64 H64        16.3804  -21.1510  -42.7369 H         1 UNK         0.0903 
     65 H65        17.9545  -23.9700  -41.9228 H         1 UNK         0.3096 
     66 H66        17.2071  -25.7426  -44.0444 H         1 UNK         0.1121 
     67 H67        19.5325  -26.8279  -43.3878 H         1 UNK         0.0849 
     68 H68        19.6472  -25.5883  -42.1954 H         1 UNK         0.0849 
     69 H69        16.3890  -28.9219  -42.1296 H         1 UNK         0.0865 
     70 H70        16.6063  -27.8949  -43.5089 H         1 UNK         0.0865 
     71 H71        17.7625  -30.8924  -41.7805 H         1 UNK         0.1346 
     72 H72        20.4982  -32.0460  -44.8782 H         1 UNK         0.1412 
     73 H73        18.6288  -28.1952  -44.9938 H         1 UNK         0.1426 
     74 H74        19.9947  -28.8399  -46.8124 H         1 UNK         0.0716 
     75 H75        20.1747  -30.5486  -47.0769 H         1 UNK         0.0716 
     76 H76        23.3301  -28.5248  -44.4207 H         1 UNK         0.0695 
     77 H77        21.6180  -28.2941  -44.2480 H         1 UNK         0.0695 
     78 H78        23.2427  -26.9140  -46.4578 H         1 UNK         0.0983 
     79 H79        20.4550  -26.8165  -45.6457 H         1 UNK         0.3095 
     80 H80        19.5301  -23.9695  -47.4057 H         1 UNK         0.0454 
     81 H81        19.5039  -25.5891  -49.3081 H         1 UNK         0.0851 
     82 H82        17.9097  -25.4295  -48.5942 H         1 UNK         0.0851 
     83 H83        18.8945  -26.8521  -48.2493 H         1 UNK         0.0851 
     84 H84        17.9833  -25.9664  -46.1015 H         1 UNK         0.2976 
     85 H85        21.5970  -24.6143  -44.7246 H         1 UNK         0.3116 
     86 H86        22.1140  -22.8818  -43.5284 H         1 UNK         0.0646 
     87 H87        25.0179  -23.8024  -43.2427 H         1 UNK         0.0847 
     88 H88        24.3767  -22.2052  -42.9135 H         1 UNK         0.0847 
     89 H89        24.3980  -22.8084  -44.5627 H         1 UNK         0.0847 
     90 H90        22.6344  -26.0473  -42.3201 H         1 UNK         0.3040 
     91 H91        21.3139  -25.5141  -39.8582 H         1 UNK         0.1015 
     92 H92        24.2635  -26.4281  -39.7521 H         1 UNK         0.0786 
     93 H93        23.1688  -26.3822  -38.3764 H         1 UNK         0.0786 
     94 H94        23.6671  -24.8869  -39.1413 H         1 UNK         0.0786 
     95 H95        21.3044  -27.7945  -38.6630 H         1 UNK         0.3172 
     96 H96        20.5768  -29.8772  -40.5633 H         1 UNK         0.0595 
     97 H97        20.8115  -29.8853  -37.5039 H         1 UNK         0.0839 
     98 H98        20.1564  -31.1931  -38.4783 H         1 UNK         0.0839 
     99 H99        19.3378  -29.6404  -38.4430 H         1 UNK         0.0839 
    100 H100       22.3792  -30.3834  -41.7513 H         1 UNK         0.2998 
    101 H101       25.0169  -30.8170  -40.6964 H         1 UNK         0.0822 
    102 H102       24.6462  -29.9271  -42.9590 H         1 UNK         0.0787 
    103 H103       25.4987  -31.4565  -43.0755 H         1 UNK         0.0787 
    104 H104       23.7794  -31.3848  -43.4432 H         1 UNK         0.0787 
    105 H105       24.0854  -32.3249  -39.0405 H         1 UNK         0.3055 
    106 H106       24.1765  -34.2470  -37.9646 H         1 UNK         0.1106 
    107 H107       25.2644  -36.2783  -38.8534 H         1 UNK         0.0828 
    108 H108       25.3052  -35.6028  -40.4725 H         1 UNK         0.0828 
    109 H109       26.2527  -34.8652  -39.1829 H         1 UNK         0.0828 
    110 H110       22.9609  -34.8138  -41.2529 H         1 UNK         0.2931 
    111 H111       21.0991  -35.6168  -42.1091 H         1 UNK         0.0412 
    112 H112       22.7082  -37.6838  -40.4760 H         1 UNK         0.3472 
    113 H113       21.5746  -39.0086  -40.3617 H         1 UNK         0.3472 
    114 H114       18.9229  -35.1157  -40.9802 H         1 UNK         0.0970 
    115 H115       19.7593  -34.7993  -39.4894 H         1 UNK         0.0970 
    116 H116       18.2127  -33.3848  -42.4976 H         1 UNK         0.0612 
    117 H117       19.7113  -33.7022  -43.3399 H         1 UNK         0.0612 
@<TRIPOS>BOND
     1    1    2 1    
     2    1   62 1    
     3    1   63 1    
     4    1   64 1    
     5    2    3 2    
     6    2    4 am   BACKBONE|DICT|INTERRES
     7    4    5 1    
     8    4   65 1    
     9    5    6 1    
    10    5   25 1    
    11    5   66 1    
    12    6    7 1    
    13    6   67 1    
    14    6   68 1    
    15    7    8 1    
    16    8    9 1    
    17    8   69 1    
    18    8   70 1    
    19    9   10 ar   
    20    9   14 ar   
    21   10   11 ar   
    22   10   71 1    
    23   11   12 ar   
    24   11   61 1    
    25   12   13 ar   
    26   12   72 1    
    27   13   14 ar   
    28   13   15 1    
    29   14   73 1    
    30   15   16 1    
    31   15   74 1    
    32   15   75 1    
    33   16   17 1    
    34   17   18 1    
    35   17   76 1    
    36   17   77 1    
    37   18   19 1    
    38   18   27 1    
    39   18   78 1    
    40   19   20 am   BACKBONE|DICT|INTERRES
    41   19   79 1    
    42   20   21 2    
    43   20   22 1    
    44   22   23 1    
    45   22   24 1    
    46   22   80 1    
    47   23   81 1    
    48   23   82 1    
    49   23   83 1    
    50   24   25 am   BACKBONE|DICT|INTERRES
    51   24   84 1    
    52   25   26 2    
    53   27   28 2    
    54   27   29 am   BACKBONE|DICT|INTERRES
    55   29   30 1    
    56   29   85 1    
    57   30   31 1    
    58   30   32 1    
    59   30   86 1    
    60   31   87 1    
    61   31   88 1    
    62   31   89 1    
    63   32   33 2    
    64   32   34 am   BACKBONE|DICT|INTERRES
    65   34   35 1    
    66   34   90 1    
    67   35   36 1    
    68   35   37 1    
    69   35   91 1    
    70   36   92 1    
    71   36   93 1    
    72   36   94 1    
    73   37   38 2    
    74   37   39 am   BACKBONE|DICT|INTERRES
    75   39   40 1    
    76   39   95 1    
    77   40   41 1    
    78   40   42 1    
    79   40   96 1    
    80   41   97 1    
    81   41   98 1    
    82   41   99 1    
    83   42   43 2    
    84   42   44 am   BACKBONE|DICT|INTERRES
    85   44   45 1    
    86   44  100 1    
    87   45   46 1    
    88   45   47 1    
    89   45  101 1    
    90   46  102 1    
    91   46  103 1    
    92   46  104 1    
    93   47   48 2    
    94   47   49 am   BACKBONE|DICT|INTERRES
    95   49   50 1    
    96   49  105 1    
    97   50   51 1    
    98   50   52 1    
    99   50  106 1    
   100   51  107 1    
   101   51  108 1    
   102   51  109 1    
   103   52   53 2    
   104   52   54 am   BACKBONE|DICT|INTERRES
   105   54   55 1    
   106   54  110 1    
   107   55   56 1    
   108   55   59 1    
   109   55  111 1    
   110   56   57 am   BACKBONE|DICT|INTERRES
   111   56   58 2    
   112   57  112 1    
   113   57  113 1    
   114   59   60 1    
   115   59  114 1    
   116   59  115 1    
   117   60   61 1    
   118   61  116 1    
   119   61  117 1    
@<TRIPOS>SUBSTRUCTURE
     1 UNK         1 GROUP             0       ****    0 ROOT    
