@<TRIPOS>MOLECULE
3R8
117   119    1
SMALL
USER_CHARGES


@<TRIPOS>ATOM
      1 CA         17.0663  -24.2318  -50.1396 C.3       0 UNK        -0.2013 
      2 C          18.1544  -24.6167  -49.1481 C.2       0 UNK         0.4866 
      3 O          19.2267  -24.0106  -49.1503 O.2       0 UNK        -0.5176 
      4 N          17.8915  -25.6243  -48.3063 N.am      1 UNK        -0.4884 
      5 CA         18.7943  -26.0776  -47.2430 C.3       1 UNK         0.0853 
      6 C6         18.4176  -27.5023  -46.7624 C.3       10 UNK        -0.0849 
      7 S7         19.8412  -28.3923  -46.0488 S.3       10 UNK        -0.2776 
      8 C8         19.1159  -30.0343  -45.7465 C.3       10 UNK         0.0316 
      9 C9         18.5691  -30.1482  -44.3317 C.ar      10 UNK        -0.0863 
     10 C10        19.3661  -30.6924  -43.3214 C.ar      10 UNK        -0.1009 
     11 C11        18.8799  -30.8112  -42.0171 C.ar      10 UNK        -0.0712 
     12 C12        17.5872  -30.3735  -41.7222 C.ar      10 UNK        -0.0894 
     13 C13        16.7992  -29.7770  -42.7131 C.ar      10 UNK        -0.0745 
     14 C14        17.2824  -29.6956  -44.0235 C.ar      10 UNK        -0.0972 
     15 C15        15.4707  -29.1343  -42.3431 C.3       10 UNK         0.0209 
     16 S16        15.6925  -27.7921  -41.1218 S.3       10 UNK        -0.2568 
     17 C17        16.7188  -26.5684  -42.0176 C.3       10 UNK        -0.0983 
     18 CA         18.2505  -26.8251  -41.9185 C.3       3 UNK         0.0876 
     19 N          19.0145  -26.0750  -42.9184 N.am      3 UNK        -0.4424 
     20 C          19.2449  -24.7535  -42.9415 C.2       2 UNK         0.4918 
     21 O          18.8265  -23.9559  -42.1028 O.2       2 UNK        -0.4875 
     22 CA         20.0880  -24.2269  -44.1184 C.3       2 UNK         0.0481 
     23 CB         21.5746  -24.1804  -43.7296 C.3       2 UNK        -0.1831 
     24 N          19.9289  -25.0200  -45.3419 N.am      2 UNK        -0.4498 
     25 C          18.8018  -25.0800  -46.0655 C.2       1 UNK         0.5027 
     26 O          17.7868  -24.4263  -45.8081 O.2       1 UNK        -0.4969 
     27 C          18.8620  -26.6770  -40.5082 C.2       3 UNK         0.5005 
     28 O          18.2614  -26.0828  -39.6100 O.2       3 UNK        -0.5279 
     29 N          20.0823  -27.2044  -40.3652 N.am      4 UNK        -0.4463 
     30 CA         20.8872  -27.2130  -39.1502 C.3       4 UNK         0.0283 
     31 CB         21.6387  -25.8749  -39.0192 C.3       4 UNK        -0.1875 
     32 C          21.8648  -28.3909  -39.2376 C.2       4 UNK         0.4949 
     33 O          22.0235  -28.9777  -40.3120 O.2       4 UNK        -0.5039 
     34 N          22.5244  -28.7098  -38.1174 N.am      5 UNK        -0.4663 
     35 CA         23.5799  -29.7253  -38.0483 C.3       5 UNK         0.0242 
     36 CB         24.0638  -29.8630  -36.5963 C.3       5 UNK        -0.1982 
     37 C          24.7551  -29.3882  -38.9843 C.2       5 UNK         0.5017 
     38 O          25.1447  -28.2218  -39.0726 O.2       5 UNK        -0.5012 
     39 N          25.2694  -30.4146  -39.6720 N.am      6 UNK        -0.4439 
     40 CA         26.3108  -30.3771  -40.7052 C.3       6 UNK         0.0297 
     41 CB         27.6090  -29.7080  -40.2049 C.3       6 UNK        -0.2006 
     42 C          25.8537  -29.8191  -42.0692 C.2       6 UNK         0.4892 
     43 O          26.6601  -29.8366  -43.0004 O.2       6 UNK        -0.5089 
     44 N          24.5847  -29.3951  -42.2122 N.am      7 UNK        -0.4243 
     45 CA         23.9812  -29.0843  -43.5185 C.3       7 UNK         0.0196 
     46 CB         22.6865  -28.2762  -43.3297 C.3       7 UNK        -0.2007 
     47 C          23.7067  -30.3637  -44.3318 C.2       7 UNK         0.5020 
     48 O          23.8187  -30.3480  -45.5570 O.2       7 UNK        -0.5147 
     49 N          23.3969  -31.4502  -43.6148 N.am      8 UNK        -0.4734 
     50 CA         23.3070  -32.8295  -44.0956 C.3       8 UNK         0.0238 
     51 CB         22.0817  -33.0530  -45.0052 C.3       8 UNK        -0.1912 
     52 C          23.2701  -33.7704  -42.8854 C.2       8 UNK         0.5038 
     53 O          23.9635  -34.7871  -42.8812 O.2       8 UNK        -0.5046 
     54 N          22.4707  -33.3915  -41.8785 N.am      9 UNK        -0.4200 
     55 CA         22.3011  -34.0818  -40.5931 C.3       9 UNK         0.0839 
     56 C          23.6117  -34.0903  -39.7631 C.2       9 UNK         0.5513 
     57 N          23.9943  -35.2288  -39.2039 N.am      9 UNK        -0.7519 
     58 O          24.2497  -33.0534  -39.5854 O.2       9 UNK        -0.4960 
     59 C59        21.1483  -33.4619  -39.7538 C.3       10 UNK        -0.0876 
     60 S60        19.6265  -33.1443  -40.7153 S.3       10 UNK        -0.2414 
     61 C61        19.7789  -31.3444  -40.9166 C.3       10 UNK         0.0169 
     62 H62        16.7687  -23.1949  -49.9854 H         1 UNK         0.0903 
     63 H63        17.4354  -24.3326  -51.1599 H         1 UNK         0.0903 
     64 H64        16.1799  -24.8576  -50.0366 H         1 UNK         0.0903 
     65 H65        16.9798  -26.0593  -48.3251 H         1 UNK         0.3096 
     66 H66        19.7997  -26.1070  -47.6707 H         1 UNK         0.1121 
     67 H67        17.5925  -27.4795  -46.0481 H         1 UNK         0.0849 
     68 H68        18.0663  -28.0959  -47.6084 H         1 UNK         0.0849 
     69 H69        18.3327  -30.2486  -46.4752 H         1 UNK         0.0865 
     70 H70        19.8878  -30.7884  -45.9080 H         1 UNK         0.0865 
     71 H71        20.3743  -31.0064  -43.5477 H         1 UNK         0.1346 
     72 H72        17.2190  -30.4328  -40.7069 H         1 UNK         0.1412 
     73 H73        16.6730  -29.2454  -44.7946 H         1 UNK         0.1426 
     74 H74        14.8114  -29.8941  -41.9215 H         1 UNK         0.0716 
     75 H75        14.9643  -28.7373  -43.2244 H         1 UNK         0.0716 
     76 H76        16.4760  -25.5727  -41.6428 H         1 UNK         0.0695 
     77 H77        16.4100  -26.5743  -43.0642 H         1 UNK         0.0695 
     78 H78        18.4308  -27.8590  -42.1930 H         1 UNK         0.0983 
     79 H79        19.4100  -26.6279  -43.6651 H         1 UNK         0.3095 
     80 H80        19.7605  -23.2071  -44.3318 H         1 UNK         0.0454 
     81 H81        21.9720  -25.1742  -43.5217 H         1 UNK         0.0851 
     82 H82        21.7239  -23.5772  -42.8328 H         1 UNK         0.0851 
     83 H83        22.1786  -23.7351  -44.5203 H         1 UNK         0.0851 
     84 H84        20.7136  -25.5939  -45.6181 H         1 UNK         0.2976 
     85 H85        20.5024  -27.7285  -41.1236 H         1 UNK         0.3116 
     86 H86        20.2392  -27.3655  -38.2846 H         1 UNK         0.0646 
     87 H87        22.3094  -25.7080  -39.8632 H         1 UNK         0.0847 
     88 H88        22.2431  -25.8466  -38.1120 H         1 UNK         0.0847 
     89 H89        20.9475  -25.0333  -38.9712 H         1 UNK         0.0847 
     90 H90        22.3627  -28.1654  -37.2824 H         1 UNK         0.3040 
     91 H91        23.1423  -30.6763  -38.3605 H         1 UNK         0.1015 
     92 H92        23.2488  -30.1466  -35.9301 H         1 UNK         0.0786 
     93 H93        24.4950  -28.9322  -36.2251 H         1 UNK         0.0786 
     94 H94        24.8314  -30.6338  -36.5134 H         1 UNK         0.0786 
     95 H95        24.8671  -31.3413  -39.5253 H         1 UNK         0.3172 
     96 H96        26.5486  -31.4256  -40.8916 H         1 UNK         0.0595 
     97 H97        27.4965  -28.6298  -40.0894 H         1 UNK         0.0839 
     98 H98        28.4251  -29.8687  -40.9103 H         1 UNK         0.0839 
     99 H99        27.9259  -30.1194  -39.2466 H         1 UNK         0.0839 
    100 H100       23.9759  -29.3560  -41.4032 H         1 UNK         0.2998 
    101 H101       24.6844  -28.4684  -44.0837 H         1 UNK         0.0822 
    102 H102       22.8415  -27.4200  -42.6731 H         1 UNK         0.0787 
    103 H103       22.3310  -27.8939  -44.2869 H         1 UNK         0.0787 
    104 H104       21.8851  -28.8846  -42.9103 H         1 UNK         0.0787 
    105 H105       23.4055  -31.3440  -42.6102 H         1 UNK         0.3055 
    106 H106       24.2134  -33.0483  -44.6647 H         1 UNK         0.1106 
    107 H107       21.1419  -32.9251  -44.4696 H         1 UNK         0.0828 
    108 H108       22.0786  -32.3755  -45.8586 H         1 UNK         0.0828 
    109 H109       22.0839  -34.0678  -45.4049 H         1 UNK         0.0828 
    110 H110       21.8889  -32.5794  -42.0055 H         1 UNK         0.2931 
    111 H111       22.0279  -35.1131  -40.8262 H         1 UNK         0.0412 
    112 H112       23.4693  -36.0792  -39.3389 H         1 UNK         0.3472 
    113 H113       24.8346  -35.2422  -38.6471 H         1 UNK         0.3472 
    114 H114       20.8904  -34.1333  -38.9328 H         1 UNK         0.0970 
    115 H115       21.4670  -32.5314  -39.2788 H         1 UNK         0.0970 
    116 H116       20.8137  -31.0951  -41.1508 H         1 UNK         0.0612 
    117 H117       19.5532  -30.8522  -39.9692 H         1 UNK         0.0612 
@<TRIPOS>BOND
     1    1    2 1    
     2    1   62 1    
     3    1   63 1    
     4    1   64 1    
     5    2    3 2    
     6    2    4 am   BACKBONE|DICT|INTERRES
     7    4    5 1    
     8    4   65 1    
     9    5    6 1    
    10    5   25 1    
    11    5   66 1    
    12    6    7 1    
    13    6   67 1    
    14    6   68 1    
    15    7    8 1    
    16    8    9 1    
    17    8   69 1    
    18    8   70 1    
    19    9   10 ar   
    20    9   14 ar   
    21   10   11 ar   
    22   10   71 1    
    23   11   12 ar   
    24   11   61 1    
    25   12   13 ar   
    26   12   72 1    
    27   13   14 ar   
    28   13   15 1    
    29   14   73 1    
    30   15   16 1    
    31   15   74 1    
    32   15   75 1    
    33   16   17 1    
    34   17   18 1    
    35   17   76 1    
    36   17   77 1    
    37   18   19 1    
    38   18   27 1    
    39   18   78 1    
    40   19   20 am   BACKBONE|DICT|INTERRES
    41   19   79 1    
    42   20   21 2    
    43   20   22 1    
    44   22   23 1    
    45   22   24 1    
    46   22   80 1    
    47   23   81 1    
    48   23   82 1    
    49   23   83 1    
    50   24   25 am   BACKBONE|DICT|INTERRES
    51   24   84 1    
    52   25   26 2    
    53   27   28 2    
    54   27   29 am   BACKBONE|DICT|INTERRES
    55   29   30 1    
    56   29   85 1    
    57   30   31 1    
    58   30   32 1    
    59   30   86 1    
    60   31   87 1    
    61   31   88 1    
    62   31   89 1    
    63   32   33 2    
    64   32   34 am   BACKBONE|DICT|INTERRES
    65   34   35 1    
    66   34   90 1    
    67   35   36 1    
    68   35   37 1    
    69   35   91 1    
    70   36   92 1    
    71   36   93 1    
    72   36   94 1    
    73   37   38 2    
    74   37   39 am   BACKBONE|DICT|INTERRES
    75   39   40 1    
    76   39   95 1    
    77   40   41 1    
    78   40   42 1    
    79   40   96 1    
    80   41   97 1    
    81   41   98 1    
    82   41   99 1    
    83   42   43 2    
    84   42   44 am   BACKBONE|DICT|INTERRES
    85   44   45 1    
    86   44  100 1    
    87   45   46 1    
    88   45   47 1    
    89   45  101 1    
    90   46  102 1    
    91   46  103 1    
    92   46  104 1    
    93   47   48 2    
    94   47   49 am   BACKBONE|DICT|INTERRES
    95   49   50 1    
    96   49  105 1    
    97   50   51 1    
    98   50   52 1    
    99   50  106 1    
   100   51  107 1    
   101   51  108 1    
   102   51  109 1    
   103   52   53 2    
   104   52   54 am   BACKBONE|DICT|INTERRES
   105   54   55 1    
   106   54  110 1    
   107   55   56 1    
   108   55   59 1    
   109   55  111 1    
   110   56   57 am   BACKBONE|DICT|INTERRES
   111   56   58 2    
   112   57  112 1    
   113   57  113 1    
   114   59   60 1    
   115   59  114 1    
   116   59  115 1    
   117   60   61 1    
   118   61  116 1    
   119   61  117 1    
@<TRIPOS>SUBSTRUCTURE
     1 UNK         1 GROUP             0       ****    0 ROOT    
