@<TRIPOS>MOLECULE
3R8
117   119    1
SMALL
USER_CHARGES


@<TRIPOS>ATOM
      1 CA         20.8937  -23.6170  -43.3469 C.3       0 UNK        -0.2013 
      2 C          20.9967  -24.2441  -44.7295 C.2       0 UNK         0.4866 
      3 O          22.0845  -24.2866  -45.3031 O.2       0 UNK        -0.5176 
      4 N          19.8732  -24.7406  -45.2660 N.am      1 UNK        -0.4884 
      5 CA         19.7857  -25.4503  -46.5529 C.3       1 UNK         0.0853 
      6 C6         18.3149  -25.6026  -47.0279 C.3       10 UNK        -0.0849 
      7 S7         17.2096  -26.3336  -45.7651 S.3       10 UNK        -0.2776 
      8 C8         16.8009  -27.9786  -46.4562 C.3       10 UNK         0.0316 
      9 C9         16.6687  -29.0444  -45.3691 C.ar      10 UNK        -0.0863 
     10 C10        17.2638  -30.2990  -45.5385 C.ar      10 UNK        -0.1009 
     11 C11        17.2442  -31.2450  -44.5081 C.ar      10 UNK        -0.0712 
     12 C12        16.5859  -30.9468  -43.3124 C.ar      10 UNK        -0.0894 
     13 C13        15.9775  -29.7029  -43.1342 C.ar      10 UNK        -0.0745 
     14 C14        15.9912  -28.7724  -44.1762 C.ar      10 UNK        -0.0972 
     15 C15        15.3861  -29.3211  -41.7860 C.3       10 UNK         0.0209 
     16 S16        16.6780  -29.0610  -40.5192 S.3       10 UNK        -0.2568 
     17 C17        17.9168  -28.0267  -41.3818 C.3       10 UNK        -0.0983 
     18 CA         19.2283  -28.8218  -41.6620 C.3       3 UNK         0.0876 
     19 N          19.7122  -28.6194  -43.0386 N.am      3 UNK        -0.4424 
     20 C          20.8102  -29.1662  -43.5957 C.2       2 UNK         0.4918 
     21 O          21.5457  -29.9797  -43.0327 O.2       2 UNK        -0.4875 
     22 CA         21.1911  -28.7159  -45.0155 C.3       2 UNK         0.0481 
     23 CB         20.8825  -29.8365  -46.0311 C.3       2 UNK        -0.1831 
     24 N          20.5498  -27.4425  -45.3558 N.am      2 UNK        -0.4498 
     25 C          20.5126  -26.8128  -46.5377 C.2       1 UNK         0.5027 
     26 O          21.0134  -27.2410  -47.5780 O.2       1 UNK        -0.4969 
     27 C          20.2891  -28.4958  -40.5872 C.2       3 UNK         0.5005 
     28 O          21.3243  -27.9115  -40.9067 O.2       3 UNK        -0.5279 
     29 N          19.9917  -28.8339  -39.3242 N.am      4 UNK        -0.4463 
     30 CA         20.8696  -28.7901  -38.1411 C.3       4 UNK         0.0283 
     31 CB         20.0310  -29.1177  -36.8948 C.3       4 UNK        -0.1875 
     32 C          21.6985  -27.5092  -37.8959 C.2       4 UNK         0.4949 
     33 O          22.7068  -27.5861  -37.1942 O.2       4 UNK        -0.5039 
     34 N          21.2953  -26.3702  -38.4763 N.am      5 UNK        -0.4663 
     35 CA         22.0882  -25.1356  -38.5241 C.3       5 UNK         0.0242 
     36 CB         21.2121  -23.9936  -39.0642 C.3       5 UNK        -0.1982 
     37 C          23.3753  -25.2724  -39.3653 C.2       5 UNK         0.5017 
     38 O          24.3806  -24.6433  -39.0337 O.2       5 UNK        -0.5012 
     39 N          23.3189  -26.0953  -40.4203 N.am      6 UNK        -0.4439 
     40 CA         24.4476  -26.5019  -41.2591 C.3       6 UNK         0.0297 
     41 CB         24.0411  -26.3989  -42.7395 C.3       6 UNK        -0.2006 
     42 C          24.8867  -27.9391  -40.9278 C.2       6 UNK         0.4892 
     43 O          26.0872  -28.2121  -40.9271 O.2       6 UNK        -0.5089 
     44 N          23.9086  -28.8145  -40.6435 N.am      7 UNK        -0.4243 
     45 CA         24.0297  -30.2323  -40.2864 C.3       7 UNK         0.0196 
     46 CB         24.7082  -30.3928  -38.9095 C.3       7 UNK        -0.2007 
     47 C          24.6952  -31.0701  -41.3936 C.2       7 UNK         0.5020 
     48 O          25.5981  -31.8617  -41.1148 O.2       7 UNK        -0.5147 
     49 N          24.2429  -30.8708  -42.6381 N.am      8 UNK        -0.4734 
     50 CA         24.7208  -31.6087  -43.8080 C.3       8 UNK         0.0238 
     51 CB         24.5714  -30.7439  -45.0689 C.3       8 UNK        -0.1912 
     52 C          23.9863  -32.9479  -43.9674 C.2       8 UNK         0.5038 
     53 O          24.6354  -33.9515  -44.2658 O.2       8 UNK        -0.5046 
     54 N          22.6624  -32.9447  -43.7587 N.am      9 UNK        -0.4200 
     55 CA         21.8276  -34.1549  -43.7161 C.3       9 UNK         0.0839 
     56 C          21.7499  -34.7582  -42.2860 C.2       9 UNK         0.5513 
     57 N          21.3291  -36.0105  -42.1677 N.am      9 UNK        -0.7519 
     58 O          22.0541  -34.1104  -41.2857 O.2       9 UNK        -0.4960 
     59 C59        20.4300  -33.9264  -44.3548 C.3       10 UNK        -0.0876 
     60 S60        19.4611  -32.5864  -43.5900 S.3       10 UNK        -0.2414 
     61 C61        17.9875  -32.5629  -44.6582 C.3       10 UNK         0.0169 
     62 H62        19.8731  -23.6340  -42.9649 H         1 UNK         0.0903 
     63 H63        21.5280  -24.1557  -42.6432 H         1 UNK         0.0903 
     64 H64        21.2261  -22.5798  -43.3795 H         1 UNK         0.0903 
     65 H65        18.9984  -24.6591  -44.7653 H         1 UNK         0.3096 
     66 H66        20.3079  -24.8390  -47.2929 H         1 UNK         0.1121 
     67 H67        18.2586  -26.1689  -47.9596 H         1 UNK         0.0849 
     68 H68        17.9178  -24.6159  -47.2713 H         1 UNK         0.0849 
     69 H69        15.8671  -27.9137  -47.0159 H         1 UNK         0.0865 
     70 H70        17.5731  -28.2726  -47.1686 H         1 UNK         0.0865 
     71 H71        17.7700  -30.5318  -46.4643 H         1 UNK         0.1346 
     72 H72        16.5974  -31.6609  -42.5002 H         1 UNK         0.1412 
     73 H73        15.5298  -27.8051  -44.0310 H         1 UNK         0.1426 
     74 H74        14.7071  -30.1055  -41.4490 H         1 UNK         0.0716 
     75 H75        14.7879  -28.4124  -41.8702 H         1 UNK         0.0716 
     76 H76        17.4863  -27.6334  -42.3008 H         1 UNK         0.0695 
     77 H77        18.0930  -27.1335  -40.7782 H         1 UNK         0.0695 
     78 H78        19.0329  -29.8943  -41.5908 H         1 UNK         0.0983 
     79 H79        19.1180  -28.0515  -43.6206 H         1 UNK         0.3095 
     80 H80        22.2675  -28.5386  -45.0072 H         1 UNK         0.0454 
     81 H81        21.0861  -30.8273  -45.6227 H         1 UNK         0.0851 
     82 H82        21.4947  -29.7364  -46.9269 H         1 UNK         0.0851 
     83 H83        19.8427  -29.8182  -46.3423 H         1 UNK         0.0851 
     84 H84        20.1689  -26.9295  -44.5746 H         1 UNK         0.2976 
     85 H85        19.0832  -29.2501  -39.1691 H         1 UNK         0.3116 
     86 H86        21.5937  -29.5959  -38.2737 H         1 UNK         0.0646 
     87 H87        19.2434  -28.3801  -36.7356 H         1 UNK         0.0847 
     88 H88        19.5630  -30.0990  -36.9740 H         1 UNK         0.0847 
     89 H89        20.6497  -29.1317  -35.9960 H         1 UNK         0.0847 
     90 H90        20.4578  -26.3989  -39.0391 H         1 UNK         0.3040 
     91 H91        22.3892  -24.8870  -37.5038 H         1 UNK         0.1015 
     92 H92        21.7705  -23.0570  -39.0995 H         1 UNK         0.0786 
     93 H93        20.3423  -23.8264  -38.4287 H         1 UNK         0.0786 
     94 H94        20.8563  -24.1994  -40.0744 H         1 UNK         0.0786 
     95 H95        22.4494  -26.6046  -40.5764 H         1 UNK         0.3172 
     96 H96        25.3004  -25.8411  -41.0912 H         1 UNK         0.0595 
     97 H97        23.8007  -25.3716  -43.0132 H         1 UNK         0.0839 
     98 H98        23.1714  -27.0166  -42.9666 H         1 UNK         0.0839 
     99 H99        24.8524  -26.7252  -43.3917 H         1 UNK         0.0839 
    100 H100       22.9491  -28.4831  -40.7383 H         1 UNK         0.2998 
    101 H101       23.0100  -30.6104  -40.1974 H         1 UNK         0.0822 
    102 H102       24.6919  -31.4340  -38.5856 H         1 UNK         0.0787 
    103 H103       24.1981  -29.8076  -38.1445 H         1 UNK         0.0787 
    104 H104       25.7510  -30.0752  -38.9330 H         1 UNK         0.0787 
    105 H105       23.4344  -30.2687  -42.7678 H         1 UNK         0.3055 
    106 H106       25.7840  -31.8263  -43.6803 H         1 UNK         0.1106 
    107 H107       23.5275  -30.5397  -45.2970 H         1 UNK         0.0828 
    108 H108       25.0867  -29.7893  -44.9608 H         1 UNK         0.0828 
    109 H109       24.9991  -31.2476  -45.9367 H         1 UNK         0.0828 
    110 H110       22.2109  -32.0881  -43.4623 H         1 UNK         0.2931 
    111 H111       22.3134  -34.9159  -44.3302 H         1 UNK         0.0412 
    112 H112       21.2663  -36.4199  -41.2484 H         1 UNK         0.3472 
    113 H113       21.0803  -36.5584  -42.9767 H         1 UNK         0.3472 
    114 H114       20.5591  -33.6888  -45.4118 H         1 UNK         0.0970 
    115 H115       19.8396  -34.8440  -44.3302 H         1 UNK         0.0970 
    116 H116       17.3320  -33.3936  -44.3933 H         1 UNK         0.0612 
    117 H117       18.2859  -32.7152  -45.6966 H         1 UNK         0.0612 
@<TRIPOS>BOND
     1    1    2 1    
     2    1   62 1    
     3    1   63 1    
     4    1   64 1    
     5    2    3 2    
     6    2    4 am   BACKBONE|DICT|INTERRES
     7    4    5 1    
     8    4   65 1    
     9    5    6 1    
    10    5   25 1    
    11    5   66 1    
    12    6    7 1    
    13    6   67 1    
    14    6   68 1    
    15    7    8 1    
    16    8    9 1    
    17    8   69 1    
    18    8   70 1    
    19    9   10 ar   
    20    9   14 ar   
    21   10   11 ar   
    22   10   71 1    
    23   11   12 ar   
    24   11   61 1    
    25   12   13 ar   
    26   12   72 1    
    27   13   14 ar   
    28   13   15 1    
    29   14   73 1    
    30   15   16 1    
    31   15   74 1    
    32   15   75 1    
    33   16   17 1    
    34   17   18 1    
    35   17   76 1    
    36   17   77 1    
    37   18   19 1    
    38   18   27 1    
    39   18   78 1    
    40   19   20 am   BACKBONE|DICT|INTERRES
    41   19   79 1    
    42   20   21 2    
    43   20   22 1    
    44   22   23 1    
    45   22   24 1    
    46   22   80 1    
    47   23   81 1    
    48   23   82 1    
    49   23   83 1    
    50   24   25 am   BACKBONE|DICT|INTERRES
    51   24   84 1    
    52   25   26 2    
    53   27   28 2    
    54   27   29 am   BACKBONE|DICT|INTERRES
    55   29   30 1    
    56   29   85 1    
    57   30   31 1    
    58   30   32 1    
    59   30   86 1    
    60   31   87 1    
    61   31   88 1    
    62   31   89 1    
    63   32   33 2    
    64   32   34 am   BACKBONE|DICT|INTERRES
    65   34   35 1    
    66   34   90 1    
    67   35   36 1    
    68   35   37 1    
    69   35   91 1    
    70   36   92 1    
    71   36   93 1    
    72   36   94 1    
    73   37   38 2    
    74   37   39 am   BACKBONE|DICT|INTERRES
    75   39   40 1    
    76   39   95 1    
    77   40   41 1    
    78   40   42 1    
    79   40   96 1    
    80   41   97 1    
    81   41   98 1    
    82   41   99 1    
    83   42   43 2    
    84   42   44 am   BACKBONE|DICT|INTERRES
    85   44   45 1    
    86   44  100 1    
    87   45   46 1    
    88   45   47 1    
    89   45  101 1    
    90   46  102 1    
    91   46  103 1    
    92   46  104 1    
    93   47   48 2    
    94   47   49 am   BACKBONE|DICT|INTERRES
    95   49   50 1    
    96   49  105 1    
    97   50   51 1    
    98   50   52 1    
    99   50  106 1    
   100   51  107 1    
   101   51  108 1    
   102   51  109 1    
   103   52   53 2    
   104   52   54 am   BACKBONE|DICT|INTERRES
   105   54   55 1    
   106   54  110 1    
   107   55   56 1    
   108   55   59 1    
   109   55  111 1    
   110   56   57 am   BACKBONE|DICT|INTERRES
   111   56   58 2    
   112   57  112 1    
   113   57  113 1    
   114   59   60 1    
   115   59  114 1    
   116   59  115 1    
   117   60   61 1    
   118   61  116 1    
   119   61  117 1    
@<TRIPOS>SUBSTRUCTURE
     1 UNK         1 GROUP             0       ****    0 ROOT    
