@<TRIPOS>MOLECULE
3R8
117   119    1
SMALL
USER_CHARGES


@<TRIPOS>ATOM
      1 CA         23.9584  -26.4685  -48.0207 C.3       0 UNK        -0.2013 
      2 C          22.9035  -26.8385  -46.9900 C.2       0 UNK         0.4866 
      3 O          23.2188  -26.9526  -45.8065 O.2       0 UNK        -0.5176 
      4 N          21.6507  -27.0222  -47.4247 N.am      1 UNK        -0.4884 
      5 CA         20.4947  -27.4039  -46.6012 C.3       1 UNK         0.0853 
      6 C6         19.3832  -28.0505  -47.4701 C.3       10 UNK        -0.0849 
      7 S7         19.8338  -29.7579  -47.9362 S.3       10 UNK        -0.2776 
      8 C8         18.4213  -30.7331  -47.3089 C.3       10 UNK         0.0316 
      9 C9         18.1466  -30.5089  -45.8257 C.ar      10 UNK        -0.0863 
     10 C10        19.0705  -30.9246  -44.8620 C.ar      10 UNK        -0.1009 
     11 C11        18.8282  -30.6982  -43.5031 C.ar      10 UNK        -0.0712 
     12 C12        17.6307  -30.0947  -43.1109 C.ar      10 UNK        -0.0894 
     13 C13        16.7204  -29.6360  -44.0634 C.ar      10 UNK        -0.0745 
     14 C14        16.9751  -29.8601  -45.4192 C.ar      10 UNK        -0.0972 
     15 C15        15.4896  -28.8546  -43.6299 C.3       10 UNK         0.0209 
     16 S16        15.8633  -27.0740  -43.4778 S.3       10 UNK        -0.2568 
     17 C17        16.4775  -26.9273  -41.7622 C.3       10 UNK        -0.0983 
     18 CA         18.0226  -26.9426  -41.6429 C.3       3 UNK         0.0876 
     19 N          18.6803  -25.9173  -42.4554 N.am      3 UNK        -0.4424 
     20 C          20.0065  -25.8011  -42.6012 C.2       2 UNK         0.4918 
     21 O          20.8351  -26.4623  -41.9684 O.2       2 UNK        -0.4875 
     22 CA         20.4869  -24.8700  -43.7219 C.3       2 UNK         0.0481 
     23 CB         21.7066  -24.0353  -43.2974 C.3       2 UNK        -0.1831 
     24 N          20.8472  -25.7202  -44.8526 N.am      2 UNK        -0.4498 
     25 C          19.9805  -26.2295  -45.7363 C.2       1 UNK         0.5027 
     26 O          18.8250  -25.8192  -45.8606 O.2       1 UNK        -0.4969 
     27 C          18.4671  -26.9033  -40.1679 C.2       3 UNK         0.5005 
     28 O          18.3278  -25.8661  -39.5169 O.2       3 UNK        -0.5279 
     29 N          19.0193  -28.0328  -39.6981 N.am      4 UNK        -0.4463 
     30 CA         19.6037  -28.2735  -38.3716 C.3       4 UNK         0.0283 
     31 CB         18.5553  -28.0813  -37.2559 C.3       4 UNK        -0.1875 
     32 C          20.9053  -27.4967  -38.0801 C.2       4 UNK         0.4949 
     33 O          21.4087  -27.5956  -36.9612 O.2       4 UNK        -0.5039 
     34 N          21.4428  -26.7626  -39.0640 N.am      5 UNK        -0.4663 
     35 CA         22.6617  -25.9601  -38.9338 C.3       5 UNK         0.0242 
     36 CB         22.3487  -24.5121  -39.3446 C.3       5 UNK        -0.1982 
     37 C          23.8238  -26.5122  -39.7735 C.2       5 UNK         0.5017 
     38 O          24.9771  -26.2641  -39.4192 O.2       5 UNK        -0.5012 
     39 N          23.5238  -27.2340  -40.8602 N.am      6 UNK        -0.4439 
     40 CA         24.4979  -27.7980  -41.7926 C.3       6 UNK         0.0297 
     41 CB         24.9407  -26.7093  -42.7923 C.3       6 UNK        -0.2006 
     42 C          23.9061  -29.0341  -42.4891 C.2       6 UNK         0.4892 
     43 O          22.8191  -29.4853  -42.1200 O.2       6 UNK        -0.5089 
     44 N          24.6475  -29.5598  -43.4752 N.am      7 UNK        -0.4243 
     45 CA         24.3461  -30.7475  -44.2830 C.3       7 UNK         0.0196 
     46 CB         23.0924  -30.5157  -45.1608 C.3       7 UNK        -0.2007 
     47 C          24.2969  -32.0349  -43.4354 C.2       7 UNK         0.5020 
     48 O          25.0249  -32.1451  -42.4464 O.2       7 UNK        -0.5147 
     49 N          23.4559  -32.9969  -43.8393 N.am      8 UNK        -0.4734 
     50 CA         23.2977  -34.3191  -43.2171 C.3       8 UNK         0.0238 
     51 CB         22.3596  -35.1663  -44.0918 C.3       8 UNK        -0.1912 
     52 C          22.7937  -34.2962  -41.7616 C.2       8 UNK         0.5038 
     53 O          22.9254  -35.3033  -41.0648 O.2       8 UNK        -0.5046 
     54 N          22.2318  -33.1605  -41.3348 N.am      9 UNK        -0.4200 
     55 CA         21.7791  -32.8977  -39.9643 C.3       9 UNK         0.0839 
     56 C          22.9407  -32.6431  -38.9601 C.2       9 UNK         0.5513 
     57 N          24.1720  -32.4131  -39.4040 N.am      9 UNK        -0.7519 
     58 O          22.7171  -32.6591  -37.7534 O.2       9 UNK        -0.4960 
     59 C59        20.7518  -31.7371  -39.9140 C.3       10 UNK        -0.0876 
     60 S60        19.3305  -31.9558  -41.0439 S.3       10 UNK        -0.2414 
     61 C61        19.9101  -30.9884  -42.4749 C.3       10 UNK         0.0169 
     62 H62        24.4102  -25.5093  -47.7656 H         1 UNK         0.0903 
     63 H63        24.7455  -27.2231  -48.0363 H         1 UNK         0.0903 
     64 H64        23.5401  -26.3920  -49.0252 H         1 UNK         0.0903 
     65 H65        21.4536  -26.9008  -48.4078 H         1 UNK         0.3096 
     66 H66        20.8261  -28.1574  -45.8817 H         1 UNK         0.1121 
     67 H67        19.2039  -27.4656  -48.3736 H         1 UNK         0.0849 
     68 H68        18.4283  -28.0713  -46.9450 H         1 UNK         0.0849 
     69 H69        17.5388  -30.4951  -47.9049 H         1 UNK         0.0865 
     70 H70        18.6221  -31.7919  -47.4774 H         1 UNK         0.0865 
     71 H71        19.9940  -31.3891  -45.1789 H         1 UNK         0.1346 
     72 H72        17.4329  -29.9270  -42.0619 H         1 UNK         0.1412 
     73 H73        16.2703  -29.5058  -46.1593 H         1 UNK         0.1426 
     74 H74        15.0941  -29.2452  -42.6913 H         1 UNK         0.0716 
     75 H75        14.6950  -28.9813  -44.3668 H         1 UNK         0.0716 
     76 H76        16.0821  -25.9963  -41.3512 H         1 UNK         0.0695 
     77 H77        16.0392  -27.7262  -41.1611 H         1 UNK         0.0695 
     78 H78        18.3825  -27.8786  -42.0612 H         1 UNK         0.0983 
     79 H79        18.0726  -25.3663  -43.0445 H         1 UNK         0.3095 
     80 H80        19.6846  -24.1863  -44.0072 H         1 UNK         0.0454 
     81 H81        22.5305  -24.6575  -42.9479 H         1 UNK         0.0851 
     82 H82        21.4447  -23.3543  -42.4872 H         1 UNK         0.0851 
     83 H83        22.0759  -23.4272  -44.1230 H         1 UNK         0.0851 
     84 H84        21.7854  -26.1133  -44.8516 H         1 UNK         0.2976 
     85 H85        19.0991  -28.8139  -40.3333 H         1 UNK         0.3116 
     86 H86        19.8870  -29.3254  -38.3645 H         1 UNK         0.0646 
     87 H87        18.2740  -27.0353  -37.1372 H         1 UNK         0.0847 
     88 H88        18.9409  -28.4204  -36.2937 H         1 UNK         0.0847 
     89 H89        17.6499  -28.6527  -37.4579 H         1 UNK         0.0847 
     90 H90        20.9769  -26.7284  -39.9642 H         1 UNK         0.3040 
     91 H91        23.0018  -25.9452  -37.8959 H         1 UNK         0.1015 
     92 H92        22.0073  -24.4526  -40.3773 H         1 UNK         0.0786 
     93 H93        23.2319  -23.8784  -39.2540 H         1 UNK         0.0786 
     94 H94        21.5730  -24.0810  -38.7114 H         1 UNK         0.0786 
     95 H95        22.5545  -27.4130  -41.1001 H         1 UNK         0.3172 
     96 H96        25.3686  -28.1418  -41.2304 H         1 UNK         0.0595 
     97 H97        25.7211  -27.0659  -43.4646 H         1 UNK         0.0839 
     98 H98        25.3428  -25.8357  -42.2795 H         1 UNK         0.0839 
     99 H99        24.1063  -26.3765  -43.4085 H         1 UNK         0.0839 
    100 H100       25.5398  -29.1283  -43.6680 H         1 UNK         0.2998 
    101 H101       25.1950  -30.8741  -44.9564 H         1 UNK         0.0822 
    102 H102       22.9334  -31.3286  -45.8698 H         1 UNK         0.0787 
    103 H103       22.1874  -30.4076  -44.5638 H         1 UNK         0.0787 
    104 H104       23.1992  -29.6095  -45.7548 H         1 UNK         0.0787 
    105 H105       22.9018  -32.8220  -44.6649 H         1 UNK         0.3055 
    106 H106       24.2796  -34.7960  -43.2013 H         1 UNK         0.1106 
    107 H107       22.2416  -36.1702  -43.6813 H         1 UNK         0.0828 
    108 H108       21.3651  -34.7251  -44.1610 H         1 UNK         0.0828 
    109 H109       22.7500  -35.2782  -45.1029 H         1 UNK         0.0828 
    110 H110       22.2034  -32.3765  -41.9682 H         1 UNK         0.2931 
    111 H111       21.2674  -33.7971  -39.6169 H         1 UNK         0.0412 
    112 H112       24.3700  -32.3852  -40.3964 H         1 UNK         0.3472 
    113 H113       24.9132  -32.2547  -38.7405 H         1 UNK         0.3472 
    114 H114       21.2433  -30.7842  -40.1220 H         1 UNK         0.0970 
    115 H115       20.3486  -31.6497  -38.9034 H         1 UNK         0.0970 
    116 H116       20.2919  -30.0277  -42.1277 H         1 UNK         0.0612 
    117 H117       20.7472  -31.5093  -42.9397 H         1 UNK         0.0612 
@<TRIPOS>BOND
     1    1    2 1    
     2    1   62 1    
     3    1   63 1    
     4    1   64 1    
     5    2    3 2    
     6    2    4 am   BACKBONE|DICT|INTERRES
     7    4    5 1    
     8    4   65 1    
     9    5    6 1    
    10    5   25 1    
    11    5   66 1    
    12    6    7 1    
    13    6   67 1    
    14    6   68 1    
    15    7    8 1    
    16    8    9 1    
    17    8   69 1    
    18    8   70 1    
    19    9   10 ar   
    20    9   14 ar   
    21   10   11 ar   
    22   10   71 1    
    23   11   12 ar   
    24   11   61 1    
    25   12   13 ar   
    26   12   72 1    
    27   13   14 ar   
    28   13   15 1    
    29   14   73 1    
    30   15   16 1    
    31   15   74 1    
    32   15   75 1    
    33   16   17 1    
    34   17   18 1    
    35   17   76 1    
    36   17   77 1    
    37   18   19 1    
    38   18   27 1    
    39   18   78 1    
    40   19   20 am   BACKBONE|DICT|INTERRES
    41   19   79 1    
    42   20   21 2    
    43   20   22 1    
    44   22   23 1    
    45   22   24 1    
    46   22   80 1    
    47   23   81 1    
    48   23   82 1    
    49   23   83 1    
    50   24   25 am   BACKBONE|DICT|INTERRES
    51   24   84 1    
    52   25   26 2    
    53   27   28 2    
    54   27   29 am   BACKBONE|DICT|INTERRES
    55   29   30 1    
    56   29   85 1    
    57   30   31 1    
    58   30   32 1    
    59   30   86 1    
    60   31   87 1    
    61   31   88 1    
    62   31   89 1    
    63   32   33 2    
    64   32   34 am   BACKBONE|DICT|INTERRES
    65   34   35 1    
    66   34   90 1    
    67   35   36 1    
    68   35   37 1    
    69   35   91 1    
    70   36   92 1    
    71   36   93 1    
    72   36   94 1    
    73   37   38 2    
    74   37   39 am   BACKBONE|DICT|INTERRES
    75   39   40 1    
    76   39   95 1    
    77   40   41 1    
    78   40   42 1    
    79   40   96 1    
    80   41   97 1    
    81   41   98 1    
    82   41   99 1    
    83   42   43 2    
    84   42   44 am   BACKBONE|DICT|INTERRES
    85   44   45 1    
    86   44  100 1    
    87   45   46 1    
    88   45   47 1    
    89   45  101 1    
    90   46  102 1    
    91   46  103 1    
    92   46  104 1    
    93   47   48 2    
    94   47   49 am   BACKBONE|DICT|INTERRES
    95   49   50 1    
    96   49  105 1    
    97   50   51 1    
    98   50   52 1    
    99   50  106 1    
   100   51  107 1    
   101   51  108 1    
   102   51  109 1    
   103   52   53 2    
   104   52   54 am   BACKBONE|DICT|INTERRES
   105   54   55 1    
   106   54  110 1    
   107   55   56 1    
   108   55   59 1    
   109   55  111 1    
   110   56   57 am   BACKBONE|DICT|INTERRES
   111   56   58 2    
   112   57  112 1    
   113   57  113 1    
   114   59   60 1    
   115   59  114 1    
   116   59  115 1    
   117   60   61 1    
   118   61  116 1    
   119   61  117 1    
@<TRIPOS>SUBSTRUCTURE
     1 UNK         1 GROUP             0       ****    0 ROOT    
