@<TRIPOS>MOLECULE
3R8
117   119    1
SMALL
USER_CHARGES


@<TRIPOS>ATOM
      1 CA         14.7801  -24.1091  -47.6616 C.3       0 UNK        -0.2013 
      2 C          15.0183  -25.1573  -46.5844 C.2       0 UNK         0.4866 
      3 O          14.1058  -25.4482  -45.8101 O.2       0 UNK        -0.5176 
      4 N          16.2346  -25.7199  -46.5414 N.am      1 UNK        -0.4884 
      5 CA         16.7147  -26.7286  -45.5821 C.3       1 UNK         0.0853 
      6 C6         15.9227  -28.0688  -45.6485 C.3       10 UNK        -0.0849 
      7 S7         16.2322  -28.9193  -47.2326 S.3       10 UNK        -0.2776 
      8 C8         17.2269  -30.3591  -46.7086 C.3       10 UNK         0.0316 
      9 C9         18.4398  -29.9940  -45.8553 C.ar      10 UNK        -0.0863 
     10 C10        18.6349  -30.6173  -44.6192 C.ar      10 UNK        -0.1009 
     11 C11        19.7622  -30.3290  -43.8441 C.ar      10 UNK        -0.0712 
     12 C12        20.6908  -29.3887  -44.3009 C.ar      10 UNK        -0.0894 
     13 C13        20.4938  -28.7384  -45.5233 C.ar      10 UNK        -0.0745 
     14 C14        19.3799  -29.0616  -46.3045 C.ar      10 UNK        -0.0972 
     15 C15        21.4860  -27.6980  -46.0181 C.3       10 UNK         0.0209 
     16 S16        21.0321  -26.0240  -45.4578 S.3       10 UNK        -0.2568 
     17 C17        21.9346  -25.9099  -43.8758 C.3       10 UNK        -0.0983 
     18 CA         21.0837  -25.3465  -42.7101 C.3       3 UNK         0.0876 
     19 N          19.8753  -26.1514  -42.4907 N.am      3 UNK        -0.4424 
     20 C          18.8269  -25.8001  -41.7334 C.2       2 UNK         0.4918 
     21 O          18.7942  -24.7889  -41.0310 O.2       2 UNK        -0.4875 
     22 CA         17.6077  -26.7399  -41.8127 C.3       2 UNK         0.0481 
     23 CB         16.3884  -26.2260  -41.0181 C.3       2 UNK        -0.1831 
     24 N          17.2483  -27.0440  -43.2046 N.am      2 UNK        -0.4498 
     25 C          16.8727  -26.1657  -44.1506 C.2       1 UNK         0.5027 
     26 O          16.7209  -24.9595  -43.9379 O.2       1 UNK        -0.4969 
     27 C          21.9729  -25.1801  -41.4560 C.2       3 UNK         0.5005 
     28 O          22.8616  -24.3274  -41.4680 O.2       3 UNK        -0.5279 
     29 N          21.7522  -26.0122  -40.4248 N.am      4 UNK        -0.4463 
     30 CA         22.5328  -26.1324  -39.1819 C.3       4 UNK         0.0283 
     31 CB         22.5274  -24.8147  -38.3780 C.3       4 UNK        -0.1875 
     32 C          23.9569  -26.6934  -39.3889 C.2       4 UNK         0.4949 
     33 O          24.7855  -26.6029  -38.4823 O.2       4 UNK        -0.5039 
     34 N          24.2042  -27.2953  -40.5565 N.am      5 UNK        -0.4663 
     35 CA         25.4239  -27.9894  -40.9488 C.3       5 UNK         0.0242 
     36 CB         26.5184  -26.9729  -41.3250 C.3       5 UNK        -0.1982 
     37 C          25.0793  -28.8927  -42.1396 C.2       5 UNK         0.5017 
     38 O          24.1143  -28.5992  -42.8509 O.2       5 UNK        -0.5012 
     39 N          25.8913  -29.9407  -42.3367 N.am      6 UNK        -0.4439 
     40 CA         25.7875  -31.0021  -43.3494 C.3       6 UNK         0.0297 
     41 CB         25.7320  -30.4271  -44.7801 C.3       6 UNK        -0.2006 
     42 C          24.6216  -31.9771  -43.0991 C.2       6 UNK         0.4892 
     43 O          23.5861  -31.5988  -42.5505 O.2       6 UNK        -0.5089 
     44 N          24.8157  -33.2330  -43.5277 N.am      7 UNK        -0.4243 
     45 CA         23.8859  -34.3589  -43.3756 C.3       7 UNK         0.0196 
     46 CB         22.6629  -34.1781  -44.3070 C.3       7 UNK        -0.2007 
     47 C          23.5309  -34.5973  -41.8928 C.2       7 UNK         0.5020 
     48 O          24.4386  -34.8048  -41.0861 O.2       7 UNK        -0.5147 
     49 N          22.2365  -34.5572  -41.5561 N.am      8 UNK        -0.4734 
     50 CA         21.7271  -34.6900  -40.1889 C.3       8 UNK         0.0238 
     51 CB         20.3006  -35.2630  -40.2524 C.3       8 UNK        -0.1912 
     52 C          21.7357  -33.3682  -39.3962 C.2       8 UNK         0.5038 
     53 O          21.5111  -33.4068  -38.1853 O.2       8 UNK        -0.5046 
     54 N          21.9503  -32.2323  -40.0720 N.am      9 UNK        -0.4200 
     55 CA         21.9258  -30.8912  -39.4763 C.3       9 UNK         0.0839 
     56 C          23.2784  -30.5429  -38.8031 C.2       9 UNK         0.5513 
     57 N          23.2434  -29.7962  -37.7081 N.am      9 UNK        -0.7519 
     58 O          24.3529  -30.9033  -39.2776 O.2       9 UNK        -0.4960 
     59 C59        21.5196  -29.8136  -40.5158 C.3       10 UNK        -0.0876 
     60 S60        19.7948  -30.0014  -41.0817 S.3       10 UNK        -0.2414 
     61 C61        19.9941  -31.0738  -42.5388 C.3       10 UNK         0.0169 
     62 H62        14.5163  -23.1555  -47.2046 H         1 UNK         0.0903 
     63 H63        15.6610  -23.9542  -48.2844 H         1 UNK         0.0903 
     64 H64        13.9584  -24.4161  -48.3082 H         1 UNK         0.0903 
     65 H65        16.9322  -25.4059  -47.2015 H         1 UNK         0.3096 
     66 H66        17.7410  -26.9329  -45.8872 H         1 UNK         0.1121 
     67 H67        14.8506  -27.9024  -45.5415 H         1 UNK         0.0849 
     68 H68        16.1858  -28.7498  -44.8393 H         1 UNK         0.0849 
     69 H69        16.5739  -31.0514  -46.1747 H         1 UNK         0.0865 
     70 H70        17.5703  -30.8906  -47.5971 H         1 UNK         0.0865 
     71 H71        17.9202  -31.3500  -44.2693 H         1 UNK         0.1346 
     72 H72        21.5696  -29.1729  -43.7080 H         1 UNK         0.1412 
     73 H73        19.2358  -28.5769  -47.2609 H         1 UNK         0.1426 
     74 H74        21.5101  -27.7033  -47.1089 H         1 UNK         0.0716 
     75 H75        22.4988  -27.9475  -45.6965 H         1 UNK         0.0716 
     76 H76        22.8098  -25.2813  -44.0520 H         1 UNK         0.0695 
     77 H77        22.3215  -26.8928  -43.6090 H         1 UNK         0.0695 
     78 H78        20.7545  -24.3425  -42.9873 H         1 UNK         0.0983 
     79 H79        19.8002  -26.9854  -43.0549 H         1 UNK         0.3095 
     80 H80        17.9144  -27.6833  -41.3606 H         1 UNK         0.0454 
     81 H81        16.6336  -26.1124  -39.9615 H         1 UNK         0.0851 
     82 H82        15.5513  -26.9207  -41.0828 H         1 UNK         0.0851 
     83 H83        16.0463  -25.2544  -41.3755 H         1 UNK         0.0851 
     84 H84        17.3757  -28.0089  -43.4777 H         1 UNK         0.2976 
     85 H85        20.9775  -26.6533  -40.5191 H         1 UNK         0.3116 
     86 H86        22.0113  -26.8754  -38.5771 H         1 UNK         0.0646 
     87 H87        23.1190  -24.0385  -38.8637 H         1 UNK         0.0847 
     88 H88        21.5150  -24.4335  -38.2459 H         1 UNK         0.0847 
     89 H89        22.9487  -24.9632  -37.3830 H         1 UNK         0.0847 
     90 H90        23.4760  -27.3428  -41.2578 H         1 UNK         0.3040 
     91 H91        25.7598  -28.6113  -40.1160 H         1 UNK         0.1015 
     92 H92        27.4310  -27.4775  -41.6444 H         1 UNK         0.0786 
     93 H93        26.7811  -26.3374  -40.4792 H         1 UNK         0.0786 
     94 H94        26.1985  -26.3254  -42.1426 H         1 UNK         0.0786 
     95 H95        26.6300  -30.0806  -41.6614 H         1 UNK         0.3172 
     96 H96        26.7131  -31.5728  -43.2588 H         1 UNK         0.0595 
     97 H97        24.7878  -29.9193  -44.9800 H         1 UNK         0.0839 
     98 H98        25.8293  -31.2201  -45.5224 H         1 UNK         0.0839 
     99 H99        26.5400  -29.7172  -44.9566 H         1 UNK         0.0839 
    100 H100       25.7074  -33.4610  -43.9450 H         1 UNK         0.2998 
    101 H101       24.4211  -35.2512  -43.7041 H         1 UNK         0.0822 
    102 H102       22.0035  -35.0463  -44.2707 H         1 UNK         0.0787 
    103 H103       22.0731  -33.2963  -44.0539 H         1 UNK         0.0787 
    104 H104       22.9797  -34.0677  -45.3442 H         1 UNK         0.0787 
    105 H105       21.5576  -34.3774  -42.2819 H         1 UNK         0.3055 
    106 H106       22.3540  -35.3971  -39.6403 H         1 UNK         0.1106 
    107 H107       20.2818  -36.2278  -40.7595 H         1 UNK         0.0828 
    108 H108       19.8964  -35.4191  -39.2512 H         1 UNK         0.0828 
    109 H109       19.6185  -34.5927  -40.7771 H         1 UNK         0.0828 
    110 H110       22.2587  -32.2772  -41.0360 H         1 UNK         0.2931 
    111 H111       21.1625  -30.8869  -38.6947 H         1 UNK         0.0412 
    112 H112       24.1116  -29.5409  -37.2637 H         1 UNK         0.3472 
    113 H113       22.3687  -29.5108  -37.2965 H         1 UNK         0.3472 
    114 H114       21.5946  -28.8241  -40.0683 H         1 UNK         0.0970 
    115 H115       22.1965  -29.8071  -41.3697 H         1 UNK         0.0970 
    116 H116       19.2958  -31.9065  -42.4439 H         1 UNK         0.0612 
    117 H117       20.9862  -31.5210  -42.5584 H         1 UNK         0.0612 
@<TRIPOS>BOND
     1    1    2 1    
     2    1   62 1    
     3    1   63 1    
     4    1   64 1    
     5    2    3 2    
     6    2    4 am   BACKBONE|DICT|INTERRES
     7    4    5 1    
     8    4   65 1    
     9    5    6 1    
    10    5   25 1    
    11    5   66 1    
    12    6    7 1    
    13    6   67 1    
    14    6   68 1    
    15    7    8 1    
    16    8    9 1    
    17    8   69 1    
    18    8   70 1    
    19    9   10 ar   
    20    9   14 ar   
    21   10   11 ar   
    22   10   71 1    
    23   11   12 ar   
    24   11   61 1    
    25   12   13 ar   
    26   12   72 1    
    27   13   14 ar   
    28   13   15 1    
    29   14   73 1    
    30   15   16 1    
    31   15   74 1    
    32   15   75 1    
    33   16   17 1    
    34   17   18 1    
    35   17   76 1    
    36   17   77 1    
    37   18   19 1    
    38   18   27 1    
    39   18   78 1    
    40   19   20 am   BACKBONE|DICT|INTERRES
    41   19   79 1    
    42   20   21 2    
    43   20   22 1    
    44   22   23 1    
    45   22   24 1    
    46   22   80 1    
    47   23   81 1    
    48   23   82 1    
    49   23   83 1    
    50   24   25 am   BACKBONE|DICT|INTERRES
    51   24   84 1    
    52   25   26 2    
    53   27   28 2    
    54   27   29 am   BACKBONE|DICT|INTERRES
    55   29   30 1    
    56   29   85 1    
    57   30   31 1    
    58   30   32 1    
    59   30   86 1    
    60   31   87 1    
    61   31   88 1    
    62   31   89 1    
    63   32   33 2    
    64   32   34 am   BACKBONE|DICT|INTERRES
    65   34   35 1    
    66   34   90 1    
    67   35   36 1    
    68   35   37 1    
    69   35   91 1    
    70   36   92 1    
    71   36   93 1    
    72   36   94 1    
    73   37   38 2    
    74   37   39 am   BACKBONE|DICT|INTERRES
    75   39   40 1    
    76   39   95 1    
    77   40   41 1    
    78   40   42 1    
    79   40   96 1    
    80   41   97 1    
    81   41   98 1    
    82   41   99 1    
    83   42   43 2    
    84   42   44 am   BACKBONE|DICT|INTERRES
    85   44   45 1    
    86   44  100 1    
    87   45   46 1    
    88   45   47 1    
    89   45  101 1    
    90   46  102 1    
    91   46  103 1    
    92   46  104 1    
    93   47   48 2    
    94   47   49 am   BACKBONE|DICT|INTERRES
    95   49   50 1    
    96   49  105 1    
    97   50   51 1    
    98   50   52 1    
    99   50  106 1    
   100   51  107 1    
   101   51  108 1    
   102   51  109 1    
   103   52   53 2    
   104   52   54 am   BACKBONE|DICT|INTERRES
   105   54   55 1    
   106   54  110 1    
   107   55   56 1    
   108   55   59 1    
   109   55  111 1    
   110   56   57 am   BACKBONE|DICT|INTERRES
   111   56   58 2    
   112   57  112 1    
   113   57  113 1    
   114   59   60 1    
   115   59  114 1    
   116   59  115 1    
   117   60   61 1    
   118   61  116 1    
   119   61  117 1    
@<TRIPOS>SUBSTRUCTURE
     1 UNK         1 GROUP             0       ****    0 ROOT    
