@<TRIPOS>MOLECULE
3R8
117   119    1
SMALL
USER_CHARGES


@<TRIPOS>ATOM
      1 CA         13.1583  -24.4789  -46.1374 C.3       0 UNK        -0.2013 
      2 C          14.4958  -25.1111  -46.4923 C.2       0 UNK         0.4866 
      3 O          14.9804  -24.9282  -47.6091 O.2       0 UNK        -0.5176 
      4 N          15.0908  -25.8575  -45.5521 N.am      1 UNK        -0.4884 
      5 CA         16.3873  -26.5309  -45.7040 C.3       1 UNK         0.0853 
      6 C6         16.6531  -27.5185  -44.5414 C.3       10 UNK        -0.0849 
      7 S7         15.7142  -29.0727  -44.7322 S.3       10 UNK        -0.2776 
      8 C8         16.8432  -30.0889  -45.7483 C.3       10 UNK         0.0316 
      9 C9         18.1374  -30.4171  -45.0162 C.ar      10 UNK        -0.0863 
     10 C10        18.1926  -31.4871  -44.1215 C.ar      10 UNK        -0.1009 
     11 C11        19.3667  -31.7571  -43.4136 C.ar      10 UNK        -0.0712 
     12 C12        20.4872  -30.9377  -43.5971 C.ar      10 UNK        -0.0894 
     13 C13        20.4525  -29.8632  -44.4939 C.ar      10 UNK        -0.0745 
     14 C14        19.2777  -29.6371  -45.2242 C.ar      10 UNK        -0.0972 
     15 C15        21.6949  -28.9763  -44.6391 C.3       10 UNK         0.0209 
     16 S16        21.4031  -27.3745  -45.4783 S.3       10 UNK        -0.2568 
     17 C17        22.2427  -26.1650  -44.3984 C.3       10 UNK        -0.0983 
     18 CA         21.3322  -25.4785  -43.3379 C.3       3 UNK         0.0876 
     19 N          20.0870  -24.9319  -43.8721 N.am      3 UNK        -0.4424 
     20 C          19.9668  -23.8245  -44.6104 C.2       2 UNK         0.4918 
     21 O          20.9289  -23.1388  -44.9611 O.2       2 UNK        -0.4875 
     22 CA         18.5341  -23.3813  -44.9880 C.3       2 UNK         0.0481 
     23 CB         18.4960  -22.5537  -46.2906 C.3       2 UNK        -0.1831 
     24 N          17.5471  -24.4709  -45.0351 N.am      2 UNK        -0.4498 
     25 C          17.5579  -25.5375  -45.8514 C.2       1 UNK         0.5027 
     26 O          18.4282  -25.7561  -46.6940 O.2       1 UNK        -0.4969 
     27 C          20.9848  -26.4076  -42.1647 C.2       3 UNK         0.5005 
     28 O          19.8341  -26.8371  -42.0358 O.2       3 UNK        -0.5279 
     29 N          21.9921  -26.6920  -41.3352 N.am      4 UNK        -0.4463 
     30 CA         21.9471  -27.5785  -40.1794 C.3       4 UNK         0.0283 
     31 CB         21.2341  -26.8881  -39.0021 C.3       4 UNK        -0.1875 
     32 C          23.3926  -27.9284  -39.8115 C.2       4 UNK         0.4949 
     33 O          24.3107  -27.1915  -40.1843 O.2       4 UNK        -0.5039 
     34 N          23.5673  -29.0459  -39.0977 N.am      5 UNK        -0.4663 
     35 CA         24.8125  -29.6540  -38.6050 C.3       5 UNK         0.0242 
     36 CB         25.5525  -28.7158  -37.6323 C.3       5 UNK        -0.1982 
     37 C          25.7578  -30.1728  -39.7045 C.2       5 UNK         0.5017 
     38 O          26.2263  -31.3071  -39.6032 O.2       5 UNK        -0.5012 
     39 N          26.0054  -29.3522  -40.7339 N.am      6 UNK        -0.4439 
     40 CA         26.9309  -29.5861  -41.8492 C.3       6 UNK         0.0297 
     41 CB         26.9385  -28.3455  -42.7573 C.3       6 UNK        -0.2006 
     42 C          26.6477  -30.8511  -42.6806 C.2       6 UNK         0.4892 
     43 O          27.5816  -31.4126  -43.2545 O.2       6 UNK        -0.5089 
     44 N          25.3821  -31.2805  -42.7181 N.am      7 UNK        -0.4243 
     45 CA         24.9309  -32.5270  -43.3342 C.3       7 UNK         0.0196 
     46 CB         24.4248  -32.2483  -44.7629 C.3       7 UNK        -0.2007 
     47 C          23.8707  -33.1747  -42.4315 C.2       7 UNK         0.5020 
     48 O          22.8490  -33.6438  -42.9316 O.2       7 UNK        -0.5147 
     49 N          24.1250  -33.1487  -41.1131 N.am      8 UNK        -0.4734 
     50 CA         23.1919  -33.4545  -40.0196 C.3       8 UNK         0.0238 
     51 CB         22.6464  -34.8981  -40.1158 C.3       8 UNK        -0.1912 
     52 C          22.0876  -32.3831  -39.9036 C.2       8 UNK         0.5038 
     53 O          22.2487  -31.2839  -40.4384 O.2       8 UNK        -0.5046 
     54 N          21.0094  -32.6960  -39.1723 N.am      9 UNK        -0.4200 
     55 CA         19.8803  -31.7930  -38.8700 C.3       9 UNK         0.0839 
     56 C          20.2444  -30.5920  -37.9431 C.2       9 UNK         0.5513 
     57 N          21.3703  -30.6179  -37.2384 N.am      9 UNK        -0.7519 
     58 O          19.4843  -29.6346  -37.8327 O.2       9 UNK        -0.4960 
     59 C59        19.0881  -31.3490  -40.1356 C.3       10 UNK        -0.0876 
     60 S60        18.3284  -32.7524  -41.0211 S.3       10 UNK        -0.2414 
     61 C61        19.4247  -32.9446  -42.4624 C.3       10 UNK         0.0169 
     62 H62        13.2246  -23.3939  -46.2138 H         1 UNK         0.0903 
     63 H63        12.3867  -24.8226  -46.8258 H         1 UNK         0.0903 
     64 H64        12.8439  -24.7288  -45.1241 H         1 UNK         0.0903 
     65 H65        14.6262  -25.9963  -44.6655 H         1 UNK         0.3096 
     66 H66        16.3554  -27.0951  -46.6391 H         1 UNK         0.1121 
     67 H67        16.3750  -27.0675  -43.5872 H         1 UNK         0.0849 
     68 H68        17.7123  -27.7452  -44.4335 H         1 UNK         0.0849 
     69 H69        16.3340  -31.0143  -46.0218 H         1 UNK         0.0865 
     70 H70        17.0534  -29.5733  -46.6867 H         1 UNK         0.0865 
     71 H71        17.3179  -32.1036  -43.9641 H         1 UNK         0.1346 
     72 H72        21.3904  -31.1395  -43.0365 H         1 UNK         0.1412 
     73 H73        19.2215  -28.8257  -45.9353 H         1 UNK         0.1426 
     74 H74        22.4532  -29.5210  -45.2016 H         1 UNK         0.0716 
     75 H75        22.1148  -28.7965  -43.6486 H         1 UNK         0.0716 
     76 H76        22.6530  -25.3957  -45.0540 H         1 UNK         0.0695 
     77 H77        23.1135  -26.6314  -43.9343 H         1 UNK         0.0695 
     78 H78        21.8887  -24.6423  -42.9081 H         1 UNK         0.0983 
     79 H79        19.2633  -25.4420  -43.5804 H         1 UNK         0.3095 
     80 H80        18.2085  -22.7251  -44.1798 H         1 UNK         0.0454 
     81 H81        18.8815  -23.1184  -47.1400 H         1 UNK         0.0851 
     82 H82        19.1013  -21.6509  -46.2007 H         1 UNK         0.0851 
     83 H83        17.4811  -22.2376  -46.5312 H         1 UNK         0.0851 
     84 H84        16.7767  -24.3899  -44.3857 H         1 UNK         0.2976 
     85 H85        22.9187  -26.3180  -41.5086 H         1 UNK         0.3116 
     86 H86        21.4194  -28.4961  -40.4502 H         1 UNK         0.0646 
     87 H87        20.1862  -26.6931  -39.2304 H         1 UNK         0.0847 
     88 H88        21.7056  -25.9384  -38.7468 H         1 UNK         0.0847 
     89 H89        21.2549  -27.5119  -38.1081 H         1 UNK         0.0847 
     90 H90        22.7416  -29.6106  -38.9359 H         1 UNK         0.3040 
     91 H91        24.5010  -30.5301  -38.0337 H         1 UNK         0.1015 
     92 H92        25.9099  -27.8112  -38.1250 H         1 UNK         0.0786 
     93 H93        26.4220  -29.2125  -37.1996 H         1 UNK         0.0786 
     94 H94        24.9078  -28.4145  -36.8067 H         1 UNK         0.0786 
     95 H95        25.5428  -28.4454  -40.7006 H         1 UNK         0.3172 
     96 H96        27.9277  -29.7009  -41.4190 H         1 UNK         0.0595 
     97 H97        25.9546  -28.1554  -43.1883 H         1 UNK         0.0839 
     98 H98        27.6388  -28.4697  -43.5847 H         1 UNK         0.0839 
     99 H99        27.2428  -27.4534  -42.2095 H         1 UNK         0.0839 
    100 H100       24.6845  -30.7675  -42.1955 H         1 UNK         0.2998 
    101 H101       25.7604  -33.2352  -43.3924 H         1 UNK         0.0822 
    102 H102       25.1937  -31.7727  -45.3718 H         1 UNK         0.0787 
    103 H103       24.1413  -33.1745  -45.2644 H         1 UNK         0.0787 
    104 H104       23.5493  -31.5994  -44.7574 H         1 UNK         0.0787 
    105 H105       24.9934  -32.7168  -40.8169 H         1 UNK         0.3055 
    106 H106       23.7795  -33.3821  -39.1030 H         1 UNK         0.1106 
    107 H107       21.8979  -35.0020  -40.9022 H         1 UNK         0.0828 
    108 H108       22.1813  -35.2110  -39.1807 H         1 UNK         0.0828 
    109 H109       23.4461  -35.6093  -40.3228 H         1 UNK         0.0828 
    110 H110       20.9530  -33.6140  -38.7567 H         1 UNK         0.2931 
    111 H111       19.1977  -32.3911  -38.2653 H         1 UNK         0.0412 
    112 H112       21.9588  -31.4348  -37.2454 H         1 UNK         0.3472 
    113 H113       21.5693  -29.8578  -36.6070 H         1 UNK         0.3472 
    114 H114       19.7174  -30.7656  -40.8082 H         1 UNK         0.0970 
    115 H115       18.2681  -30.6844  -39.8584 H         1 UNK         0.0970 
    116 H116       20.4414  -33.1165  -42.1152 H         1 UNK         0.0612 
    117 H117       19.1343  -33.8454  -43.0044 H         1 UNK         0.0612 
@<TRIPOS>BOND
     1    1    2 1    
     2    1   62 1    
     3    1   63 1    
     4    1   64 1    
     5    2    3 2    
     6    2    4 am   BACKBONE|DICT|INTERRES
     7    4    5 1    
     8    4   65 1    
     9    5    6 1    
    10    5   25 1    
    11    5   66 1    
    12    6    7 1    
    13    6   67 1    
    14    6   68 1    
    15    7    8 1    
    16    8    9 1    
    17    8   69 1    
    18    8   70 1    
    19    9   10 ar   
    20    9   14 ar   
    21   10   11 ar   
    22   10   71 1    
    23   11   12 ar   
    24   11   61 1    
    25   12   13 ar   
    26   12   72 1    
    27   13   14 ar   
    28   13   15 1    
    29   14   73 1    
    30   15   16 1    
    31   15   74 1    
    32   15   75 1    
    33   16   17 1    
    34   17   18 1    
    35   17   76 1    
    36   17   77 1    
    37   18   19 1    
    38   18   27 1    
    39   18   78 1    
    40   19   20 am   BACKBONE|DICT|INTERRES
    41   19   79 1    
    42   20   21 2    
    43   20   22 1    
    44   22   23 1    
    45   22   24 1    
    46   22   80 1    
    47   23   81 1    
    48   23   82 1    
    49   23   83 1    
    50   24   25 am   BACKBONE|DICT|INTERRES
    51   24   84 1    
    52   25   26 2    
    53   27   28 2    
    54   27   29 am   BACKBONE|DICT|INTERRES
    55   29   30 1    
    56   29   85 1    
    57   30   31 1    
    58   30   32 1    
    59   30   86 1    
    60   31   87 1    
    61   31   88 1    
    62   31   89 1    
    63   32   33 2    
    64   32   34 am   BACKBONE|DICT|INTERRES
    65   34   35 1    
    66   34   90 1    
    67   35   36 1    
    68   35   37 1    
    69   35   91 1    
    70   36   92 1    
    71   36   93 1    
    72   36   94 1    
    73   37   38 2    
    74   37   39 am   BACKBONE|DICT|INTERRES
    75   39   40 1    
    76   39   95 1    
    77   40   41 1    
    78   40   42 1    
    79   40   96 1    
    80   41   97 1    
    81   41   98 1    
    82   41   99 1    
    83   42   43 2    
    84   42   44 am   BACKBONE|DICT|INTERRES
    85   44   45 1    
    86   44  100 1    
    87   45   46 1    
    88   45   47 1    
    89   45  101 1    
    90   46  102 1    
    91   46  103 1    
    92   46  104 1    
    93   47   48 2    
    94   47   49 am   BACKBONE|DICT|INTERRES
    95   49   50 1    
    96   49  105 1    
    97   50   51 1    
    98   50   52 1    
    99   50  106 1    
   100   51  107 1    
   101   51  108 1    
   102   51  109 1    
   103   52   53 2    
   104   52   54 am   BACKBONE|DICT|INTERRES
   105   54   55 1    
   106   54  110 1    
   107   55   56 1    
   108   55   59 1    
   109   55  111 1    
   110   56   57 am   BACKBONE|DICT|INTERRES
   111   56   58 2    
   112   57  112 1    
   113   57  113 1    
   114   59   60 1    
   115   59  114 1    
   116   59  115 1    
   117   60   61 1    
   118   61  116 1    
   119   61  117 1    
@<TRIPOS>SUBSTRUCTURE
     1 UNK         1 GROUP             0       ****    0 ROOT    
