@<TRIPOS>MOLECULE
3R8
117   119    1
SMALL
USER_CHARGES


@<TRIPOS>ATOM
      1 CA         14.7854  -23.0606  -41.4730 C.3       0 UNK        -0.2013 
      2 C          15.6376  -23.7938  -42.4982 C.2       0 UNK         0.4866 
      3 O          16.7013  -23.3007  -42.8749 O.2       0 UNK        -0.5176 
      4 N          15.1757  -24.9632  -42.9590 N.am      1 UNK        -0.4884 
      5 CA         15.8992  -25.8368  -43.8879 C.3       1 UNK         0.0853 
      6 C6         14.9349  -26.8479  -44.5576 C.3       10 UNK        -0.0849 
      7 S7         15.5794  -27.5199  -46.1293 S.3       10 UNK        -0.2776 
      8 C8         15.3488  -29.3150  -45.9083 C.3       10 UNK         0.0316 
      9 C9         16.5127  -29.9489  -45.1606 C.ar      10 UNK        -0.0863 
     10 C10        16.5128  -30.0028  -43.7650 C.ar      10 UNK        -0.1009 
     11 C11        17.5866  -30.5596  -43.0649 C.ar      10 UNK        -0.0712 
     12 C12        18.6724  -31.0727  -43.7888 C.ar      10 UNK        -0.0894 
     13 C13        18.6549  -31.0901  -45.1861 C.ar      10 UNK        -0.0745 
     14 C14        17.5796  -30.5113  -45.8662 C.ar      10 UNK        -0.0972 
     15 C15        19.7514  -31.8067  -45.9630 C.3       10 UNK         0.0209 
     16 S16        20.7290  -30.6859  -47.0094 S.3       10 UNK        -0.2568 
     17 C17        22.1556  -30.2861  -45.9479 C.3       10 UNK        -0.0983 
     18 CA         22.2016  -28.7747  -45.6175 C.3       3 UNK         0.0876 
     19 N          21.2586  -28.4390  -44.5462 N.am      3 UNK        -0.4424 
     20 C          20.3384  -27.4746  -44.6275 C.2       2 UNK         0.4918 
     21 O          20.1884  -26.7409  -45.6093 O.2       2 UNK        -0.4875 
     22 CA         19.4484  -27.2698  -43.3971 C.3       2 UNK         0.0481 
     23 CB         20.1572  -26.3916  -42.3494 C.3       2 UNK        -0.1831 
     24 N          18.2136  -26.6347  -43.8462 N.am      2 UNK        -0.4498 
     25 C          17.0702  -26.5351  -43.1632 C.2       1 UNK         0.5027 
     26 O          16.9078  -26.9670  -42.0189 O.2       1 UNK        -0.4969 
     27 C          23.6364  -28.3132  -45.2886 C.2       3 UNK         0.5005 
     28 O          24.4901  -28.3559  -46.1769 O.2       3 UNK        -0.5279 
     29 N          23.8960  -27.8678  -44.0534 N.am      4 UNK        -0.4463 
     30 CA         25.1889  -27.3712  -43.5890 C.3       4 UNK         0.0283 
     31 CB         26.1147  -28.5593  -43.2584 C.3       4 UNK        -0.1875 
     32 C          24.9733  -26.4997  -42.3486 C.2       4 UNK         0.4949 
     33 O          23.8789  -26.5000  -41.7805 O.2       4 UNK        -0.5039 
     34 N          26.0444  -25.8315  -41.8984 N.am      5 UNK        -0.4663 
     35 CA         26.0986  -25.1239  -40.6106 C.3       5 UNK         0.0242 
     36 CB         27.3956  -24.3029  -40.5326 C.3       5 UNK        -0.1982 
     37 C          25.9845  -26.0739  -39.4012 C.2       5 UNK         0.5017 
     38 O          25.4761  -25.6709  -38.3557 O.2       5 UNK        -0.5012 
     39 N          26.4086  -27.3314  -39.5927 N.am      6 UNK        -0.4439 
     40 CA         26.2192  -28.4594  -38.6763 C.3       6 UNK         0.0297 
     41 CB         27.4128  -29.4203  -38.8279 C.3       6 UNK        -0.2006 
     42 C          24.8756  -29.1891  -38.9028 C.2       6 UNK         0.4892 
     43 O          24.7365  -30.3390  -38.4824 O.2       6 UNK        -0.5089 
     44 N          23.9233  -28.5331  -39.5838 N.am      7 UNK        -0.4243 
     45 CA         22.5848  -28.9839  -39.9798 C.3       7 UNK         0.0196 
     46 CB         21.7538  -29.4505  -38.7684 C.3       7 UNK        -0.2007 
     47 C          22.6142  -30.0198  -41.1157 C.2       7 UNK         0.5020 
     48 O          22.0204  -29.7737  -42.1670 O.2       7 UNK        -0.5147 
     49 N          23.3314  -31.1311  -40.8919 N.am      8 UNK        -0.4734 
     50 CA         23.5489  -32.2640  -41.8046 C.3       8 UNK         0.0238 
     51 CB         24.4467  -31.8443  -42.9880 C.3       8 UNK        -0.1912 
     52 C          22.2477  -32.9670  -42.2464 C.2       8 UNK         0.5038 
     53 O          22.1361  -33.3989  -43.3948 O.2       8 UNK        -0.5046 
     54 N          21.2889  -33.0682  -41.3181 N.am      9 UNK        -0.4200 
     55 CA         19.9542  -33.6537  -41.5340 C.3       9 UNK         0.0839 
     56 C          19.8957  -35.2002  -41.3761 C.2       9 UNK         0.5513 
     57 N          20.9741  -35.8742  -40.9949 N.am      9 UNK        -0.7519 
     58 O          18.8512  -35.8021  -41.6119 O.2       9 UNK        -0.4960 
     59 C59        18.8657  -32.9548  -40.6698 C.3       10 UNK        -0.0876 
     60 S60        18.9894  -31.1289  -40.6413 S.3       10 UNK        -0.2414 
     61 C61        17.5010  -30.5767  -41.5371 C.3       10 UNK         0.0169 
     62 H62        15.3438  -22.9297  -40.5465 H         1 UNK         0.0903 
     63 H63        14.5119  -22.0748  -41.8483 H         1 UNK         0.0903 
     64 H64        13.8679  -23.6017  -41.2422 H         1 UNK         0.0903 
     65 H65        14.3144  -25.3364  -42.5854 H         1 UNK         0.3096 
     66 H66        16.3137  -25.1949  -44.6694 H         1 UNK         0.1121 
     67 H67        13.9963  -26.3496  -44.8062 H         1 UNK         0.0849 
     68 H68        14.6626  -27.6480  -43.8684 H         1 UNK         0.0849 
     69 H69        14.4074  -29.5142  -45.3938 H         1 UNK         0.0865 
     70 H70        15.2508  -29.7748  -46.8930 H         1 UNK         0.0865 
     71 H71        15.6764  -29.5981  -43.2128 H         1 UNK         0.1346 
     72 H72        19.5299  -31.4787  -43.2775 H         1 UNK         0.1412 
     73 H73        17.5712  -30.5100  -46.9479 H         1 UNK         0.1426 
     74 H74        19.2813  -32.5490  -46.6094 H         1 UNK         0.0716 
     75 H75        20.4060  -32.3701  -45.2968 H         1 UNK         0.0716 
     76 H76        23.0442  -30.6031  -46.4975 H         1 UNK         0.0695 
     77 H77        22.1377  -30.8838  -45.0353 H         1 UNK         0.0695 
     78 H78        21.9423  -28.2280  -46.5270 H         1 UNK         0.0983 
     79 H79        21.3449  -28.9879  -43.6911 H         1 UNK         0.3095 
     80 H80        19.2171  -28.2439  -42.9635 H         1 UNK         0.0454 
     81 H81        21.1219  -26.8148  -42.0715 H         1 UNK         0.0851 
     82 H82        19.5686  -26.3051  -41.4362 H         1 UNK         0.0851 
     83 H83        20.3419  -25.3854  -42.7271 H         1 UNK         0.0851 
     84 H84        18.2631  -26.2947  -44.7996 H         1 UNK         0.2976 
     85 H85        23.1525  -27.8114  -43.3678 H         1 UNK         0.3116 
     86 H86        25.6389  -26.7525  -44.3683 H         1 UNK         0.0646 
     87 H87        27.1160  -28.2219  -42.9897 H         1 UNK         0.0847 
     88 H88        25.7293  -29.1428  -42.4216 H         1 UNK         0.0847 
     89 H89        26.2268  -29.2310  -44.1096 H         1 UNK         0.0847 
     90 H90        26.9004  -25.8620  -42.4352 H         1 UNK         0.3040 
     91 H91        25.2508  -24.4361  -40.5660 H         1 UNK         0.1015 
     92 H92        27.4494  -23.7476  -39.5949 H         1 UNK         0.0786 
     93 H93        27.4533  -23.5741  -41.3414 H         1 UNK         0.0786 
     94 H94        28.2814  -24.9371  -40.5867 H         1 UNK         0.0786 
     95 H95        26.8178  -27.5495  -40.4892 H         1 UNK         0.3172 
     96 H96        26.2125  -28.0889  -37.6493 H         1 UNK         0.0595 
     97 H97        27.4448  -29.8720  -39.8202 H         1 UNK         0.0839 
     98 H98        27.3587  -30.2329  -38.1021 H         1 UNK         0.0839 
     99 H99        28.3600  -28.9071  -38.6607 H         1 UNK         0.0839 
    100 H100       24.1589  -27.6136  -39.9369 H         1 UNK         0.2998 
    101 H101       22.0924  -28.0958  -40.3760 H         1 UNK         0.0822 
    102 H102       20.7011  -29.5349  -39.0322 H         1 UNK         0.0787 
    103 H103       22.0752  -30.4219  -38.3920 H         1 UNK         0.0787 
    104 H104       21.8167  -28.7368  -37.9470 H         1 UNK         0.0787 
    105 H105       23.8024  -31.1841  -39.9918 H         1 UNK         0.3055 
    106 H106       24.1000  -33.0139  -41.2349 H         1 UNK         0.1106 
    107 H107       25.4202  -31.5042  -42.6370 H         1 UNK         0.0828 
    108 H108       24.6302  -32.6792  -43.6652 H         1 UNK         0.0828 
    109 H109       24.0013  -31.0407  -43.5731 H         1 UNK         0.0828 
    110 H110       21.4581  -32.6744  -40.4048 H         1 UNK         0.2931 
    111 H111       19.6859  -33.4910  -42.5772 H         1 UNK         0.0412 
    112 H112       21.8374  -35.3921  -40.8032 H         1 UNK         0.3472 
    113 H113       20.9231  -36.8767  -40.9004 H         1 UNK         0.3472 
    114 H114       18.9338  -33.2955  -39.6351 H         1 UNK         0.0970 
    115 H115       17.8713  -33.2453  -41.0134 H         1 UNK         0.0970 
    116 H116       16.6507  -31.1867  -41.2298 H         1 UNK         0.0612 
    117 H117       17.2849  -29.5625  -41.1991 H         1 UNK         0.0612 
@<TRIPOS>BOND
     1    1    2 1    
     2    1   62 1    
     3    1   63 1    
     4    1   64 1    
     5    2    3 2    
     6    2    4 am   BACKBONE|DICT|INTERRES
     7    4    5 1    
     8    4   65 1    
     9    5    6 1    
    10    5   25 1    
    11    5   66 1    
    12    6    7 1    
    13    6   67 1    
    14    6   68 1    
    15    7    8 1    
    16    8    9 1    
    17    8   69 1    
    18    8   70 1    
    19    9   10 ar   
    20    9   14 ar   
    21   10   11 ar   
    22   10   71 1    
    23   11   12 ar   
    24   11   61 1    
    25   12   13 ar   
    26   12   72 1    
    27   13   14 ar   
    28   13   15 1    
    29   14   73 1    
    30   15   16 1    
    31   15   74 1    
    32   15   75 1    
    33   16   17 1    
    34   17   18 1    
    35   17   76 1    
    36   17   77 1    
    37   18   19 1    
    38   18   27 1    
    39   18   78 1    
    40   19   20 am   BACKBONE|DICT|INTERRES
    41   19   79 1    
    42   20   21 2    
    43   20   22 1    
    44   22   23 1    
    45   22   24 1    
    46   22   80 1    
    47   23   81 1    
    48   23   82 1    
    49   23   83 1    
    50   24   25 am   BACKBONE|DICT|INTERRES
    51   24   84 1    
    52   25   26 2    
    53   27   28 2    
    54   27   29 am   BACKBONE|DICT|INTERRES
    55   29   30 1    
    56   29   85 1    
    57   30   31 1    
    58   30   32 1    
    59   30   86 1    
    60   31   87 1    
    61   31   88 1    
    62   31   89 1    
    63   32   33 2    
    64   32   34 am   BACKBONE|DICT|INTERRES
    65   34   35 1    
    66   34   90 1    
    67   35   36 1    
    68   35   37 1    
    69   35   91 1    
    70   36   92 1    
    71   36   93 1    
    72   36   94 1    
    73   37   38 2    
    74   37   39 am   BACKBONE|DICT|INTERRES
    75   39   40 1    
    76   39   95 1    
    77   40   41 1    
    78   40   42 1    
    79   40   96 1    
    80   41   97 1    
    81   41   98 1    
    82   41   99 1    
    83   42   43 2    
    84   42   44 am   BACKBONE|DICT|INTERRES
    85   44   45 1    
    86   44  100 1    
    87   45   46 1    
    88   45   47 1    
    89   45  101 1    
    90   46  102 1    
    91   46  103 1    
    92   46  104 1    
    93   47   48 2    
    94   47   49 am   BACKBONE|DICT|INTERRES
    95   49   50 1    
    96   49  105 1    
    97   50   51 1    
    98   50   52 1    
    99   50  106 1    
   100   51  107 1    
   101   51  108 1    
   102   51  109 1    
   103   52   53 2    
   104   52   54 am   BACKBONE|DICT|INTERRES
   105   54   55 1    
   106   54  110 1    
   107   55   56 1    
   108   55   59 1    
   109   55  111 1    
   110   56   57 am   BACKBONE|DICT|INTERRES
   111   56   58 2    
   112   57  112 1    
   113   57  113 1    
   114   59   60 1    
   115   59  114 1    
   116   59  115 1    
   117   60   61 1    
   118   61  116 1    
   119   61  117 1    
@<TRIPOS>SUBSTRUCTURE
     1 UNK         1 GROUP             0       ****    0 ROOT    
