@<TRIPOS>MOLECULE
3R8
117   119    1
SMALL
USER_CHARGES


@<TRIPOS>ATOM
      1 CA         17.9487  -23.9140  -45.4240 C.3       0 UNK        -0.2013 
      2 C          16.9631  -23.4488  -44.3582 C.2       0 UNK         0.4866 
      3 O          16.6478  -22.2612  -44.3070 O.2       0 UNK        -0.5176 
      4 N          16.4381  -24.3299  -43.4967 N.am      1 UNK        -0.4884 
      5 CA         16.7397  -25.7641  -43.3802 C.3       1 UNK         0.0853 
      6 C6         15.5207  -26.5319  -42.7954 C.3       10 UNK        -0.0849 
      7 S7         14.2282  -26.7449  -44.0631 S.3       10 UNK        -0.2776 
      8 C8         14.3472  -28.5338  -44.4243 C.3       10 UNK         0.0316 
      9 C9         15.7483  -28.9940  -44.8254 C.ar      10 UNK        -0.0863 
     10 C10        16.3218  -30.1104  -44.2068 C.ar      10 UNK        -0.1009 
     11 C11        17.5865  -30.5681  -44.5910 C.ar      10 UNK        -0.0712 
     12 C12        18.2903  -29.8865  -45.5879 C.ar      10 UNK        -0.0894 
     13 C13        17.7438  -28.7498  -46.1921 C.ar      10 UNK        -0.0745 
     14 C14        16.4622  -28.3280  -45.8268 C.ar      10 UNK        -0.0972 
     15 C15        18.5228  -27.9783  -47.2480 C.3       10 UNK         0.0209 
     16 S16        19.7058  -26.8082  -46.4985 S.3       10 UNK        -0.2568 
     17 C17        21.1647  -27.8707  -46.2330 C.3       10 UNK        -0.0983 
     18 CA         21.7012  -27.9074  -44.7740 C.3       3 UNK         0.0876 
     19 N          20.6433  -28.0468  -43.7717 N.am      3 UNK        -0.4424 
     20 C          20.7808  -27.7303  -42.4770 C.2       2 UNK         0.4918 
     21 O          21.8411  -27.3512  -41.9763 O.2       2 UNK        -0.4875 
     22 CA         19.5031  -27.8272  -41.6188 C.3       2 UNK         0.0481 
     23 CB         19.6388  -27.2051  -40.2130 C.3       2 UNK        -0.1831 
     24 N          18.3271  -27.3057  -42.3257 N.am      2 UNK        -0.4498 
     25 C          18.0401  -26.0197  -42.5853 C.2       1 UNK         0.5027 
     26 O          18.7499  -25.0734  -42.2365 O.2       1 UNK        -0.4969 
     27 C          22.7619  -29.0204  -44.6730 C.2       3 UNK         0.5005 
     28 O          23.9586  -28.7316  -44.7249 O.2       3 UNK        -0.5279 
     29 N          22.2914  -30.2763  -44.6258 N.am      4 UNK        -0.4463 
     30 CA         23.0329  -31.4628  -45.0706 C.3       4 UNK         0.0283 
     31 CB         22.0839  -32.6700  -45.1413 C.3       4 UNK        -0.1875 
     32 C          24.3067  -31.8014  -44.2807 C.2       4 UNK         0.4949 
     33 O          25.2174  -32.3982  -44.8561 O.2       4 UNK        -0.5039 
     34 N          24.3642  -31.4100  -43.0046 N.am      5 UNK        -0.4663 
     35 CA         25.5347  -31.5590  -42.1397 C.3       5 UNK         0.0242 
     36 CB         25.2533  -32.6420  -41.0805 C.3       5 UNK        -0.1982 
     37 C          25.9654  -30.2110  -41.5318 C.2       5 UNK         0.5017 
     38 O          26.6641  -30.2193  -40.5185 O.2       5 UNK        -0.5012 
     39 N          25.5788  -29.0954  -42.1779 N.am      6 UNK        -0.4439 
     40 CA         25.9081  -27.6978  -41.8618 C.3       6 UNK         0.0297 
     41 CB         27.4139  -27.4319  -42.0675 C.3       6 UNK        -0.2006 
     42 C          25.4299  -27.2720  -40.4609 C.2       6 UNK         0.4892 
     43 O          26.1755  -27.4020  -39.4885 O.2       6 UNK        -0.5089 
     44 N          24.1850  -26.7780  -40.3969 N.am      7 UNK        -0.4243 
     45 CA         23.4070  -26.4748  -39.1858 C.3       7 UNK         0.0196 
     46 CB         24.1127  -25.4583  -38.2617 C.3       7 UNK        -0.2007 
     47 C          22.9531  -27.7576  -38.4626 C.2       7 UNK         0.5020 
     48 O          22.7718  -27.7578  -37.2444 O.2       7 UNK        -0.5147 
     49 N          22.7472  -28.8179  -39.2492 N.am      8 UNK        -0.4734 
     50 CA         22.2655  -30.1427  -38.8817 C.3       8 UNK         0.0238 
     51 CB         23.3245  -30.8818  -38.0387 C.3       8 UNK        -0.1912 
     52 C          21.9738  -30.8948  -40.1880 C.2       8 UNK         0.5038 
     53 O          22.3955  -30.4395  -41.2557 O.2       8 UNK        -0.5046 
     54 N          21.3015  -32.0436  -40.0818 N.am      9 UNK        -0.4200 
     55 CA         21.1113  -33.0153  -41.1676 C.3       9 UNK         0.0839 
     56 C          21.3685  -34.4460  -40.6320 C.2       9 UNK         0.5513 
     57 N          21.7844  -35.3646  -41.4925 N.am      9 UNK        -0.7519 
     58 O          21.1699  -34.7379  -39.4538 O.2       9 UNK        -0.4960 
     59 C59        19.7098  -32.9161  -41.8328 C.3       10 UNK        -0.0876 
     60 S60        19.4444  -31.3421  -42.7120 S.3       10 UNK        -0.2414 
     61 C61        18.1874  -31.8045  -43.9371 C.3       10 UNK         0.0169 
     62 H62        18.8354  -24.3522  -44.9676 H         1 UNK         0.0903 
     63 H63        17.4890  -24.6465  -46.0868 H         1 UNK         0.0903 
     64 H64        18.2754  -23.0743  -46.0369 H         1 UNK         0.0903 
     65 H65        15.8011  -23.9770  -42.7973 H         1 UNK         0.3096 
     66 H66        16.9438  -26.1535  -44.3764 H         1 UNK         0.1121 
     67 H67        15.7775  -27.5195  -42.4114 H         1 UNK         0.0849 
     68 H68        15.0975  -25.9959  -41.9440 H         1 UNK         0.0849 
     69 H69        13.9960  -29.0856  -43.5508 H         1 UNK         0.0865 
     70 H70        13.6562  -28.7745  -45.2332 H         1 UNK         0.0865 
     71 H71        15.7761  -30.6383  -43.4362 H         1 UNK         0.1346 
     72 H72        19.2636  -30.2452  -45.8893 H         1 UNK         0.1412 
     73 H73        16.0225  -27.4666  -46.3117 H         1 UNK         0.1426 
     74 H74        17.8339  -27.4115  -47.8764 H         1 UNK         0.0716 
     75 H75        19.0383  -28.6654  -47.9206 H         1 UNK         0.0716 
     76 H76        21.9509  -27.5085  -46.8982 H         1 UNK         0.0695 
     77 H77        20.9320  -28.8738  -46.5917 H         1 UNK         0.0695 
     78 H78        22.2061  -26.9571  -44.5851 H         1 UNK         0.0983 
     79 H79        19.7338  -28.3192  -44.1133 H         1 UNK         0.3095 
     80 H80        19.3095  -28.8856  -41.4628 H         1 UNK         0.0454 
     81 H81        20.2956  -27.8057  -39.5895 H         1 UNK         0.0851 
     82 H82        18.6774  -27.1593  -39.7020 H         1 UNK         0.0851 
     83 H83        20.0490  -26.1956  -40.2468 H         1 UNK         0.0851 
     84 H84        17.6903  -28.0122  -42.6689 H         1 UNK         0.2976 
     85 H85        21.3049  -30.4051  -44.4547 H         1 UNK         0.3116 
     86 H86        23.3605  -31.2537  -46.0913 H         1 UNK         0.0646 
     87 H87        21.2623  -32.4895  -45.8345 H         1 UNK         0.0847 
     88 H88        21.6543  -32.9085  -44.1713 H         1 UNK         0.0847 
     89 H89        22.6086  -33.5600  -45.4918 H         1 UNK         0.0847 
     90 H90        23.5589  -30.9442  -42.5859 H         1 UNK         0.3040 
     91 H91        26.3947  -31.8908  -42.7252 H         1 UNK         0.1015 
     92 H92        26.1238  -32.8108  -40.4456 H         1 UNK         0.0786 
     93 H93        25.0080  -33.5953  -41.5489 H         1 UNK         0.0786 
     94 H94        24.4236  -32.3697  -40.4319 H         1 UNK         0.0786 
     95 H95        25.0066  -29.2162  -43.0090 H         1 UNK         0.3172 
     96 H96        25.3718  -27.0884  -42.5914 H         1 UNK         0.0595 
     97 H97        27.6506  -26.3828  -41.8861 H         1 UNK         0.0839 
     98 H98        27.7210  -27.6624  -43.0876 H         1 UNK         0.0839 
     99 H99        28.0309  -28.0235  -41.3904 H         1 UNK         0.0839 
    100 H100       23.6324  -26.7640  -41.2496 H         1 UNK         0.2998 
    101 H101       22.4921  -25.9986  -39.5408 H         1 UNK         0.0822 
    102 H102       24.4515  -24.5838  -38.8170 H         1 UNK         0.0787 
    103 H103       23.4330  -25.1059  -37.4851 H         1 UNK         0.0787 
    104 H104       24.9753  -25.8935  -37.7569 H         1 UNK         0.0787 
    105 H105       22.8762  -28.7121  -40.2510 H         1 UNK         0.3055 
    106 H106       21.3355  -30.0421  -38.3185 H         1 UNK         0.1106 
    107 H107       23.4687  -30.4010  -37.0713 H         1 UNK         0.0828 
    108 H108       23.0316  -31.9133  -37.8396 H         1 UNK         0.0828 
    109 H109       24.2922  -30.9048  -38.5414 H         1 UNK         0.0828 
    110 H110       21.0269  -32.3814  -39.1693 H         1 UNK         0.2931 
    111 H111       21.8741  -32.8348  -41.9263 H         1 UNK         0.0412 
    112 H112       21.9458  -35.1425  -42.4622 H         1 UNK         0.3472 
    113 H113       21.9466  -36.3035  -41.1626 H         1 UNK         0.3472 
    114 H114       19.5743  -33.7282  -42.5498 H         1 UNK         0.0970 
    115 H115       18.9221  -33.0342  -41.0866 H         1 UNK         0.0970 
    116 H116       17.4086  -32.3939  -43.4507 H         1 UNK         0.0612 
    117 H117       18.6380  -32.4468  -44.6951 H         1 UNK         0.0612 
@<TRIPOS>BOND
     1    1    2 1    
     2    1   62 1    
     3    1   63 1    
     4    1   64 1    
     5    2    3 2    
     6    2    4 am   BACKBONE|DICT|INTERRES
     7    4    5 1    
     8    4   65 1    
     9    5    6 1    
    10    5   25 1    
    11    5   66 1    
    12    6    7 1    
    13    6   67 1    
    14    6   68 1    
    15    7    8 1    
    16    8    9 1    
    17    8   69 1    
    18    8   70 1    
    19    9   10 ar   
    20    9   14 ar   
    21   10   11 ar   
    22   10   71 1    
    23   11   12 ar   
    24   11   61 1    
    25   12   13 ar   
    26   12   72 1    
    27   13   14 ar   
    28   13   15 1    
    29   14   73 1    
    30   15   16 1    
    31   15   74 1    
    32   15   75 1    
    33   16   17 1    
    34   17   18 1    
    35   17   76 1    
    36   17   77 1    
    37   18   19 1    
    38   18   27 1    
    39   18   78 1    
    40   19   20 am   BACKBONE|DICT|INTERRES
    41   19   79 1    
    42   20   21 2    
    43   20   22 1    
    44   22   23 1    
    45   22   24 1    
    46   22   80 1    
    47   23   81 1    
    48   23   82 1    
    49   23   83 1    
    50   24   25 am   BACKBONE|DICT|INTERRES
    51   24   84 1    
    52   25   26 2    
    53   27   28 2    
    54   27   29 am   BACKBONE|DICT|INTERRES
    55   29   30 1    
    56   29   85 1    
    57   30   31 1    
    58   30   32 1    
    59   30   86 1    
    60   31   87 1    
    61   31   88 1    
    62   31   89 1    
    63   32   33 2    
    64   32   34 am   BACKBONE|DICT|INTERRES
    65   34   35 1    
    66   34   90 1    
    67   35   36 1    
    68   35   37 1    
    69   35   91 1    
    70   36   92 1    
    71   36   93 1    
    72   36   94 1    
    73   37   38 2    
    74   37   39 am   BACKBONE|DICT|INTERRES
    75   39   40 1    
    76   39   95 1    
    77   40   41 1    
    78   40   42 1    
    79   40   96 1    
    80   41   97 1    
    81   41   98 1    
    82   41   99 1    
    83   42   43 2    
    84   42   44 am   BACKBONE|DICT|INTERRES
    85   44   45 1    
    86   44  100 1    
    87   45   46 1    
    88   45   47 1    
    89   45  101 1    
    90   46  102 1    
    91   46  103 1    
    92   46  104 1    
    93   47   48 2    
    94   47   49 am   BACKBONE|DICT|INTERRES
    95   49   50 1    
    96   49  105 1    
    97   50   51 1    
    98   50   52 1    
    99   50  106 1    
   100   51  107 1    
   101   51  108 1    
   102   51  109 1    
   103   52   53 2    
   104   52   54 am   BACKBONE|DICT|INTERRES
   105   54   55 1    
   106   54  110 1    
   107   55   56 1    
   108   55   59 1    
   109   55  111 1    
   110   56   57 am   BACKBONE|DICT|INTERRES
   111   56   58 2    
   112   57  112 1    
   113   57  113 1    
   114   59   60 1    
   115   59  114 1    
   116   59  115 1    
   117   60   61 1    
   118   61  116 1    
   119   61  117 1    
@<TRIPOS>SUBSTRUCTURE
     1 UNK         1 GROUP             0       ****    0 ROOT    
