@<TRIPOS>MOLECULE
3R8
117   119    1
SMALL
USER_CHARGES


@<TRIPOS>ATOM
      1 CA         14.7668  -22.6869  -43.2486 C.3       0 UNK        -0.2013 
      2 C          15.8056  -23.6700  -43.7660 C.2       0 UNK         0.4866 
      3 O          16.2684  -23.5349  -44.8997 O.2       0 UNK        -0.5176 
      4 N          16.1883  -24.6550  -42.9436 N.am      1 UNK        -0.4884 
      5 CA         17.1577  -25.7116  -43.2617 C.3       1 UNK         0.0853 
      6 C6         16.9544  -26.9631  -42.3684 C.3       10 UNK        -0.0849 
      7 S7         15.3708  -27.8014  -42.7057 S.3       10 UNK        -0.2776 
      8 C8         15.8735  -29.5620  -42.6801 C.3       10 UNK         0.0316 
      9 C9         16.8466  -30.0024  -43.7789 C.ar      10 UNK        -0.0863 
     10 C10        17.5929  -31.1700  -43.5840 C.ar      10 UNK        -0.1009 
     11 C11        18.4650  -31.6402  -44.5712 C.ar      10 UNK        -0.0712 
     12 C12        18.6100  -30.9166  -45.7590 C.ar      10 UNK        -0.0894 
     13 C13        17.8602  -29.7576  -45.9807 C.ar      10 UNK        -0.0745 
     14 C14        16.9770  -29.3123  -44.9911 C.ar      10 UNK        -0.0972 
     15 C15        17.9310  -29.0387  -47.3226 C.3       10 UNK         0.0209 
     16 S16        18.3381  -27.2695  -47.1608 S.3       10 UNK        -0.2568 
     17 C17        20.1145  -27.2014  -47.6041 C.3       10 UNK        -0.0983 
     18 CA         21.0498  -26.7813  -46.4378 C.3       3 UNK         0.0876 
     19 N          20.5039  -25.6229  -45.7332 N.am      3 UNK        -0.4424 
     20 C          21.1650  -24.7174  -45.0047 C.2       2 UNK         0.4918 
     21 O          22.3883  -24.6923  -44.8788 O.2       2 UNK        -0.4875 
     22 CA         20.2892  -23.6818  -44.2687 C.3       2 UNK         0.0481 
     23 CB         20.2229  -22.3689  -45.0638 C.3       2 UNK        -0.1831 
     24 N          18.9240  -24.1692  -44.0225 N.am      2 UNK        -0.4498 
     25 C          18.6140  -25.1944  -43.2168 C.2       1 UNK         0.5027 
     26 O          19.4461  -25.7471  -42.4975 O.2       1 UNK        -0.4969 
     27 C          21.3932  -27.9744  -45.5155 C.2       3 UNK         0.5005 
     28 O          21.9036  -28.9748  -46.0236 O.2       3 UNK        -0.5279 
     29 N          21.1230  -27.8774  -44.2023 N.am      4 UNK        -0.4463 
     30 CA         21.4349  -28.9121  -43.2137 C.3       4 UNK         0.0283 
     31 CB         20.8589  -28.5204  -41.8430 C.3       4 UNK        -0.1875 
     32 C          22.9467  -29.1667  -43.1010 C.2       4 UNK         0.4949 
     33 O          23.6888  -28.2468  -42.7493 O.2       4 UNK        -0.5039 
     34 N          23.3647  -30.4071  -43.3863 N.am      5 UNK        -0.4663 
     35 CA         24.7540  -30.8730  -43.3703 C.3       5 UNK         0.0242 
     36 CB         24.7923  -32.3511  -43.7934 C.3       5 UNK        -0.1982 
     37 C          25.4064  -30.6749  -41.9931 C.2       5 UNK         0.5017 
     38 O          25.0252  -31.3568  -41.0409 O.2       5 UNK        -0.5012 
     39 N          26.3189  -29.6950  -41.9027 N.am      6 UNK        -0.4439 
     40 CA         27.0093  -29.2347  -40.6876 C.3       6 UNK         0.0297 
     41 CB         28.0139  -30.3039  -40.2074 C.3       6 UNK        -0.2006 
     42 C          26.0577  -28.7787  -39.5576 C.2       6 UNK         0.4892 
     43 O          26.4412  -28.8295  -38.3879 O.2       6 UNK        -0.5089 
     44 N          24.8301  -28.3725  -39.9252 N.am      7 UNK        -0.4243 
     45 CA         23.6918  -28.0717  -39.0464 C.3       7 UNK         0.0196 
     46 CB         23.9675  -26.8140  -38.1950 C.3       7 UNK        -0.2007 
     47 C          23.2208  -29.2755  -38.1972 C.2       7 UNK         0.5020 
     48 O          22.5808  -29.0738  -37.1644 O.2       7 UNK        -0.5147 
     49 N          23.5235  -30.5032  -38.6404 N.am      8 UNK        -0.4734 
     50 CA         23.2026  -31.7573  -37.9578 C.3       8 UNK         0.0238 
     51 CB         24.3804  -32.1620  -37.0498 C.3       8 UNK        -0.1912 
     52 C          22.8504  -32.8235  -39.0060 C.2       8 UNK         0.5038 
     53 O          23.4407  -33.9057  -39.0168 O.2       8 UNK        -0.5046 
     54 N          21.9182  -32.4646  -39.8975 N.am      9 UNK        -0.4200 
     55 CA         21.4630  -33.2746  -41.0357 C.3       9 UNK         0.0839 
     56 C          20.7876  -34.6122  -40.6233 C.2       9 UNK         0.5513 
     57 N          20.8861  -35.6374  -41.4579 N.am      9 UNK        -0.7519 
     58 O          20.1405  -34.7126  -39.5827 O.2       9 UNK        -0.4960 
     59 C59        20.5473  -32.4363  -41.9686 C.3       10 UNK        -0.0876 
     60 S60        20.8763  -32.7541  -43.7336 S.3       10 UNK        -0.2414 
     61 C61        19.1950  -32.9663  -44.3910 C.3       10 UNK         0.0169 
     62 H62        15.1755  -21.6768  -43.2451 H         1 UNK         0.0903 
     63 H63        13.8883  -22.6970  -43.8931 H         1 UNK         0.0903 
     64 H64        14.4464  -22.9274  -42.2351 H         1 UNK         0.0903 
     65 H65        15.7824  -24.7087  -42.0198 H         1 UNK         0.3096 
     66 H66        16.9899  -26.0240  -44.2955 H         1 UNK         0.1121 
     67 H67        17.7542  -27.6832  -42.5416 H         1 UNK         0.0849 
     68 H68        17.0049  -26.7022  -41.3098 H         1 UNK         0.0849 
     69 H69        16.3048  -29.7768  -41.7009 H         1 UNK         0.0865 
     70 H70        14.9740  -30.1741  -42.7580 H         1 UNK         0.0865 
     71 H71        17.4703  -31.7335  -42.6693 H         1 UNK         0.1346 
     72 H72        19.2782  -31.2816  -46.5272 H         1 UNK         0.1412 
     73 H73        16.3794  -28.4329  -45.1838 H         1 UNK         0.1426 
     74 H74        16.9539  -29.1189  -47.8009 H         1 UNK         0.0716 
     75 H75        18.6331  -29.5296  -47.9976 H         1 UNK         0.0716 
     76 H76        20.2047  -26.4634  -48.4025 H         1 UNK         0.0695 
     77 H77        20.4358  -28.1410  -48.0566 H         1 UNK         0.0695 
     78 H78        22.0020  -26.4760  -46.8774 H         1 UNK         0.0983 
     79 H79        19.4991  -25.5398  -45.7894 H         1 UNK         0.3095 
     80 H80        20.7568  -23.4767  -43.3036 H         1 UNK         0.0454 
     81 H81        21.2225  -21.9699  -45.2422 H         1 UNK         0.0851 
     82 H82        19.6628  -21.6057  -44.5234 H         1 UNK         0.0851 
     83 H83        19.7487  -22.5080  -46.0362 H         1 UNK         0.0851 
     84 H84        18.1669  -23.7505  -44.5575 H         1 UNK         0.2976 
     85 H85        20.7247  -27.0192  -43.8442 H         1 UNK         0.3116 
     86 H86        20.9403  -29.8255  -43.5454 H         1 UNK         0.0646 
     87 H87        21.1952  -27.5298  -41.5351 H         1 UNK         0.0847 
     88 H88        19.7706  -28.5178  -41.8573 H         1 UNK         0.0847 
     89 H89        21.1679  -29.2179  -41.0645 H         1 UNK         0.0847 
     90 H90        22.6725  -31.0922  -43.6602 H         1 UNK         0.3040 
     91 H91        25.3066  -30.2938  -44.1131 H         1 UNK         0.1015 
     92 H92        25.8164  -32.7266  -43.8064 H         1 UNK         0.0786 
     93 H93        24.3839  -32.4889  -44.7948 H         1 UNK         0.0786 
     94 H94        24.2231  -32.9827  -43.1105 H         1 UNK         0.0786 
     95 H95        26.5147  -29.1573  -42.7366 H         1 UNK         0.3172 
     96 H96        27.5786  -28.3501  -40.9765 H         1 UNK         0.0595 
     97 H97        27.5070  -31.1963  -39.8382 H         1 UNK         0.0839 
     98 H98        28.6349  -29.9242  -39.3951 H         1 UNK         0.0839 
     99 H99        28.6860  -30.6076  -41.0099 H         1 UNK         0.0839 
    100 H100       24.6208  -28.3544  -40.9194 H         1 UNK         0.2998 
    101 H101       22.8607  -27.8351  -39.7107 H         1 UNK         0.0822 
    102 H102       23.0691  -26.4945  -37.6656 H         1 UNK         0.0787 
    103 H103       24.2895  -25.9777  -38.8154 H         1 UNK         0.0787 
    104 H104       24.7384  -26.9926  -37.4448 H         1 UNK         0.0787 
    105 H105       24.0505  -30.6088  -39.5052 H         1 UNK         0.3055 
    106 H106       22.3150  -31.6282  -37.3342 H         1 UNK         0.1106 
    107 H107       24.5804  -31.3994  -36.2970 H         1 UNK         0.0828 
    108 H108       24.1677  -33.0919  -36.5208 H         1 UNK         0.0828 
    109 H109       25.2952  -32.3112  -37.6250 H         1 UNK         0.0828 
    110 H110       21.4754  -31.5669  -39.7794 H         1 UNK         0.2931 
    111 H111       22.3767  -33.5285  -41.5771 H         1 UNK         0.0412 
    112 H112       20.4426  -36.5110  -41.2205 H         1 UNK         0.3472 
    113 H113       21.3891  -35.5488  -42.3275 H         1 UNK         0.3472 
    114 H114       19.4929  -32.5940  -41.7359 H         1 UNK         0.0970 
    115 H115       20.7104  -31.3729  -41.8135 H         1 UNK         0.0970 
    116 H116       19.2647  -33.4741  -45.3541 H         1 UNK         0.0612 
    117 H117       18.6271  -33.6351  -43.7422 H         1 UNK         0.0612 
@<TRIPOS>BOND
     1    1    2 1    
     2    1   62 1    
     3    1   63 1    
     4    1   64 1    
     5    2    3 2    
     6    2    4 am   BACKBONE|DICT|INTERRES
     7    4    5 1    
     8    4   65 1    
     9    5    6 1    
    10    5   25 1    
    11    5   66 1    
    12    6    7 1    
    13    6   67 1    
    14    6   68 1    
    15    7    8 1    
    16    8    9 1    
    17    8   69 1    
    18    8   70 1    
    19    9   10 ar   
    20    9   14 ar   
    21   10   11 ar   
    22   10   71 1    
    23   11   12 ar   
    24   11   61 1    
    25   12   13 ar   
    26   12   72 1    
    27   13   14 ar   
    28   13   15 1    
    29   14   73 1    
    30   15   16 1    
    31   15   74 1    
    32   15   75 1    
    33   16   17 1    
    34   17   18 1    
    35   17   76 1    
    36   17   77 1    
    37   18   19 1    
    38   18   27 1    
    39   18   78 1    
    40   19   20 am   BACKBONE|DICT|INTERRES
    41   19   79 1    
    42   20   21 2    
    43   20   22 1    
    44   22   23 1    
    45   22   24 1    
    46   22   80 1    
    47   23   81 1    
    48   23   82 1    
    49   23   83 1    
    50   24   25 am   BACKBONE|DICT|INTERRES
    51   24   84 1    
    52   25   26 2    
    53   27   28 2    
    54   27   29 am   BACKBONE|DICT|INTERRES
    55   29   30 1    
    56   29   85 1    
    57   30   31 1    
    58   30   32 1    
    59   30   86 1    
    60   31   87 1    
    61   31   88 1    
    62   31   89 1    
    63   32   33 2    
    64   32   34 am   BACKBONE|DICT|INTERRES
    65   34   35 1    
    66   34   90 1    
    67   35   36 1    
    68   35   37 1    
    69   35   91 1    
    70   36   92 1    
    71   36   93 1    
    72   36   94 1    
    73   37   38 2    
    74   37   39 am   BACKBONE|DICT|INTERRES
    75   39   40 1    
    76   39   95 1    
    77   40   41 1    
    78   40   42 1    
    79   40   96 1    
    80   41   97 1    
    81   41   98 1    
    82   41   99 1    
    83   42   43 2    
    84   42   44 am   BACKBONE|DICT|INTERRES
    85   44   45 1    
    86   44  100 1    
    87   45   46 1    
    88   45   47 1    
    89   45  101 1    
    90   46  102 1    
    91   46  103 1    
    92   46  104 1    
    93   47   48 2    
    94   47   49 am   BACKBONE|DICT|INTERRES
    95   49   50 1    
    96   49  105 1    
    97   50   51 1    
    98   50   52 1    
    99   50  106 1    
   100   51  107 1    
   101   51  108 1    
   102   51  109 1    
   103   52   53 2    
   104   52   54 am   BACKBONE|DICT|INTERRES
   105   54   55 1    
   106   54  110 1    
   107   55   56 1    
   108   55   59 1    
   109   55  111 1    
   110   56   57 am   BACKBONE|DICT|INTERRES
   111   56   58 2    
   112   57  112 1    
   113   57  113 1    
   114   59   60 1    
   115   59  114 1    
   116   59  115 1    
   117   60   61 1    
   118   61  116 1    
   119   61  117 1    
@<TRIPOS>SUBSTRUCTURE
     1 UNK         1 GROUP             0       ****    0 ROOT    
