@<TRIPOS>MOLECULE
3R8
117   119    1
SMALL
USER_CHARGES


@<TRIPOS>ATOM
      1 CA         16.3468  -23.4120  -48.2092 C.3       0 UNK        -0.2013 
      2 C          17.1287  -24.4132  -47.3730 C.2       0 UNK         0.4866 
      3 O          18.1681  -24.9034  -47.8141 O.2       0 UNK        -0.5176 
      4 N          16.6542  -24.7073  -46.1562 N.am      1 UNK        -0.4884 
      5 CA         17.2176  -25.6871  -45.2132 C.3       1 UNK         0.0853 
      6 C6         16.1353  -26.1997  -44.2249 C.3       10 UNK        -0.0849 
      7 S7         14.8415  -27.1483  -45.1003 S.3       10 UNK        -0.2776 
      8 C8         14.7828  -28.7202  -44.1669 C.3       10 UNK         0.0316 
      9 C9         16.1325  -29.4187  -44.0055 C.ar      10 UNK        -0.0863 
     10 C10        16.4618  -29.9997  -42.7769 C.ar      10 UNK        -0.1009 
     11 C11        17.6902  -30.6419  -42.5903 C.ar      10 UNK        -0.0712 
     12 C12        18.6063  -30.6796  -43.6485 C.ar      10 UNK        -0.0894 
     13 C13        18.2821  -30.1274  -44.8903 C.ar      10 UNK        -0.0745 
     14 C14        17.0407  -29.5084  -45.0656 C.ar      10 UNK        -0.0972 
     15 C15        19.2493  -30.2333  -46.0596 C.3       10 UNK         0.0209 
     16 S16        19.9376  -28.6113  -46.5141 S.3       10 UNK        -0.2568 
     17 C17        21.6672  -28.6861  -45.9117 C.3       10 UNK        -0.0983 
     18 CA         22.0197  -27.6509  -44.8081 C.3       3 UNK         0.0876 
     19 N          21.3789  -26.3609  -45.0533 N.am      3 UNK        -0.4424 
     20 C          21.6710  -25.1897  -44.4770 C.2       2 UNK         0.4918 
     21 O          22.6384  -25.0082  -43.7390 O.2       2 UNK        -0.4875 
     22 CA         20.6965  -24.0299  -44.7659 C.3       2 UNK         0.0481 
     23 CB         21.2919  -23.0732  -45.8104 C.3       2 UNK        -0.1831 
     24 N          19.3771  -24.4847  -45.2269 N.am      2 UNK        -0.4498 
     25 C          18.4914  -25.1767  -44.4952 C.2       1 UNK         0.5027 
     26 O          18.6824  -25.4486  -43.3101 O.2       1 UNK        -0.4969 
     27 C          21.7666  -28.2055  -43.3897 C.2       3 UNK         0.5005 
     28 O          22.5655  -29.0232  -42.9301 O.2       3 UNK        -0.5279 
     29 N          20.7058  -27.7574  -42.6983 N.am      4 UNK        -0.4463 
     30 CA         20.4286  -28.1305  -41.3093 C.3       4 UNK         0.0283 
     31 CB         19.0459  -27.6077  -40.8919 C.3       4 UNK        -0.1875 
     32 C          21.5212  -27.5978  -40.3694 C.2       4 UNK         0.4949 
     33 O          21.9160  -26.4379  -40.4943 O.2       4 UNK        -0.5039 
     34 N          22.0215  -28.4710  -39.4857 N.am      5 UNK        -0.4663 
     35 CA         23.1414  -28.2836  -38.5466 C.3       5 UNK         0.0242 
     36 CB         22.8895  -27.1075  -37.5815 C.3       5 UNK        -0.1982 
     37 C          24.5329  -28.1826  -39.2050 C.2       5 UNK         0.5017 
     38 O          25.5198  -28.5198  -38.5498 O.2       5 UNK        -0.5012 
     39 N          24.6026  -27.7479  -40.4705 N.am      6 UNK        -0.4439 
     40 CA         25.8091  -27.7672  -41.2987 C.3       6 UNK         0.0297 
     41 CB         25.6132  -26.8593  -42.5234 C.3       6 UNK        -0.2006 
     42 C          26.1747  -29.2000  -41.7219 C.2       6 UNK         0.4892 
     43 O          27.3366  -29.5907  -41.5997 O.2       6 UNK        -0.5089 
     44 N          25.1720  -29.9579  -42.1843 N.am      7 UNK        -0.4243 
     45 CA         25.2566  -31.3936  -42.4433 C.3       7 UNK         0.0196 
     46 CB         24.3001  -31.7391  -43.6000 C.3       7 UNK        -0.2007 
     47 C          24.8878  -32.1871  -41.1784 C.2       7 UNK         0.5020 
     48 O          24.4221  -31.6129  -40.1901 O.2       7 UNK        -0.5147 
     49 N          25.0374  -33.5176  -41.2555 N.am      8 UNK        -0.4734 
     50 CA         24.7026  -34.4851  -40.1965 C.3       8 UNK         0.0238 
     51 CB         25.1223  -35.8922  -40.6535 C.3       8 UNK        -0.1912 
     52 C          23.2247  -34.4820  -39.7498 C.2       8 UNK         0.5038 
     53 O          22.9189  -35.0056  -38.6778 O.2       8 UNK        -0.5046 
     54 N          22.3497  -33.8753  -40.5620 N.am      9 UNK        -0.4200 
     55 CA         20.9680  -33.5118  -40.2224 C.3       9 UNK         0.0839 
     56 C          20.8518  -32.5047  -39.0359 C.2       9 UNK         0.5513 
     57 N          21.8635  -31.6904  -38.7526 N.am      9 UNK        -0.7519 
     58 O          19.8369  -32.4762  -38.3460 O.2       9 UNK        -0.4960 
     59 C59        20.2383  -32.9940  -41.4892 C.3       10 UNK        -0.0876 
     60 S60        18.4171  -33.0500  -41.3668 S.3       10 UNK        -0.2414 
     61 C61        18.0088  -31.2779  -41.2394 C.3       10 UNK         0.0169 
     62 H62        16.0355  -23.8707  -49.1473 H         1 UNK         0.0903 
     63 H63        15.4549  -23.0574  -47.6930 H         1 UNK         0.0903 
     64 H64        16.9703  -22.5492  -48.4420 H         1 UNK         0.0903 
     65 H65        15.8053  -24.2570  -45.8436 H         1 UNK         0.3096 
     66 H66        17.5545  -26.5488  -45.7945 H         1 UNK         0.1121 
     67 H67        15.6701  -25.3670  -43.6947 H         1 UNK         0.0849 
     68 H68        16.5743  -26.8343  -43.4536 H         1 UNK         0.0849 
     69 H69        14.3432  -28.5140  -43.1897 H         1 UNK         0.0865 
     70 H70        14.0971  -29.4015  -44.6722 H         1 UNK         0.0865 
     71 H71        15.7554  -29.9531  -41.9591 H         1 UNK         0.1346 
     72 H72        19.5634  -31.1610  -43.5215 H         1 UNK         0.1412 
     73 H73        16.7877  -29.0865  -46.0287 H         1 UNK         0.1426 
     74 H74        18.7133  -30.6327  -46.9217 H         1 UNK         0.0716 
     75 H75        20.0461  -30.9473  -45.8484 H         1 UNK         0.0716 
     76 H76        22.2975  -28.4896  -46.7803 H         1 UNK         0.0695 
     77 H77        21.9274  -29.7008  -45.6043 H         1 UNK         0.0695 
     78 H78        23.0967  -27.4795  -44.8621 H         1 UNK         0.0983 
     79 H79        20.5809  -26.3996  -45.6713 H         1 UNK         0.3095 
     80 H80        20.5567  -23.4786  -43.8339 H         1 UNK         0.0454 
     81 H81        21.4370  -23.5654  -46.7729 H         1 UNK         0.0851 
     82 H82        22.2634  -22.6971  -45.4865 H         1 UNK         0.0851 
     83 H83        20.6481  -22.2080  -45.9690 H         1 UNK         0.0851 
     84 H84        19.1555  -24.3521  -46.2095 H         1 UNK         0.2976 
     85 H85        20.1174  -27.0365  -43.0983 H         1 UNK         0.3116 
     86 H86        20.4201  -29.2202  -41.2619 H         1 UNK         0.0646 
     87 H87        18.2697  -27.9318  -41.5848 H         1 UNK         0.0847 
     88 H88        19.0232  -26.5179  -40.8536 H         1 UNK         0.0847 
     89 H89        18.7737  -27.9738  -39.9014 H         1 UNK         0.0847 
     90 H90        21.6531  -29.4132  -39.5082 H         1 UNK         0.3040 
     91 H91        23.1703  -29.1924  -37.9437 H         1 UNK         0.1015 
     92 H92        22.9089  -26.1449  -38.0929 H         1 UNK         0.0786 
     93 H93        23.6558  -27.0730  -36.8060 H         1 UNK         0.0786 
     94 H94        21.9262  -27.2037  -37.0807 H         1 UNK         0.0786 
     95 H95        23.7412  -27.4394  -40.9050 H         1 UNK         0.3172 
     96 H96        26.6366  -27.3662  -40.7094 H         1 UNK         0.0595 
     97 H97        24.7892  -27.1965  -43.1515 H         1 UNK         0.0839 
     98 H98        26.5104  -26.8425  -43.1434 H         1 UNK         0.0839 
     99 H99        25.4043  -25.8312  -42.2266 H         1 UNK         0.0839 
    100 H100       24.2399  -29.5552  -42.2516 H         1 UNK         0.2998 
    101 H101       26.2757  -31.6567  -42.7348 H         1 UNK         0.0822 
    102 H102       24.5003  -31.1210  -44.4757 H         1 UNK         0.0787 
    103 H103       24.4086  -32.7785  -43.9111 H         1 UNK         0.0787 
    104 H104       23.2563  -31.5884  -43.3214 H         1 UNK         0.0787 
    105 H105       25.4151  -33.9070  -42.1081 H         1 UNK         0.3055 
    106 H106       25.2922  -34.2195  -39.3162 H         1 UNK         0.1106 
    107 H107       24.5829  -36.2036  -41.5489 H         1 UNK         0.0828 
    108 H108       24.9198  -36.6327  -39.8782 H         1 UNK         0.0828 
    109 H109       26.1899  -35.9392  -40.8690 H         1 UNK         0.0828 
    110 H110       22.7151  -33.4833  -41.4157 H         1 UNK         0.2931 
    111 H111       20.4795  -34.4346  -39.9035 H         1 UNK         0.0412 
    112 H112       21.7907  -31.1096  -37.9335 H         1 UNK         0.3472 
    113 H113       22.7351  -31.7317  -39.2748 H         1 UNK         0.3472 
    114 H114       20.5019  -33.6135  -42.3480 H         1 UNK         0.0970 
    115 H115       20.5837  -31.9888  -41.7347 H         1 UNK         0.0970 
    116 H116       18.8172  -30.7379  -40.7492 H         1 UNK         0.0612 
    117 H117       17.1506  -31.1898  -40.5715 H         1 UNK         0.0612 
@<TRIPOS>BOND
     1    1    2 1    
     2    1   62 1    
     3    1   63 1    
     4    1   64 1    
     5    2    3 2    
     6    2    4 am   BACKBONE|DICT|INTERRES
     7    4    5 1    
     8    4   65 1    
     9    5    6 1    
    10    5   25 1    
    11    5   66 1    
    12    6    7 1    
    13    6   67 1    
    14    6   68 1    
    15    7    8 1    
    16    8    9 1    
    17    8   69 1    
    18    8   70 1    
    19    9   10 ar   
    20    9   14 ar   
    21   10   11 ar   
    22   10   71 1    
    23   11   12 ar   
    24   11   61 1    
    25   12   13 ar   
    26   12   72 1    
    27   13   14 ar   
    28   13   15 1    
    29   14   73 1    
    30   15   16 1    
    31   15   74 1    
    32   15   75 1    
    33   16   17 1    
    34   17   18 1    
    35   17   76 1    
    36   17   77 1    
    37   18   19 1    
    38   18   27 1    
    39   18   78 1    
    40   19   20 am   BACKBONE|DICT|INTERRES
    41   19   79 1    
    42   20   21 2    
    43   20   22 1    
    44   22   23 1    
    45   22   24 1    
    46   22   80 1    
    47   23   81 1    
    48   23   82 1    
    49   23   83 1    
    50   24   25 am   BACKBONE|DICT|INTERRES
    51   24   84 1    
    52   25   26 2    
    53   27   28 2    
    54   27   29 am   BACKBONE|DICT|INTERRES
    55   29   30 1    
    56   29   85 1    
    57   30   31 1    
    58   30   32 1    
    59   30   86 1    
    60   31   87 1    
    61   31   88 1    
    62   31   89 1    
    63   32   33 2    
    64   32   34 am   BACKBONE|DICT|INTERRES
    65   34   35 1    
    66   34   90 1    
    67   35   36 1    
    68   35   37 1    
    69   35   91 1    
    70   36   92 1    
    71   36   93 1    
    72   36   94 1    
    73   37   38 2    
    74   37   39 am   BACKBONE|DICT|INTERRES
    75   39   40 1    
    76   39   95 1    
    77   40   41 1    
    78   40   42 1    
    79   40   96 1    
    80   41   97 1    
    81   41   98 1    
    82   41   99 1    
    83   42   43 2    
    84   42   44 am   BACKBONE|DICT|INTERRES
    85   44   45 1    
    86   44  100 1    
    87   45   46 1    
    88   45   47 1    
    89   45  101 1    
    90   46  102 1    
    91   46  103 1    
    92   46  104 1    
    93   47   48 2    
    94   47   49 am   BACKBONE|DICT|INTERRES
    95   49   50 1    
    96   49  105 1    
    97   50   51 1    
    98   50   52 1    
    99   50  106 1    
   100   51  107 1    
   101   51  108 1    
   102   51  109 1    
   103   52   53 2    
   104   52   54 am   BACKBONE|DICT|INTERRES
   105   54   55 1    
   106   54  110 1    
   107   55   56 1    
   108   55   59 1    
   109   55  111 1    
   110   56   57 am   BACKBONE|DICT|INTERRES
   111   56   58 2    
   112   57  112 1    
   113   57  113 1    
   114   59   60 1    
   115   59  114 1    
   116   59  115 1    
   117   60   61 1    
   118   61  116 1    
   119   61  117 1    
@<TRIPOS>SUBSTRUCTURE
     1 UNK         1 GROUP             0       ****    0 ROOT    
