@<TRIPOS>MOLECULE
3R8
117   119    1
SMALL
USER_CHARGES


@<TRIPOS>ATOM
      1 CA         13.8196  -26.8638  -40.7595 C.3       0 UNK        -0.2013 
      2 C          14.2258  -26.5542  -42.1925 C.2       0 UNK         0.4866 
      3 O          13.7917  -25.5449  -42.7479 O.2       0 UNK        -0.5176 
      4 N          15.0561  -27.4161  -42.7954 N.am      1 UNK        -0.4884 
      5 CA         15.5628  -27.2708  -44.1678 C.3       1 UNK         0.0853 
      6 C6         16.1236  -28.6178  -44.6922 C.3       10 UNK        -0.0849 
      7 S7         16.1154  -28.7519  -46.5146 S.3       10 UNK        -0.2776 
      8 C8         16.3350  -30.5472  -46.7638 C.3       10 UNK         0.0316 
      9 C9         17.5578  -31.0680  -46.0235 C.ar      10 UNK        -0.0863 
     10 C10        17.4025  -31.7510  -44.8135 C.ar      10 UNK        -0.1009 
     11 C11        18.5202  -32.1299  -44.0667 C.ar      10 UNK        -0.0712 
     12 C12        19.7992  -31.8623  -44.5613 C.ar      10 UNK        -0.0894 
     13 C13        19.9685  -31.1859  -45.7715 C.ar      10 UNK        -0.0745 
     14 C14        18.8429  -30.8058  -46.5092 C.ar      10 UNK        -0.0972 
     15 C15        21.3691  -30.8152  -46.2415 C.3       10 UNK         0.0209 
     16 S16        21.6412  -29.0107  -46.2957 S.3       10 UNK        -0.2568 
     17 C17        21.0442  -28.4566  -44.6604 C.3       10 UNK        -0.0983 
     18 CA         21.2141  -26.9227  -44.4764 C.3       3 UNK         0.0876 
     19 N          20.0769  -26.3471  -43.7590 N.am      3 UNK        -0.4424 
     20 C          19.5534  -25.1374  -43.9799 C.2       2 UNK         0.4918 
     21 O          19.9524  -24.3562  -44.8463 O.2       2 UNK        -0.4875 
     22 CA         18.3476  -24.7767  -43.0912 C.3       2 UNK         0.0481 
     23 CB         17.8049  -23.3544  -43.3469 C.3       2 UNK        -0.1831 
     24 N          17.2793  -25.7806  -43.2001 N.am      2 UNK        -0.4498 
     25 C          16.5953  -26.1257  -44.3061 C.2       1 UNK         0.5027 
     26 O          16.7382  -25.5768  -45.3996 O.2       1 UNK        -0.4969 
     27 C          22.5390  -26.5564  -43.7761 C.2       3 UNK         0.5005 
     28 O          22.5361  -25.8958  -42.7319 O.2       3 UNK        -0.5279 
     29 N          23.6555  -26.9983  -44.3698 N.am      4 UNK        -0.4463 
     30 CA         25.0114  -26.8388  -43.8397 C.3       4 UNK         0.0283 
     31 CB         26.0191  -27.3651  -44.8747 C.3       4 UNK        -0.1875 
     32 C          25.1984  -27.5689  -42.4992 C.2       4 UNK         0.4949 
     33 O          24.6141  -28.6343  -42.2976 O.2       4 UNK        -0.5039 
     34 N          26.0546  -27.0078  -41.6345 N.am      5 UNK        -0.4663 
     35 CA         26.3277  -27.4719  -40.2653 C.3       5 UNK         0.0242 
     36 CB         27.2318  -26.4432  -39.5652 C.3       5 UNK        -0.1982 
     37 C          26.9278  -28.8874  -40.1469 C.2       5 UNK         0.5017 
     38 O          26.9529  -29.4384  -39.0457 O.2       5 UNK        -0.5012 
     39 N          27.3879  -29.4555  -41.2697 N.am      6 UNK        -0.4439 
     40 CA         27.7910  -30.8566  -41.3992 C.3       6 UNK         0.0297 
     41 CB         28.5117  -31.0488  -42.7436 C.3       6 UNK        -0.2006 
     42 C          26.6117  -31.8434  -41.2755 C.2       6 UNK         0.4892 
     43 O          26.8459  -33.0051  -40.9390 O.2       6 UNK        -0.5089 
     44 N          25.3834  -31.3786  -41.5440 N.am      7 UNK        -0.4243 
     45 CA         24.1430  -32.1310  -41.3791 C.3       7 UNK         0.0196 
     46 CB         23.3053  -31.9878  -42.6597 C.3       7 UNK        -0.2007 
     47 C          23.3640  -31.5832  -40.1760 C.2       7 UNK         0.5020 
     48 O          23.5332  -30.4210  -39.8005 O.2       7 UNK        -0.5147 
     49 N          22.4774  -32.4183  -39.6181 N.am      8 UNK        -0.4734 
     50 CA         21.6266  -32.0862  -38.4665 C.3       8 UNK         0.0238 
     51 CB         20.8767  -33.3485  -38.0101 C.3       8 UNK        -0.1912 
     52 C          20.6330  -30.9378  -38.7248 C.2       8 UNK         0.5038 
     53 O          20.2620  -30.2402  -37.7799 O.2       8 UNK        -0.5046 
     54 N          20.2348  -30.7620  -39.9903 N.am      9 UNK        -0.4200 
     55 CA         19.3778  -29.6637  -40.4573 C.3       9 UNK         0.0839 
     56 C          20.1429  -28.3373  -40.7369 C.2       9 UNK         0.5513 
     57 N          21.4613  -28.2672  -40.5988 N.am      9 UNK        -0.7519 
     58 O          19.5191  -27.3536  -41.1263 O.2       9 UNK        -0.4960 
     59 C59        18.5482  -30.0632  -41.7031 C.3       10 UNK        -0.0876 
     60 S60        17.5647  -31.5930  -41.5037 S.3       10 UNK        -0.2414 
     61 C61        18.3515  -32.7458  -42.6838 C.3       10 UNK         0.0169 
     62 H62        14.1222  -26.0507  -40.1001 H         1 UNK         0.0903 
     63 H63        12.7375  -26.9722  -40.6919 H         1 UNK         0.0903 
     64 H64        14.2757  -27.7839  -40.3944 H         1 UNK         0.0903 
     65 H65        15.3619  -28.2379  -42.2937 H         1 UNK         0.3096 
     66 H66        14.7084  -26.9960  -44.7913 H         1 UNK         0.1121 
     67 H67        17.1359  -28.7947  -44.3231 H         1 UNK         0.0849 
     68 H68        15.5169  -29.4414  -44.3119 H         1 UNK         0.0849 
     69 H69        15.4339  -31.0690  -46.4375 H         1 UNK         0.0865 
     70 H70        16.4368  -30.7514  -47.8306 H         1 UNK         0.0865 
     71 H71        16.4124  -31.9349  -44.4188 H         1 UNK         0.1346 
     72 H72        20.6652  -32.1383  -43.9795 H         1 UNK         0.1412 
     73 H73        18.9675  -30.2561  -47.4325 H         1 UNK         0.1426 
     74 H74        21.5349  -31.2288  -47.2370 H         1 UNK         0.0716 
     75 H75        22.1264  -31.2607  -45.5944 H         1 UNK         0.0716 
     76 H76        19.9864  -28.7194  -44.6062 H         1 UNK         0.0695 
     77 H77        21.5334  -29.0281  -43.8683 H         1 UNK         0.0695 
     78 H78        21.2466  -26.4547  -45.4632 H         1 UNK         0.0983 
     79 H79        19.7685  -26.8470  -42.9302 H         1 UNK         0.3095 
     80 H80        18.7000  -24.8100  -42.0592 H         1 UNK         0.0454 
     81 H81        17.4663  -23.2232  -44.3749 H         1 UNK         0.0851 
     82 H82        16.9684  -23.1251  -42.6871 H         1 UNK         0.0851 
     83 H83        18.5773  -22.6066  -43.1640 H         1 UNK         0.0851 
     84 H84        17.0822  -26.2965  -42.3540 H         1 UNK         0.2976 
     85 H85        23.5563  -27.5752  -45.1940 H         1 UNK         0.3116 
     86 H86        25.1863  -25.7717  -43.6872 H         1 UNK         0.0646 
     87 H87        25.8800  -28.4299  -45.0680 H         1 UNK         0.0847 
     88 H88        27.0449  -27.2282  -44.5298 H         1 UNK         0.0847 
     89 H89        25.9274  -26.8369  -45.8239 H         1 UNK         0.0847 
     90 H90        26.5087  -26.1468  -41.9060 H         1 UNK         0.3040 
     91 H91        25.3705  -27.5024  -39.7392 H         1 UNK         0.1015 
     92 H92        26.7679  -25.4569  -39.5405 H         1 UNK         0.0786 
     93 H93        28.1973  -26.3501  -40.0641 H         1 UNK         0.0786 
     94 H94        27.4263  -26.7307  -38.5308 H         1 UNK         0.0786 
     95 H95        27.3278  -28.9159  -42.1204 H         1 UNK         0.3172 
     96 H96        28.4960  -31.0821  -40.5963 H         1 UNK         0.0595 
     97 H97        29.3906  -30.4083  -42.8196 H         1 UNK         0.0839 
     98 H98        27.8581  -30.8271  -43.5884 H         1 UNK         0.0839 
     99 H99        28.8532  -32.0786  -42.8585 H         1 UNK         0.0839 
    100 H100       25.2582  -30.3885  -41.7426 H         1 UNK         0.2998 
    101 H101       24.3542  -33.1891  -41.2108 H         1 UNK         0.0822 
    102 H102       23.8600  -32.3238  -43.5360 H         1 UNK         0.0787 
    103 H103       22.4029  -32.5951  -42.5962 H         1 UNK         0.0787 
    104 H104       23.0019  -30.9537  -42.8328 H         1 UNK         0.0787 
    105 H105       22.3911  -33.3548  -39.9879 H         1 UNK         0.3055 
    106 H106       22.2820  -31.7629  -37.6544 H         1 UNK         0.1106 
    107 H107       20.2188  -33.7327  -38.7908 H         1 UNK         0.0828 
    108 H108       21.5681  -34.1434  -37.7296 H         1 UNK         0.0828 
    109 H109       20.2568  -33.1397  -37.1368 H         1 UNK         0.0828 
    110 H110       20.5988  -31.3811  -40.6971 H         1 UNK         0.2931 
    111 H111       18.6660  -29.4350  -39.6619 H         1 UNK         0.0412 
    112 H112       21.9266  -27.4028  -40.8318 H         1 UNK         0.3472 
    113 H113       22.0109  -29.0615  -40.2932 H         1 UNK         0.3472 
    114 H114       19.2076  -30.1378  -42.5657 H         1 UNK         0.0970 
    115 H115       17.8412  -29.2693  -41.9485 H         1 UNK         0.0970 
    116 H116       19.3141  -33.0601  -42.2775 H         1 UNK         0.0612 
    117 H117       17.7405  -33.6459  -42.7618 H         1 UNK         0.0612 
@<TRIPOS>BOND
     1    1    2 1    
     2    1   62 1    
     3    1   63 1    
     4    1   64 1    
     5    2    3 2    
     6    2    4 am   BACKBONE|DICT|INTERRES
     7    4    5 1    
     8    4   65 1    
     9    5    6 1    
    10    5   25 1    
    11    5   66 1    
    12    6    7 1    
    13    6   67 1    
    14    6   68 1    
    15    7    8 1    
    16    8    9 1    
    17    8   69 1    
    18    8   70 1    
    19    9   10 ar   
    20    9   14 ar   
    21   10   11 ar   
    22   10   71 1    
    23   11   12 ar   
    24   11   61 1    
    25   12   13 ar   
    26   12   72 1    
    27   13   14 ar   
    28   13   15 1    
    29   14   73 1    
    30   15   16 1    
    31   15   74 1    
    32   15   75 1    
    33   16   17 1    
    34   17   18 1    
    35   17   76 1    
    36   17   77 1    
    37   18   19 1    
    38   18   27 1    
    39   18   78 1    
    40   19   20 am   BACKBONE|DICT|INTERRES
    41   19   79 1    
    42   20   21 2    
    43   20   22 1    
    44   22   23 1    
    45   22   24 1    
    46   22   80 1    
    47   23   81 1    
    48   23   82 1    
    49   23   83 1    
    50   24   25 am   BACKBONE|DICT|INTERRES
    51   24   84 1    
    52   25   26 2    
    53   27   28 2    
    54   27   29 am   BACKBONE|DICT|INTERRES
    55   29   30 1    
    56   29   85 1    
    57   30   31 1    
    58   30   32 1    
    59   30   86 1    
    60   31   87 1    
    61   31   88 1    
    62   31   89 1    
    63   32   33 2    
    64   32   34 am   BACKBONE|DICT|INTERRES
    65   34   35 1    
    66   34   90 1    
    67   35   36 1    
    68   35   37 1    
    69   35   91 1    
    70   36   92 1    
    71   36   93 1    
    72   36   94 1    
    73   37   38 2    
    74   37   39 am   BACKBONE|DICT|INTERRES
    75   39   40 1    
    76   39   95 1    
    77   40   41 1    
    78   40   42 1    
    79   40   96 1    
    80   41   97 1    
    81   41   98 1    
    82   41   99 1    
    83   42   43 2    
    84   42   44 am   BACKBONE|DICT|INTERRES
    85   44   45 1    
    86   44  100 1    
    87   45   46 1    
    88   45   47 1    
    89   45  101 1    
    90   46  102 1    
    91   46  103 1    
    92   46  104 1    
    93   47   48 2    
    94   47   49 am   BACKBONE|DICT|INTERRES
    95   49   50 1    
    96   49  105 1    
    97   50   51 1    
    98   50   52 1    
    99   50  106 1    
   100   51  107 1    
   101   51  108 1    
   102   51  109 1    
   103   52   53 2    
   104   52   54 am   BACKBONE|DICT|INTERRES
   105   54   55 1    
   106   54  110 1    
   107   55   56 1    
   108   55   59 1    
   109   55  111 1    
   110   56   57 am   BACKBONE|DICT|INTERRES
   111   56   58 2    
   112   57  112 1    
   113   57  113 1    
   114   59   60 1    
   115   59  114 1    
   116   59  115 1    
   117   60   61 1    
   118   61  116 1    
   119   61  117 1    
@<TRIPOS>SUBSTRUCTURE
     1 UNK         1 GROUP             0       ****    0 ROOT    
