@<TRIPOS>MOLECULE
3R8
117   119    1
SMALL
USER_CHARGES


@<TRIPOS>ATOM
      1 CA         19.9512  -23.1966  -47.0026 C.3       0 UNK        -0.2013 
      2 C          19.9520  -24.7172  -47.0545 C.2       0 UNK         0.4866 
      3 O          20.0793  -25.2947  -48.1347 O.2       0 UNK        -0.5176 
      4 N          19.8179  -25.3675  -45.8960 N.am      1 UNK        -0.4884 
      5 CA         19.8251  -26.8197  -45.7238 C.3       1 UNK         0.0853 
      6 C6         18.5096  -27.5007  -46.1920 C.3       10 UNK        -0.0849 
      7 S7         17.0014  -26.9073  -45.3494 S.3       10 UNK        -0.2776 
      8 C8         15.9495  -28.3941  -45.4185 C.3       10 UNK         0.0316 
      9 C9         16.4019  -29.4432  -44.4142 C.ar      10 UNK        -0.0863 
     10 C10        17.0153  -30.6259  -44.8367 C.ar      10 UNK        -0.1009 
     11 C11        17.4417  -31.5816  -43.9091 C.ar      10 UNK        -0.0712 
     12 C12        17.2441  -31.3296  -42.5434 C.ar      10 UNK        -0.0894 
     13 C13        16.6486  -30.1455  -42.1012 C.ar      10 UNK        -0.0745 
     14 C14        16.2061  -29.2183  -43.0512 C.ar      10 UNK        -0.0972 
     15 C15        16.5307  -29.9255  -40.5913 C.3       10 UNK         0.0209 
     16 S16        15.7466  -28.3654  -40.0503 S.3       10 UNK        -0.2568 
     17 C17        16.9151  -27.0250  -40.4842 C.3       10 UNK        -0.0983 
     18 CA         18.4232  -27.3077  -40.2355 C.3       3 UNK         0.0876 
     19 N          19.0643  -27.9873  -41.3729 N.am      3 UNK        -0.4424 
     20 C          20.3295  -28.4325  -41.3745 C.2       2 UNK         0.4918 
     21 O          21.0652  -28.3946  -40.3897 O.2       2 UNK        -0.4875 
     22 CA         20.9189  -28.9572  -42.6968 C.3       2 UNK         0.0481 
     23 CB         20.9116  -30.4909  -42.7247 C.3       2 UNK        -0.1831 
     24 N          20.3246  -28.4343  -43.9343 N.am      2 UNK        -0.4498 
     25 C          20.2335  -27.1391  -44.2722 C.2       1 UNK         0.5027 
     26 O          20.4889  -26.2139  -43.4928 O.2       1 UNK        -0.4969 
     27 C          19.1439  -25.9897  -39.8661 C.2       3 UNK         0.5005 
     28 O          19.2202  -25.6587  -38.6815 O.2       3 UNK        -0.5279 
     29 N          19.6472  -25.2650  -40.8751 N.am      4 UNK        -0.4463 
     30 CA         20.3817  -24.0112  -40.7104 C.3       4 UNK         0.0283 
     31 CB         19.9843  -23.0384  -41.8334 C.3       4 UNK        -0.1875 
     32 C          21.8983  -24.2458  -40.7206 C.2       4 UNK         0.4949 
     33 O          22.6089  -23.6317  -39.9250 O.2       4 UNK        -0.5039 
     34 N          22.3701  -25.1093  -41.6311 N.am      5 UNK        -0.4663 
     35 CA         23.7939  -25.3585  -41.8673 C.3       5 UNK         0.0242 
     36 CB         23.9696  -26.0072  -43.2507 C.3       5 UNK        -0.1982 
     37 C          24.4731  -26.2107  -40.7827 C.2       5 UNK         0.5017 
     38 O          25.6817  -26.0714  -40.5949 O.2       5 UNK        -0.5012 
     39 N          23.7066  -27.0936  -40.1203 N.am      6 UNK        -0.4439 
     40 CA         24.1446  -28.0675  -39.1061 C.3       6 UNK         0.0297 
     41 CB         24.6573  -27.3510  -37.8388 C.3       6 UNK        -0.2006 
     42 C          25.1428  -29.1231  -39.6338 C.2       6 UNK         0.4892 
     43 O          25.8533  -29.7433  -38.8414 O.2       6 UNK        -0.5089 
     44 N          25.1739  -29.3168  -40.9594 N.am      7 UNK        -0.4243 
     45 CA         26.0949  -30.2110  -41.6667 C.3       7 UNK         0.0196 
     46 CB         26.3286  -29.6405  -43.0767 C.3       7 UNK        -0.2007 
     47 C          25.6025  -31.6682  -41.7531 C.2       7 UNK         0.5020 
     48 O          26.3718  -32.5242  -42.1913 O.2       7 UNK        -0.5147 
     49 N          24.3433  -31.9103  -41.3554 N.am      8 UNK        -0.4734 
     50 CA         23.5499  -33.1412  -41.4997 C.3       8 UNK         0.0238 
     51 CB         24.2700  -34.3732  -40.9118 C.3       8 UNK        -0.1912 
     52 C          23.0942  -33.3856  -42.9518 C.2       8 UNK         0.5038 
     53 O          23.6819  -32.8553  -43.8976 O.2       8 UNK        -0.5046 
     54 N          22.0104  -34.1555  -43.0940 N.am      9 UNK        -0.4200 
     55 CA         21.3672  -34.4649  -44.3796 C.3       9 UNK         0.0839 
     56 C          22.2136  -35.4305  -45.2516 C.2       9 UNK         0.5513 
     57 N          22.1539  -35.2894  -46.5686 N.am      9 UNK        -0.7519 
     58 O          22.8840  -36.3304  -44.7490 O.2       9 UNK        -0.4960 
     59 C59        19.9289  -35.0134  -44.1857 C.3       10 UNK        -0.0876 
     60 S60        18.8935  -33.9125  -43.1635 S.3       10 UNK        -0.2414 
     61 C61        18.1235  -32.8496  -44.4342 C.3       10 UNK         0.0169 
     62 H62        20.8876  -22.8068  -47.4008 H         1 UNK         0.0903 
     63 H63        19.1335  -22.8017  -47.6049 H         1 UNK         0.0903 
     64 H64        19.8335  -22.8234  -45.9853 H         1 UNK         0.0903 
     65 H65        19.7714  -24.8623  -45.0199 H         1 UNK         0.3096 
     66 H66        20.6380  -27.2114  -46.3398 H         1 UNK         0.1121 
     67 H67        18.3744  -27.3286  -47.2608 H         1 UNK         0.0849 
     68 H68        18.5878  -28.5832  -46.0906 H         1 UNK         0.0849 
     69 H69        14.9194  -28.1091  -45.1994 H         1 UNK         0.0865 
     70 H70        15.9447  -28.7947  -46.4336 H         1 UNK         0.0865 
     71 H71        17.1655  -30.8035  -45.8932 H         1 UNK         0.1346 
     72 H72        17.5683  -32.0445  -41.8013 H         1 UNK         0.1412 
     73 H73        15.7173  -28.3044  -42.7499 H         1 UNK         0.1426 
     74 H74        17.5160  -30.0135  -40.1328 H         1 UNK         0.0716 
     75 H75        15.9373  -30.7433  -40.1799 H         1 UNK         0.0716 
     76 H76        16.7498  -26.7157  -41.5170 H         1 UNK         0.0695 
     77 H77        16.5772  -26.1756  -39.8859 H         1 UNK         0.0695 
     78 H78        18.5188  -27.9573  -39.3630 H         1 UNK         0.0983 
     79 H79        18.5216  -28.0722  -42.2202 H         1 UNK         0.3095 
     80 H80        21.9642  -28.6458  -42.7047 H         1 UNK         0.0454 
     81 H81        21.3695  -30.9017  -41.8247 H         1 UNK         0.0851 
     82 H82        19.9015  -30.8880  -42.7792 H         1 UNK         0.0851 
     83 H83        21.4692  -30.8763  -43.5782 H         1 UNK         0.0851 
     84 H84        20.0663  -29.1273  -44.6213 H         1 UNK         0.2976 
     85 H85        19.5984  -25.6397  -41.8169 H         1 UNK         0.3116 
     86 H86        20.1194  -23.5454  -39.7579 H         1 UNK         0.0646 
     87 H87        20.5087  -22.0876  -41.7284 H         1 UNK         0.0847 
     88 H88        18.9162  -22.8223  -41.8097 H         1 UNK         0.0847 
     89 H89        20.2237  -23.4347  -42.8208 H         1 UNK         0.0847 
     90 H90        21.7146  -25.5447  -42.2752 H         1 UNK         0.3040 
     91 H91        24.3071  -24.3939  -41.8824 H         1 UNK         0.1015 
     92 H92        23.5680  -25.3707  -44.0396 H         1 UNK         0.0786 
     93 H93        23.4691  -26.9725  -43.3157 H         1 UNK         0.0786 
     94 H94        25.0247  -26.1715  -43.4746 H         1 UNK         0.0786 
     95 H95        22.7195  -27.1410  -40.3507 H         1 UNK         0.3172 
     96 H96        23.2511  -28.6245  -38.8216 H         1 UNK         0.0595 
     97 H97        23.9343  -26.6200  -37.4768 H         1 UNK         0.0839 
     98 H98        25.5989  -26.8316  -38.0186 H         1 UNK         0.0839 
     99 H99        24.8296  -28.0613  -37.0293 H         1 UNK         0.0839 
    100 H100       24.5563  -28.7601  -41.5304 H         1 UNK         0.2998 
    101 H101       27.0521  -30.2224  -41.1405 H         1 UNK         0.0822 
    102 H102       26.7211  -28.6241  -43.0343 H         1 UNK         0.0787 
    103 H103       27.0528  -30.2426  -43.6273 H         1 UNK         0.0787 
    104 H104       25.4086  -29.6231  -43.6626 H         1 UNK         0.0787 
    105 H105       23.8301  -31.1118  -41.0117 H         1 UNK         0.3055 
    106 H106       22.6489  -32.9740  -40.9067 H         1 UNK         0.1106 
    107 H107       24.6377  -34.1769  -39.9046 H         1 UNK         0.0828 
    108 H108       25.1161  -34.6851  -41.5245 H         1 UNK         0.0828 
    109 H109       23.5940  -35.2265  -40.8478 H         1 UNK         0.0828 
    110 H110       21.5835  -34.5706  -42.2796 H         1 UNK         0.2931 
    111 H111       21.2833  -33.5215  -44.9239 H         1 UNK         0.0412 
    112 H112       22.6835  -35.9176  -47.1532 H         1 UNK         0.3472 
    113 H113       21.6009  -34.5600  -46.9917 H         1 UNK         0.3472 
    114 H114       19.9574  -35.9920  -43.7024 H         1 UNK         0.0970 
    115 H115       19.4405  -35.1689  -45.1497 H         1 UNK         0.0970 
    116 H116       17.3931  -33.4411  -44.9879 H         1 UNK         0.0612 
    117 H117       18.8958  -32.5558  -45.1466 H         1 UNK         0.0612 
@<TRIPOS>BOND
     1    1    2 1    
     2    1   62 1    
     3    1   63 1    
     4    1   64 1    
     5    2    3 2    
     6    2    4 am   BACKBONE|DICT|INTERRES
     7    4    5 1    
     8    4   65 1    
     9    5    6 1    
    10    5   25 1    
    11    5   66 1    
    12    6    7 1    
    13    6   67 1    
    14    6   68 1    
    15    7    8 1    
    16    8    9 1    
    17    8   69 1    
    18    8   70 1    
    19    9   10 ar   
    20    9   14 ar   
    21   10   11 ar   
    22   10   71 1    
    23   11   12 ar   
    24   11   61 1    
    25   12   13 ar   
    26   12   72 1    
    27   13   14 ar   
    28   13   15 1    
    29   14   73 1    
    30   15   16 1    
    31   15   74 1    
    32   15   75 1    
    33   16   17 1    
    34   17   18 1    
    35   17   76 1    
    36   17   77 1    
    37   18   19 1    
    38   18   27 1    
    39   18   78 1    
    40   19   20 am   BACKBONE|DICT|INTERRES
    41   19   79 1    
    42   20   21 2    
    43   20   22 1    
    44   22   23 1    
    45   22   24 1    
    46   22   80 1    
    47   23   81 1    
    48   23   82 1    
    49   23   83 1    
    50   24   25 am   BACKBONE|DICT|INTERRES
    51   24   84 1    
    52   25   26 2    
    53   27   28 2    
    54   27   29 am   BACKBONE|DICT|INTERRES
    55   29   30 1    
    56   29   85 1    
    57   30   31 1    
    58   30   32 1    
    59   30   86 1    
    60   31   87 1    
    61   31   88 1    
    62   31   89 1    
    63   32   33 2    
    64   32   34 am   BACKBONE|DICT|INTERRES
    65   34   35 1    
    66   34   90 1    
    67   35   36 1    
    68   35   37 1    
    69   35   91 1    
    70   36   92 1    
    71   36   93 1    
    72   36   94 1    
    73   37   38 2    
    74   37   39 am   BACKBONE|DICT|INTERRES
    75   39   40 1    
    76   39   95 1    
    77   40   41 1    
    78   40   42 1    
    79   40   96 1    
    80   41   97 1    
    81   41   98 1    
    82   41   99 1    
    83   42   43 2    
    84   42   44 am   BACKBONE|DICT|INTERRES
    85   44   45 1    
    86   44  100 1    
    87   45   46 1    
    88   45   47 1    
    89   45  101 1    
    90   46  102 1    
    91   46  103 1    
    92   46  104 1    
    93   47   48 2    
    94   47   49 am   BACKBONE|DICT|INTERRES
    95   49   50 1    
    96   49  105 1    
    97   50   51 1    
    98   50   52 1    
    99   50  106 1    
   100   51  107 1    
   101   51  108 1    
   102   51  109 1    
   103   52   53 2    
   104   52   54 am   BACKBONE|DICT|INTERRES
   105   54   55 1    
   106   54  110 1    
   107   55   56 1    
   108   55   59 1    
   109   55  111 1    
   110   56   57 am   BACKBONE|DICT|INTERRES
   111   56   58 2    
   112   57  112 1    
   113   57  113 1    
   114   59   60 1    
   115   59  114 1    
   116   59  115 1    
   117   60   61 1    
   118   61  116 1    
   119   61  117 1    
@<TRIPOS>SUBSTRUCTURE
     1 UNK         1 GROUP             0       ****    0 ROOT    
