@<TRIPOS>MOLECULE
3R8
117   119    1
SMALL
USER_CHARGES


@<TRIPOS>ATOM
      1 CA         18.9075  -25.5326  -40.4449 C.3       0 UNK        -0.2013 
      2 C          18.9305  -25.6757  -41.9590 C.2       0 UNK         0.4866 
      3 O          19.9620  -26.0534  -42.5162 O.2       0 UNK        -0.5176 
      4 N          17.8014  -25.3814  -42.6207 N.am      1 UNK        -0.4884 
      5 CA         17.5930  -25.4655  -44.0763 C.3       1 UNK         0.0853 
      6 C6         17.7958  -26.9085  -44.6306 C.3       10 UNK        -0.0849 
      7 S7         16.7528  -28.1637  -43.8168 S.3       10 UNK        -0.2776 
      8 C8         16.9210  -29.5572  -44.9796 C.3       10 UNK         0.0316 
      9 C9         18.2406  -30.3016  -44.8109 C.ar      10 UNK        -0.0863 
     10 C10        18.2811  -31.4930  -44.0808 C.ar      10 UNK        -0.1009 
     11 C11        19.4684  -32.2213  -43.9754 C.ar      10 UNK        -0.0712 
     12 C12        20.6298  -31.7283  -44.5760 C.ar      10 UNK        -0.0894 
     13 C13        20.6166  -30.5319  -45.3008 C.ar      10 UNK        -0.0745 
     14 C14        19.4073  -29.8336  -45.4262 C.ar      10 UNK        -0.0972 
     15 C15        21.9181  -30.0836  -45.9742 C.3       10 UNK         0.0209 
     16 S16        21.9334  -28.3945  -46.6727 S.3       10 UNK        -0.2568 
     17 C17        22.3155  -27.3873  -45.2011 C.3       10 UNK        -0.0983 
     18 CA         22.4221  -25.8781  -45.5391 C.3       3 UNK         0.0876 
     19 N          21.1592  -25.3805  -46.0878 N.am      3 UNK        -0.4424 
     20 C          20.9585  -24.2302  -46.7443 C.2       2 UNK         0.4918 
     21 O          21.8596  -23.4605  -47.0753 O.2       2 UNK        -0.4875 
     22 CA         19.4883  -23.8629  -47.0416 C.3       2 UNK         0.0481 
     23 CB         19.1520  -24.1489  -48.5136 C.3       2 UNK        -0.1831 
     24 N          18.5319  -24.5730  -46.1779 N.am      2 UNK        -0.4498 
     25 C          18.4509  -24.4269  -44.8450 C.2       1 UNK         0.5027 
     26 O          19.0639  -23.5442  -44.2378 O.2       1 UNK        -0.4969 
     27 C          22.9055  -25.0712  -44.3087 C.2       3 UNK         0.5005 
     28 O          24.0317  -25.2903  -43.8611 O.2       3 UNK        -0.5279 
     29 N          22.0623  -24.1760  -43.7672 N.am      4 UNK        -0.4463 
     30 CA         22.2697  -23.2524  -42.6422 C.3       4 UNK         0.0283 
     31 CB         23.4704  -22.3177  -42.8865 C.3       4 UNK        -0.1875 
     32 C          22.3544  -23.9143  -41.2554 C.2       4 UNK         0.4949 
     33 O          21.9380  -23.2918  -40.2780 O.2       4 UNK        -0.5039 
     34 N          22.8660  -25.1463  -41.1805 N.am      5 UNK        -0.4663 
     35 CA         22.9887  -25.9376  -39.9557 C.3       5 UNK         0.0242 
     36 CB         24.3898  -25.7230  -39.3502 C.3       5 UNK        -0.1982 
     37 C          22.6701  -27.4229  -40.2016 C.2       5 UNK         0.5017 
     38 O          23.1441  -28.2685  -39.4411 O.2       5 UNK        -0.5012 
     39 N          21.8739  -27.7164  -41.2430 N.am      6 UNK        -0.4439 
     40 CA         21.4595  -29.0490  -41.6977 C.3       6 UNK         0.0297 
     41 CB         20.4123  -29.6378  -40.7274 C.3       6 UNK        -0.2006 
     42 C          22.6684  -29.9681  -41.9806 C.2       6 UNK         0.4892 
     43 O          23.5894  -29.5466  -42.6829 O.2       6 UNK        -0.5089 
     44 N          22.6551  -31.1882  -41.4351 N.am      7 UNK        -0.4243 
     45 CA         23.7498  -32.1539  -41.4793 C.3       7 UNK         0.0196 
     46 CB         23.7325  -32.9300  -42.8144 C.3       7 UNK        -0.2007 
     47 C          23.6529  -33.0456  -40.2313 C.2       7 UNK         0.5020 
     48 O          23.2445  -32.5653  -39.1730 O.2       7 UNK        -0.5147 
     49 N          24.0037  -34.3314  -40.3672 N.am      8 UNK        -0.4734 
     50 CA         23.9014  -35.3479  -39.3108 C.3       8 UNK         0.0238 
     51 CB         24.7503  -36.5666  -39.7115 C.3       8 UNK        -0.1912 
     52 C          22.4541  -35.7772  -38.9895 C.2       8 UNK         0.5038 
     53 O          22.2436  -36.4793  -37.9992 O.2       8 UNK        -0.5046 
     54 N          21.4971  -35.3712  -39.8332 N.am      9 UNK        -0.4200 
     55 CA         20.0517  -35.5670  -39.6710 C.3       9 UNK         0.0839 
     56 C          19.4622  -34.9169  -38.3858 C.2       9 UNK         0.5513 
     57 N          18.3588  -35.4506  -37.8786 N.am      9 UNK        -0.7519 
     58 O          19.9683  -33.9255  -37.8642 O.2       9 UNK        -0.4960 
     59 C59        19.2861  -35.1258  -40.9476 C.3       10 UNK        -0.0876 
     60 S60        19.6161  -33.4023  -41.4682 S.3       10 UNK        -0.2414 
     61 C61        19.4755  -33.5706  -43.2711 C.3       10 UNK         0.0169 
     62 H62        19.2886  -26.4395  -39.9765 H         1 UNK         0.0903 
     63 H63        19.5379  -24.6993  -40.1372 H         1 UNK         0.0903 
     64 H64        17.9005  -25.3556  -40.0680 H         1 UNK         0.0903 
     65 H65        17.0024  -25.0523  -42.0971 H         1 UNK         0.3096 
     66 H66        16.5546  -25.1796  -44.2519 H         1 UNK         0.1121 
     67 H67        17.5671  -26.9507  -45.6961 H         1 UNK         0.0849 
     68 H68        18.8371  -27.2141  -44.5251 H         1 UNK         0.0849 
     69 H69        16.0864  -30.2412  -44.8176 H         1 UNK         0.0865 
     70 H70        16.8169  -29.2050  -46.0068 H         1 UNK         0.0865 
     71 H71        17.3802  -31.8729  -43.6181 H         1 UNK         0.1346 
     72 H72        21.5454  -32.2963  -44.5059 H         1 UNK         0.1412 
     73 H73        19.3592  -28.9317  -46.0173 H         1 UNK         0.1426 
     74 H74        22.1288  -30.7790  -46.7876 H         1 UNK         0.0716 
     75 H75        22.7464  -30.1795  -45.2706 H         1 UNK         0.0716 
     76 H76        21.5445  -27.5581  -44.4487 H         1 UNK         0.0695 
     77 H77        23.2522  -27.7547  -44.7771 H         1 UNK         0.0695 
     78 H78        23.1889  -25.7525  -46.3066 H         1 UNK         0.0983 
     79 H79        20.3548  -25.9558  -45.8965 H         1 UNK         0.3095 
     80 H80        19.3737  -22.7915  -46.8649 H         1 UNK         0.0454 
     81 H81        19.8272  -23.6091  -49.1792 H         1 UNK         0.0851 
     82 H82        19.2412  -25.2096  -48.7515 H         1 UNK         0.0851 
     83 H83        18.1384  -23.8319  -48.7593 H         1 UNK         0.0851 
     84 H84        17.9662  -25.2790  -46.6272 H         1 UNK         0.2976 
     85 H85        21.1232  -24.1397  -44.1482 H         1 UNK         0.3116 
     86 H86        21.3736  -22.6299  -42.6241 H         1 UNK         0.0646 
     87 H87        23.5326  -21.5561  -42.1082 H         1 UNK         0.0847 
     88 H88        23.3822  -21.7992  -43.8411 H         1 UNK         0.0847 
     89 H89        24.4172  -22.8582  -42.8827 H         1 UNK         0.0847 
     90 H90        23.2379  -25.5544  -42.0329 H         1 UNK         0.3040 
     91 H91        22.2475  -25.5981  -39.2288 H         1 UNK         0.1015 
     92 H92        24.5784  -24.6679  -39.1514 H         1 UNK         0.0786 
     93 H93        25.1728  -26.0841  -40.0180 H         1 UNK         0.0786 
     94 H94        24.4967  -26.2512  -38.4018 H         1 UNK         0.0786 
     95 H95        21.4656  -26.9456  -41.7680 H         1 UNK         0.3172 
     96 H96        20.9589  -28.9043  -42.6554 H         1 UNK         0.0595 
     97 H97        19.5893  -28.9401  -40.5731 H         1 UNK         0.0839 
     98 H98        20.8376  -29.8702  -39.7502 H         1 UNK         0.0839 
     99 H99        19.9727  -30.5482  -41.1329 H         1 UNK         0.0839 
    100 H100       21.8941  -31.4346  -40.8155 H         1 UNK         0.2998 
    101 H101       24.6957  -31.6137  -41.4004 H         1 UNK         0.0822 
    102 H102       23.7700  -32.2485  -43.6643 H         1 UNK         0.0787 
    103 H103       24.5991  -33.5852  -42.9083 H         1 UNK         0.0787 
    104 H104       22.8356  -33.5423  -42.9140 H         1 UNK         0.0787 
    105 H105       24.3312  -34.6477  -41.2693 H         1 UNK         0.3055 
    106 H106       24.3168  -34.9279  -38.3917 H         1 UNK         0.1106 
    107 H107       24.3831  -37.0317  -40.6272 H         1 UNK         0.0828 
    108 H108       25.7934  -36.2910  -39.8677 H         1 UNK         0.0828 
    109 H109       24.7341  -37.3288  -38.9311 H         1 UNK         0.0828 
    110 H110       21.7687  -34.7715  -40.5963 H         1 UNK         0.2931 
    111 H111       19.9087  -36.6445  -39.5659 H         1 UNK         0.0412 
    112 H112       17.9511  -35.0395  -37.0531 H         1 UNK         0.3472 
    113 H113       17.9292  -36.2610  -38.2979 H         1 UNK         0.3472 
    114 H114       18.2095  -35.2503  -40.8174 H         1 UNK         0.0970 
    115 H115       19.5562  -35.7962  -41.7651 H         1 UNK         0.0970 
    116 H116       18.5560  -34.1071  -43.5108 H         1 UNK         0.0612 
    117 H117       20.2966  -34.1882  -43.6382 H         1 UNK         0.0612 
@<TRIPOS>BOND
     1    1    2 1    
     2    1   62 1    
     3    1   63 1    
     4    1   64 1    
     5    2    3 2    
     6    2    4 am   BACKBONE|DICT|INTERRES
     7    4    5 1    
     8    4   65 1    
     9    5    6 1    
    10    5   25 1    
    11    5   66 1    
    12    6    7 1    
    13    6   67 1    
    14    6   68 1    
    15    7    8 1    
    16    8    9 1    
    17    8   69 1    
    18    8   70 1    
    19    9   10 ar   
    20    9   14 ar   
    21   10   11 ar   
    22   10   71 1    
    23   11   12 ar   
    24   11   61 1    
    25   12   13 ar   
    26   12   72 1    
    27   13   14 ar   
    28   13   15 1    
    29   14   73 1    
    30   15   16 1    
    31   15   74 1    
    32   15   75 1    
    33   16   17 1    
    34   17   18 1    
    35   17   76 1    
    36   17   77 1    
    37   18   19 1    
    38   18   27 1    
    39   18   78 1    
    40   19   20 am   BACKBONE|DICT|INTERRES
    41   19   79 1    
    42   20   21 2    
    43   20   22 1    
    44   22   23 1    
    45   22   24 1    
    46   22   80 1    
    47   23   81 1    
    48   23   82 1    
    49   23   83 1    
    50   24   25 am   BACKBONE|DICT|INTERRES
    51   24   84 1    
    52   25   26 2    
    53   27   28 2    
    54   27   29 am   BACKBONE|DICT|INTERRES
    55   29   30 1    
    56   29   85 1    
    57   30   31 1    
    58   30   32 1    
    59   30   86 1    
    60   31   87 1    
    61   31   88 1    
    62   31   89 1    
    63   32   33 2    
    64   32   34 am   BACKBONE|DICT|INTERRES
    65   34   35 1    
    66   34   90 1    
    67   35   36 1    
    68   35   37 1    
    69   35   91 1    
    70   36   92 1    
    71   36   93 1    
    72   36   94 1    
    73   37   38 2    
    74   37   39 am   BACKBONE|DICT|INTERRES
    75   39   40 1    
    76   39   95 1    
    77   40   41 1    
    78   40   42 1    
    79   40   96 1    
    80   41   97 1    
    81   41   98 1    
    82   41   99 1    
    83   42   43 2    
    84   42   44 am   BACKBONE|DICT|INTERRES
    85   44   45 1    
    86   44  100 1    
    87   45   46 1    
    88   45   47 1    
    89   45  101 1    
    90   46  102 1    
    91   46  103 1    
    92   46  104 1    
    93   47   48 2    
    94   47   49 am   BACKBONE|DICT|INTERRES
    95   49   50 1    
    96   49  105 1    
    97   50   51 1    
    98   50   52 1    
    99   50  106 1    
   100   51  107 1    
   101   51  108 1    
   102   51  109 1    
   103   52   53 2    
   104   52   54 am   BACKBONE|DICT|INTERRES
   105   54   55 1    
   106   54  110 1    
   107   55   56 1    
   108   55   59 1    
   109   55  111 1    
   110   56   57 am   BACKBONE|DICT|INTERRES
   111   56   58 2    
   112   57  112 1    
   113   57  113 1    
   114   59   60 1    
   115   59  114 1    
   116   59  115 1    
   117   60   61 1    
   118   61  116 1    
   119   61  117 1    
@<TRIPOS>SUBSTRUCTURE
     1 UNK         1 GROUP             0       ****    0 ROOT    
