@<TRIPOS>MOLECULE
3R8
117   119    1
SMALL
USER_CHARGES


@<TRIPOS>ATOM
      1 CA         12.9552  -22.2769  -46.2984 C.3       0 UNK        -0.2013 
      2 C          13.8032  -23.5065  -46.5871 C.2       0 UNK         0.4866 
      3 O          14.0266  -23.8362  -47.7520 O.2       0 UNK        -0.5176 
      4 N          14.2798  -24.1875  -45.5356 N.am      1 UNK        -0.4884 
      5 CA         15.1167  -25.3929  -45.6312 C.3       1 UNK         0.0853 
      6 C6         15.0761  -26.2101  -44.3109 C.3       10 UNK        -0.0849 
      7 S7         15.2063  -28.0045  -44.6038 S.3       10 UNK        -0.2776 
      8 C8         15.4202  -28.6311  -42.9087 C.3       10 UNK         0.0316 
      9 C9         16.8882  -28.7608  -42.5260 C.ar      10 UNK        -0.0863 
     10 C10        17.6166  -29.8784  -42.9466 C.ar      10 UNK        -0.1009 
     11 C11        18.9461  -30.0495  -42.5523 C.ar      10 UNK        -0.0712 
     12 C12        19.5463  -29.0959  -41.7274 C.ar      10 UNK        -0.0894 
     13 C13        18.8364  -27.9643  -41.3132 C.ar      10 UNK        -0.0745 
     14 C14        17.5068  -27.7994  -41.7188 C.ar      10 UNK        -0.0972 
     15 C15        19.5030  -26.9403  -40.4038 C.3       10 UNK         0.0209 
     16 S16        21.0204  -26.2492  -41.1391 S.3       10 UNK        -0.2568 
     17 C17        20.3470  -25.1472  -42.4275 C.3       10 UNK        -0.0983 
     18 CA         20.1924  -25.8253  -43.8164 C.3       3 UNK         0.0876 
     19 N          19.3506  -25.0691  -44.7442 N.am      3 UNK        -0.4424 
     20 C          19.4237  -23.7784  -45.0939 C.2       2 UNK         0.4918 
     21 O          20.2495  -22.9793  -44.6525 O.2       2 UNK        -0.4875 
     22 CA         18.3526  -23.2640  -46.0771 C.3       2 UNK         0.0481 
     23 CB         18.8146  -23.4253  -47.5385 C.3       2 UNK        -0.1831 
     24 N          17.0074  -23.8242  -45.8616 N.am      2 UNK        -0.4498 
     25 C          16.5721  -25.0815  -46.0471 C.2       1 UNK         0.5027 
     26 O          17.2852  -25.9873  -46.4807 O.2       1 UNK        -0.4969 
     27 C          21.5416  -26.2086  -44.4573 C.2       3 UNK         0.5005 
     28 O          22.2445  -25.3556  -45.0034 O.2       3 UNK        -0.5279 
     29 N          21.8890  -27.4995  -44.3556 N.am      4 UNK        -0.4463 
     30 CA         23.1725  -28.0516  -44.8005 C.3       4 UNK         0.0283 
     31 CB         23.0319  -29.5734  -44.9764 C.3       4 UNK        -0.1875 
     32 C          24.3304  -27.7395  -43.8345 C.2       4 UNK         0.4949 
     33 O          25.4873  -27.8312  -44.2425 O.2       4 UNK        -0.5039 
     34 N          24.0001  -27.4240  -42.5712 N.am      5 UNK        -0.4663 
     35 CA         24.8916  -27.1306  -41.4365 C.3       5 UNK         0.0242 
     36 CB         25.7645  -25.8911  -41.7246 C.3       5 UNK        -0.1982 
     37 C          25.7322  -28.3266  -40.9387 C.2       5 UNK         0.5017 
     38 O          26.5382  -28.1535  -40.0229 O.2       5 UNK        -0.5012 
     39 N          25.5249  -29.5148  -41.5192 N.am      6 UNK        -0.4439 
     40 CA         26.1432  -30.7742  -41.1126 C.3       6 UNK         0.0297 
     41 CB         26.1134  -31.7493  -42.3003 C.3       6 UNK        -0.2006 
     42 C          25.4039  -31.3724  -39.9076 C.2       6 UNK         0.4892 
     43 O          24.1765  -31.2625  -39.8292 O.2       6 UNK        -0.5089 
     44 N          26.1594  -32.0248  -39.0137 N.am      7 UNK        -0.4243 
     45 CA         25.6478  -32.7232  -37.8318 C.3       7 UNK         0.0196 
     46 CB         26.8259  -33.2541  -36.9985 C.3       7 UNK        -0.2007 
     47 C          24.6997  -33.8637  -38.2329 C.2       7 UNK         0.5020 
     48 O          25.1117  -34.7599  -38.9727 O.2       7 UNK        -0.5147 
     49 N          23.4385  -33.7698  -37.7872 N.am      8 UNK        -0.4734 
     50 CA         22.3148  -34.6577  -38.1264 C.3       8 UNK         0.0238 
     51 CB         22.5080  -36.0429  -37.4722 C.3       8 UNK        -0.1912 
     52 C          22.0361  -34.7532  -39.6437 C.2       8 UNK         0.5038 
     53 O          21.5537  -35.7877  -40.1083 O.2       8 UNK        -0.5046 
     54 N          22.3645  -33.6828  -40.3833 N.am      9 UNK        -0.4200 
     55 CA         22.3273  -33.5909  -41.8524 C.3       9 UNK         0.0839 
     56 C          23.3900  -34.4748  -42.5754 C.2       9 UNK         0.5513 
     57 N          24.4043  -34.9964  -41.8938 N.am      9 UNK        -0.7519 
     58 O          23.3174  -34.6639  -43.7868 O.2       9 UNK        -0.4960 
     59 C59        20.8998  -33.7522  -42.4549 C.3       10 UNK        -0.0876 
     60 S60        19.6969  -32.5760  -41.7480 S.3       10 UNK        -0.2414 
     61 C61        19.7351  -31.2662  -43.0059 C.3       10 UNK         0.0169 
     62 H62        11.9632  -22.3953  -46.7335 H         1 UNK         0.0903 
     63 H63        12.8372  -22.1032  -45.2290 H         1 UNK         0.0903 
     64 H64        13.4158  -21.3920  -46.7368 H         1 UNK         0.0903 
     65 H65        14.0571  -23.8743  -44.6004 H         1 UNK         0.3096 
     66 H66        14.6940  -26.0068  -46.4306 H         1 UNK         0.1121 
     67 H67        14.1256  -26.0523  -43.7980 H         1 UNK         0.0849 
     68 H68        15.8486  -25.8887  -43.6088 H         1 UNK         0.0849 
     69 H69        14.8881  -27.9930  -42.2013 H         1 UNK         0.0865 
     70 H70        14.9451  -29.6110  -42.8388 H         1 UNK         0.0865 
     71 H71        17.1421  -30.6233  -43.5712 H         1 UNK         0.1346 
     72 H72        20.5683  -29.2369  -41.4018 H         1 UNK         0.1412 
     73 H73        16.9465  -26.9353  -41.3884 H         1 UNK         0.1426 
     74 H74        18.8189  -26.1292  -40.1499 H         1 UNK         0.0716 
     75 H75        19.7624  -27.4274  -39.4629 H         1 UNK         0.0716 
     76 H76        21.0024  -24.2773  -42.4946 H         1 UNK         0.0695 
     77 H77        19.3821  -24.7673  -42.0885 H         1 UNK         0.0695 
     78 H78        19.6327  -26.7489  -43.6660 H         1 UNK         0.0983 
     79 H79        18.6540  -25.6183  -45.2406 H         1 UNK         0.3095 
     80 H80        18.2489  -22.1940  -45.8896 H         1 UNK         0.0454 
     81 H81        18.0814  -23.0170  -48.2339 H         1 UNK         0.0851 
     82 H82        19.7525  -22.8947  -47.7076 H         1 UNK         0.0851 
     83 H83        18.9850  -24.4687  -47.8042 H         1 UNK         0.0851 
     84 H84        16.3356  -23.1741  -45.4774 H         1 UNK         0.2976 
     85 H85        21.2503  -28.1415  -43.9084 H         1 UNK         0.3116 
     86 H86        23.4226  -27.6169  -45.7708 H         1 UNK         0.0646 
     87 H87        22.2310  -29.8230  -45.6728 H         1 UNK         0.0847 
     88 H88        23.9507  -30.0043  -45.3772 H         1 UNK         0.0847 
     89 H89        22.8267  -30.0755  -44.0308 H         1 UNK         0.0847 
     90 H90        23.0134  -27.3708  -42.3546 H         1 UNK         0.3040 
     91 H91        24.2327  -26.8755  -40.6047 H         1 UNK         0.1015 
     92 H92        26.5050  -26.0859  -42.5008 H         1 UNK         0.0786 
     93 H93        26.3080  -25.5788  -40.8320 H         1 UNK         0.0786 
     94 H94        25.1568  -25.0444  -42.0441 H         1 UNK         0.0786 
     95 H95        24.8187  -29.5656  -42.2366 H         1 UNK         0.3172 
     96 H96        27.1845  -30.5889  -40.8398 H         1 UNK         0.0595 
     97 H97        25.0960  -31.9394  -42.6426 H         1 UNK         0.0839 
     98 H98        26.5506  -32.7117  -42.0300 H         1 UNK         0.0839 
     99 H99        26.6825  -31.3613  -43.1454 H         1 UNK         0.0839 
    100 H100       27.1529  -32.0951  -39.1800 H         1 UNK         0.2998 
    101 H101       25.1012  -31.9966  -37.2267 H         1 UNK         0.0822 
    102 H102       26.4697  -33.7680  -36.1046 H         1 UNK         0.0787 
    103 H103       27.4323  -33.9645  -37.5622 H         1 UNK         0.0787 
    104 H104       27.4766  -32.4442  -36.6680 H         1 UNK         0.0787 
    105 H105       23.1995  -32.9736  -37.2107 H         1 UNK         0.3055 
    106 H106       21.4211  -34.2080  -37.6904 H         1 UNK         0.1106 
    107 H107       21.6211  -36.6649  -37.5994 H         1 UNK         0.0828 
    108 H108       23.3483  -36.5828  -37.9099 H         1 UNK         0.0828 
    109 H109       22.6872  -35.9550  -36.4008 H         1 UNK         0.0828 
    110 H110       22.7899  -32.8882  -39.9195 H         1 UNK         0.2931 
    111 H111       22.6429  -32.5696  -42.0685 H         1 UNK         0.0412 
    112 H112       25.0839  -35.5567  -42.3827 H         1 UNK         0.3472 
    113 H113       24.4959  -34.8588  -40.8929 H         1 UNK         0.3472 
    114 H114       20.5270  -34.7645  -42.2935 H         1 UNK         0.0970 
    115 H115       20.9213  -33.6189  -43.5380 H         1 UNK         0.0970 
    116 H116       19.3362  -31.6521  -43.9453 H         1 UNK         0.0612 
    117 H117       20.7698  -30.9827  -43.1993 H         1 UNK         0.0612 
@<TRIPOS>BOND
     1    1    2 1    
     2    1   62 1    
     3    1   63 1    
     4    1   64 1    
     5    2    3 2    
     6    2    4 am   BACKBONE|DICT|INTERRES
     7    4    5 1    
     8    4   65 1    
     9    5    6 1    
    10    5   25 1    
    11    5   66 1    
    12    6    7 1    
    13    6   67 1    
    14    6   68 1    
    15    7    8 1    
    16    8    9 1    
    17    8   69 1    
    18    8   70 1    
    19    9   10 ar   
    20    9   14 ar   
    21   10   11 ar   
    22   10   71 1    
    23   11   12 ar   
    24   11   61 1    
    25   12   13 ar   
    26   12   72 1    
    27   13   14 ar   
    28   13   15 1    
    29   14   73 1    
    30   15   16 1    
    31   15   74 1    
    32   15   75 1    
    33   16   17 1    
    34   17   18 1    
    35   17   76 1    
    36   17   77 1    
    37   18   19 1    
    38   18   27 1    
    39   18   78 1    
    40   19   20 am   BACKBONE|DICT|INTERRES
    41   19   79 1    
    42   20   21 2    
    43   20   22 1    
    44   22   23 1    
    45   22   24 1    
    46   22   80 1    
    47   23   81 1    
    48   23   82 1    
    49   23   83 1    
    50   24   25 am   BACKBONE|DICT|INTERRES
    51   24   84 1    
    52   25   26 2    
    53   27   28 2    
    54   27   29 am   BACKBONE|DICT|INTERRES
    55   29   30 1    
    56   29   85 1    
    57   30   31 1    
    58   30   32 1    
    59   30   86 1    
    60   31   87 1    
    61   31   88 1    
    62   31   89 1    
    63   32   33 2    
    64   32   34 am   BACKBONE|DICT|INTERRES
    65   34   35 1    
    66   34   90 1    
    67   35   36 1    
    68   35   37 1    
    69   35   91 1    
    70   36   92 1    
    71   36   93 1    
    72   36   94 1    
    73   37   38 2    
    74   37   39 am   BACKBONE|DICT|INTERRES
    75   39   40 1    
    76   39   95 1    
    77   40   41 1    
    78   40   42 1    
    79   40   96 1    
    80   41   97 1    
    81   41   98 1    
    82   41   99 1    
    83   42   43 2    
    84   42   44 am   BACKBONE|DICT|INTERRES
    85   44   45 1    
    86   44  100 1    
    87   45   46 1    
    88   45   47 1    
    89   45  101 1    
    90   46  102 1    
    91   46  103 1    
    92   46  104 1    
    93   47   48 2    
    94   47   49 am   BACKBONE|DICT|INTERRES
    95   49   50 1    
    96   49  105 1    
    97   50   51 1    
    98   50   52 1    
    99   50  106 1    
   100   51  107 1    
   101   51  108 1    
   102   51  109 1    
   103   52   53 2    
   104   52   54 am   BACKBONE|DICT|INTERRES
   105   54   55 1    
   106   54  110 1    
   107   55   56 1    
   108   55   59 1    
   109   55  111 1    
   110   56   57 am   BACKBONE|DICT|INTERRES
   111   56   58 2    
   112   57  112 1    
   113   57  113 1    
   114   59   60 1    
   115   59  114 1    
   116   59  115 1    
   117   60   61 1    
   118   61  116 1    
   119   61  117 1    
@<TRIPOS>SUBSTRUCTURE
     1 UNK         1 GROUP             0       ****    0 ROOT    
