@<TRIPOS>MOLECULE
3R8
117   119    1
SMALL
USER_CHARGES


@<TRIPOS>ATOM
      1 CA         14.6126  -23.7718  -41.3898 C.3       0 UNK        -0.2013 
      2 C          15.2224  -24.3777  -42.6452 C.2       0 UNK         0.4866 
      3 O          14.8219  -24.0212  -43.7541 O.2       0 UNK        -0.5176 
      4 N          16.1804  -25.2979  -42.4806 N.am      1 UNK        -0.4884 
      5 CA         16.9096  -25.9520  -43.5724 C.3       1 UNK         0.0853 
      6 C6         17.6951  -27.1930  -43.0763 C.3       10 UNK        -0.0849 
      7 S7         16.5974  -28.5066  -42.4476 S.3       10 UNK        -0.2776 
      8 C8         16.3056  -29.4959  -43.9495 C.3       10 UNK         0.0316 
      9 C9         17.3906  -30.5399  -44.1825 C.ar      10 UNK        -0.0863 
     10 C10        17.2493  -31.8217  -43.6436 C.ar      10 UNK        -0.1009 
     11 C11        18.1916  -32.8175  -43.9138 C.ar      10 UNK        -0.0712 
     12 C12        19.3042  -32.5054  -44.7038 C.ar      10 UNK        -0.0894 
     13 C13        19.4755  -31.2236  -45.2396 C.ar      10 UNK        -0.0745 
     14 C14        18.4991  -30.2502  -44.9843 C.ar      10 UNK        -0.0972 
     15 C15        20.7147  -30.9657  -46.1044 C.3       10 UNK         0.0209 
     16 S16        20.9785  -29.2471  -46.6711 S.3       10 UNK        -0.2568 
     17 C17        21.5814  -28.4436  -45.1494 C.3       10 UNK        -0.0983 
     18 CA         21.8193  -26.9246  -45.3442 C.3       3 UNK         0.0876 
     19 N          20.5808  -26.2364  -45.7140 N.am      3 UNK        -0.4424 
     20 C          20.4799  -24.9797  -46.1664 C.2       2 UNK         0.4918 
     21 O          21.4462  -24.2574  -46.4143 O.2       2 UNK        -0.4875 
     22 CA         19.0533  -24.4401  -46.3907 C.3       2 UNK         0.0481 
     23 CB         18.6739  -24.5354  -47.8773 C.3       2 UNK        -0.1831 
     24 N          18.0477  -25.1472  -45.5882 N.am      2 UNK        -0.4498 
     25 C          17.8713  -24.9688  -44.2705 C.2       1 UNK         0.5027 
     26 O          18.4650  -24.1148  -43.6072 O.2       1 UNK        -0.4969 
     27 C          22.4444  -26.2996  -44.0775 C.2       3 UNK         0.5005 
     28 O          21.7261  -25.7461  -43.2401 O.2       3 UNK        -0.5279 
     29 N          23.7740  -26.4121  -43.9614 N.am      4 UNK        -0.4463 
     30 CA         24.5696  -25.9222  -42.8314 C.3       4 UNK         0.0283 
     31 CB         26.0566  -25.9730  -43.2272 C.3       4 UNK        -0.1875 
     32 C          24.3293  -26.7165  -41.5331 C.2       4 UNK         0.4949 
     33 O          23.7055  -27.7797  -41.5568 O.2       4 UNK        -0.5039 
     34 N          24.8749  -26.2048  -40.4204 N.am      5 UNK        -0.4663 
     35 CA         24.8887  -26.8695  -39.1121 C.3       5 UNK         0.0242 
     36 CB         25.6132  -25.9751  -38.0937 C.3       5 UNK        -0.1982 
     37 C          25.5527  -28.2568  -39.1835 C.2       5 UNK         0.5017 
     38 O          26.5774  -28.4044  -39.8539 O.2       5 UNK        -0.5012 
     39 N          24.9250  -29.2495  -38.5392 N.am      6 UNK        -0.4439 
     40 CA         25.2157  -30.6918  -38.5766 C.3       6 UNK         0.0297 
     41 CB         26.6506  -31.0125  -38.1139 C.3       6 UNK        -0.2006 
     42 C          24.8967  -31.3661  -39.9264 C.2       6 UNK         0.4892 
     43 O          24.3608  -32.4751  -39.9180 O.2       6 UNK        -0.5089 
     44 N          25.1845  -30.6916  -41.0500 N.am      7 UNK        -0.4243 
     45 CA         24.8520  -31.1273  -42.4114 C.3       7 UNK         0.0196 
     46 CB         25.4870  -30.1746  -43.4365 C.3       7 UNK        -0.2007 
     47 C          23.3370  -31.2501  -42.6466 C.2       7 UNK         0.5020 
     48 O          22.9083  -32.1680  -43.3450 O.2       7 UNK        -0.5147 
     49 N          22.5496  -30.3742  -42.0073 N.am      8 UNK        -0.4734 
     50 CA         21.0842  -30.3992  -41.9313 C.3       8 UNK         0.0238 
     51 CB         20.5948  -29.0228  -41.4422 C.3       8 UNK        -0.1912 
     52 C          20.5198  -31.5502  -41.0669 C.2       8 UNK         0.5038 
     53 O          19.6050  -31.3234  -40.2724 O.2       8 UNK        -0.5046 
     54 N          21.0752  -32.7576  -41.2275 N.am      9 UNK        -0.4200 
     55 CA         20.7167  -33.9940  -40.5185 C.3       9 UNK         0.0839 
     56 C          20.8686  -33.8932  -38.9714 C.2       9 UNK         0.5513 
     57 N          21.9528  -33.3081  -38.4771 N.am      9 UNK        -0.7519 
     58 O          20.0197  -34.3543  -38.2117 O.2       9 UNK        -0.4960 
     59 C59        19.3454  -34.5583  -40.9833 C.3       10 UNK        -0.0876 
     60 S60        19.3943  -35.0806  -42.7317 S.3       10 UNK        -0.2414 
     61 C61        17.9362  -34.2459  -43.4380 C.3       10 UNK         0.0169 
     62 H62        13.5393  -23.9588  -41.3660 H         1 UNK         0.0903 
     63 H63        15.0492  -24.1883  -40.4822 H         1 UNK         0.0903 
     64 H64        14.7714  -22.6939  -41.3787 H         1 UNK         0.0903 
     65 H65        16.4762  -25.5493  -41.5481 H         1 UNK         0.3096 
     66 H66        16.1720  -26.2791  -44.3090 H         1 UNK         0.1121 
     67 H67        18.3228  -27.6076  -43.8645 H         1 UNK         0.0849 
     68 H68        18.3814  -26.9089  -42.2760 H         1 UNK         0.0849 
     69 H69        15.3389  -29.9924  -43.8511 H         1 UNK         0.0865 
     70 H70        16.2119  -28.8415  -44.8174 H         1 UNK         0.0865 
     71 H71        16.3784  -32.0547  -43.0459 H         1 UNK         0.1346 
     72 H72        20.0339  -33.2736  -44.9218 H         1 UNK         0.1412 
     73 H73        18.5840  -29.2673  -45.4210 H         1 UNK         0.1426 
     74 H74        21.6048  -31.2925  -45.5653 H         1 UNK         0.0716 
     75 H75        20.6454  -31.5987  -46.9900 H         1 UNK         0.0716 
     76 H76        22.5005  -28.9464  -44.8418 H         1 UNK         0.0695 
     77 H77        20.8536  -28.6150  -44.3569 H         1 UNK         0.0695 
     78 H78        22.5255  -26.7864  -46.1662 H         1 UNK         0.0983 
     79 H79        19.7308  -26.7495  -45.5529 H         1 UNK         0.3095 
     80 H80        19.0485  -23.3855  -46.1067 H         1 UNK         0.0454 
     81 H81        17.6909  -24.1032  -48.0653 H         1 UNK         0.0851 
     82 H82        18.6611  -25.5681  -48.2281 H         1 UNK         0.0851 
     83 H83        19.3880  -23.9911  -48.4969 H         1 UNK         0.0851 
     84 H84        17.4970  -25.8437  -46.0705 H         1 UNK         0.2976 
     85 H85        24.2818  -26.9072  -44.6796 H         1 UNK         0.3116 
     86 H86        24.2901  -24.8829  -42.6462 H         1 UNK         0.0646 
     87 H87        26.2470  -25.3998  -44.1347 H         1 UNK         0.0847 
     88 H88        26.6915  -25.5510  -42.4473 H         1 UNK         0.0847 
     89 H89        26.3949  -26.9957  -43.3985 H         1 UNK         0.0847 
     90 H90        25.3935  -25.3413  -40.4899 H         1 UNK         0.3040 
     91 H91        23.8497  -26.9889  -38.7972 H         1 UNK         0.1015 
     92 H92        26.6526  -25.8025  -38.3767 H         1 UNK         0.0786 
     93 H93        25.6175  -26.4341  -37.1040 H         1 UNK         0.0786 
     94 H94        25.1250  -25.0051  -37.9968 H         1 UNK         0.0786 
     95 H95        24.0832  -29.0097  -38.0328 H         1 UNK         0.3172 
     96 H96        24.5382  -31.1365  -37.8456 H         1 UNK         0.0595 
     97 H97        27.4015  -30.6532  -38.8178 H         1 UNK         0.0839 
     98 H98        26.7925  -32.0898  -38.0179 H         1 UNK         0.0839 
     99 H99        26.8627  -30.5700  -37.1407 H         1 UNK         0.0839 
    100 H100       25.6339  -29.7875  -40.9484 H         1 UNK         0.2998 
    101 H101       25.2867  -32.1192  -42.5520 H         1 UNK         0.0822 
    102 H102       26.5678  -30.1142  -43.3079 H         1 UNK         0.0787 
    103 H103       25.2995  -30.5192  -44.4544 H         1 UNK         0.0787 
    104 H104       25.0819  -29.1666  -43.3565 H         1 UNK         0.0787 
    105 H105       23.0060  -29.5989  -41.5335 H         1 UNK         0.3055 
    106 H106       20.7001  -30.5560  -42.9379 H         1 UNK         0.1106 
    107 H107       20.9677  -28.2124  -42.0667 H         1 UNK         0.0828 
    108 H108       19.5061  -28.9691  -41.4578 H         1 UNK         0.0828 
    109 H109       20.9179  -28.8243  -40.4198 H         1 UNK         0.0828 
    110 H110       21.8125  -32.8385  -41.9201 H         1 UNK         0.2931 
    111 H111       21.4729  -34.7240  -40.8100 H         1 UNK         0.0412 
    112 H112       22.6922  -32.9792  -39.0910 H         1 UNK         0.3472 
    113 H113       22.0626  -33.2424  -37.4779 H         1 UNK         0.3472 
    114 H114       18.5538  -33.8247  -40.8228 H         1 UNK         0.0970 
    115 H115       19.0692  -35.4362  -40.3968 H         1 UNK         0.0970 
    116 H116       17.1197  -34.2800  -42.7150 H         1 UNK         0.0612 
    117 H117       17.6009  -34.8269  -44.2979 H         1 UNK         0.0612 
@<TRIPOS>BOND
     1    1    2 1    
     2    1   62 1    
     3    1   63 1    
     4    1   64 1    
     5    2    3 2    
     6    2    4 am   BACKBONE|DICT|INTERRES
     7    4    5 1    
     8    4   65 1    
     9    5    6 1    
    10    5   25 1    
    11    5   66 1    
    12    6    7 1    
    13    6   67 1    
    14    6   68 1    
    15    7    8 1    
    16    8    9 1    
    17    8   69 1    
    18    8   70 1    
    19    9   10 ar   
    20    9   14 ar   
    21   10   11 ar   
    22   10   71 1    
    23   11   12 ar   
    24   11   61 1    
    25   12   13 ar   
    26   12   72 1    
    27   13   14 ar   
    28   13   15 1    
    29   14   73 1    
    30   15   16 1    
    31   15   74 1    
    32   15   75 1    
    33   16   17 1    
    34   17   18 1    
    35   17   76 1    
    36   17   77 1    
    37   18   19 1    
    38   18   27 1    
    39   18   78 1    
    40   19   20 am   BACKBONE|DICT|INTERRES
    41   19   79 1    
    42   20   21 2    
    43   20   22 1    
    44   22   23 1    
    45   22   24 1    
    46   22   80 1    
    47   23   81 1    
    48   23   82 1    
    49   23   83 1    
    50   24   25 am   BACKBONE|DICT|INTERRES
    51   24   84 1    
    52   25   26 2    
    53   27   28 2    
    54   27   29 am   BACKBONE|DICT|INTERRES
    55   29   30 1    
    56   29   85 1    
    57   30   31 1    
    58   30   32 1    
    59   30   86 1    
    60   31   87 1    
    61   31   88 1    
    62   31   89 1    
    63   32   33 2    
    64   32   34 am   BACKBONE|DICT|INTERRES
    65   34   35 1    
    66   34   90 1    
    67   35   36 1    
    68   35   37 1    
    69   35   91 1    
    70   36   92 1    
    71   36   93 1    
    72   36   94 1    
    73   37   38 2    
    74   37   39 am   BACKBONE|DICT|INTERRES
    75   39   40 1    
    76   39   95 1    
    77   40   41 1    
    78   40   42 1    
    79   40   96 1    
    80   41   97 1    
    81   41   98 1    
    82   41   99 1    
    83   42   43 2    
    84   42   44 am   BACKBONE|DICT|INTERRES
    85   44   45 1    
    86   44  100 1    
    87   45   46 1    
    88   45   47 1    
    89   45  101 1    
    90   46  102 1    
    91   46  103 1    
    92   46  104 1    
    93   47   48 2    
    94   47   49 am   BACKBONE|DICT|INTERRES
    95   49   50 1    
    96   49  105 1    
    97   50   51 1    
    98   50   52 1    
    99   50  106 1    
   100   51  107 1    
   101   51  108 1    
   102   51  109 1    
   103   52   53 2    
   104   52   54 am   BACKBONE|DICT|INTERRES
   105   54   55 1    
   106   54  110 1    
   107   55   56 1    
   108   55   59 1    
   109   55  111 1    
   110   56   57 am   BACKBONE|DICT|INTERRES
   111   56   58 2    
   112   57  112 1    
   113   57  113 1    
   114   59   60 1    
   115   59  114 1    
   116   59  115 1    
   117   60   61 1    
   118   61  116 1    
   119   61  117 1    
@<TRIPOS>SUBSTRUCTURE
     1 UNK         1 GROUP             0       ****    0 ROOT    
