@<TRIPOS>MOLECULE
3R8
117   119    1
SMALL
USER_CHARGES


@<TRIPOS>ATOM
      1 CA         21.0908  -24.6743  -39.1623 C.3       0 UNK        -0.2013 
      2 C          20.1449  -24.7591  -40.3497 C.2       0 UNK         0.4866 
      3 O          19.5705  -23.7434  -40.7436 O.2       0 UNK        -0.5176 
      4 N          19.9606  -25.9620  -40.9115 N.am      1 UNK        -0.4884 
      5 CA         19.0794  -26.2030  -42.0589 C.3       1 UNK         0.0853 
      6 C6         18.7154  -27.7009  -42.1915 C.3       10 UNK        -0.0849 
      7 S7         17.0793  -27.9257  -42.9588 S.3       10 UNK        -0.2776 
      8 C8         16.9543  -29.7424  -42.9755 C.3       10 UNK         0.0316 
      9 C9         17.9660  -30.3829  -43.9163 C.ar      10 UNK        -0.0863 
     10 C10        18.9006  -31.3013  -43.4321 C.ar      10 UNK        -0.1009 
     11 C11        19.7948  -31.9302  -44.3038 C.ar      10 UNK        -0.0712 
     12 C12        19.7828  -31.5974  -45.6626 C.ar      10 UNK        -0.0894 
     13 C13        18.8643  -30.6664  -46.1596 C.ar      10 UNK        -0.0745 
     14 C14        17.9454  -30.0815  -45.2803 C.ar      10 UNK        -0.0972 
     15 C15        18.8296  -30.3551  -47.6540 C.3       10 UNK         0.0209 
     16 S16        18.4939  -28.5989  -48.0247 S.3       10 UNK        -0.2568 
     17 C17        20.1352  -27.9452  -48.4889 C.3       10 UNK        -0.0983 
     18 CA         20.9358  -27.2440  -47.3540 C.3       3 UNK         0.0876 
     19 N          20.0981  -26.3964  -46.4988 N.am      3 UNK        -0.4424 
     20 C          20.1482  -25.0615  -46.4453 C.2       2 UNK         0.4918 
     21 O          20.9103  -24.3735  -47.1250 O.2       2 UNK        -0.4875 
     22 CA         19.1964  -24.3622  -45.4567 C.3       2 UNK         0.0481 
     23 CB         17.9095  -23.9346  -46.1802 C.3       2 UNK        -0.1831 
     24 N          18.8385  -25.1269  -44.2538 N.am      2 UNK        -0.4498 
     25 C          19.6944  -25.6390  -43.3576 C.2       1 UNK         0.5027 
     26 O          20.9158  -25.6927  -43.5279 O.2       1 UNK        -0.4969 
     27 C          21.8329  -28.1837  -46.5201 C.2       3 UNK         0.5005 
     28 O          22.2767  -29.2144  -47.0301 O.2       3 UNK        -0.5279 
     29 N          22.1290  -27.7925  -45.2718 N.am      4 UNK        -0.4463 
     30 CA         23.0791  -28.4709  -44.3863 C.3       4 UNK         0.0283 
     31 CB         22.3145  -29.2287  -43.2928 C.3       4 UNK        -0.1875 
     32 C          24.0766  -27.4955  -43.7452 C.2       4 UNK         0.4949 
     33 O          25.2245  -27.8821  -43.5283 O.2       4 UNK        -0.5039 
     34 N          23.6219  -26.2723  -43.4239 N.am      5 UNK        -0.4663 
     35 CA         24.3282  -25.2277  -42.6642 C.3       5 UNK         0.0242 
     36 CB         25.5893  -24.7404  -43.4093 C.3       5 UNK        -0.1982 
     37 C          24.6106  -25.6293  -41.1999 C.2       5 UNK         0.5017 
     38 O          25.5161  -25.0792  -40.5715 O.2       5 UNK        -0.5012 
     39 N          23.8155  -26.5726  -40.6846 N.am      6 UNK        -0.4439 
     40 CA         23.8693  -27.1706  -39.3565 C.3       6 UNK         0.0297 
     41 CB         25.0995  -28.0932  -39.2402 C.3       6 UNK        -0.2006 
     42 C          22.5706  -27.9635  -39.1602 C.2       6 UNK         0.4892 
     43 O          21.8017  -28.1246  -40.1136 O.2       6 UNK        -0.5089 
     44 N          22.3493  -28.4695  -37.9425 N.am      7 UNK        -0.4243 
     45 CA         21.2532  -29.3865  -37.6101 C.3       7 UNK         0.0196 
     46 CB         20.8270  -29.1490  -36.1491 C.3       7 UNK        -0.2007 
     47 C          21.6740  -30.8455  -37.8818 C.2       7 UNK         0.5020 
     48 O          21.6015  -31.6920  -36.9890 O.2       7 UNK        -0.5147 
     49 N          22.1638  -31.0982  -39.1004 N.am      8 UNK        -0.4734 
     50 CA         22.6977  -32.3854  -39.5447 C.3       8 UNK         0.0238 
     51 CB         23.7808  -32.1210  -40.6064 C.3       8 UNK        -0.1912 
     52 C          21.5995  -33.3003  -40.1112 C.2       8 UNK         0.5038 
     53 O          20.4784  -32.8482  -40.3503 O.2       8 UNK        -0.5046 
     54 N          21.9808  -34.5641  -40.3368 N.am      9 UNK        -0.4200 
     55 CA         21.2303  -35.6489  -40.9951 C.3       9 UNK         0.0839 
     56 C          19.8894  -36.0981  -40.3356 C.2       9 UNK         0.5513 
     57 N          19.5215  -35.5971  -39.1634 N.am      9 UNK        -0.7519 
     58 O          19.1981  -36.9628  -40.8684 O.2       9 UNK        -0.4960 
     59 C59        21.1889  -35.5079  -42.5490 C.3       10 UNK        -0.0876 
     60 S60        19.8551  -34.4684  -43.2402 S.3       10 UNK        -0.2414 
     61 C61        20.7589  -32.9789  -43.7699 C.3       10 UNK         0.0169 
     62 H62        22.1154  -24.5290  -39.5017 H         1 UNK         0.0903 
     63 H63        20.8239  -23.8323  -38.5240 H         1 UNK         0.0903 
     64 H64        21.0423  -25.5758  -38.5534 H         1 UNK         0.0903 
     65 H65        20.4935  -26.7631  -40.5838 H         1 UNK         0.3096 
     66 H66        18.1614  -25.6453  -41.8567 H         1 UNK         0.1121 
     67 H67        18.6773  -28.1713  -41.2072 H         1 UNK         0.0849 
     68 H68        19.4645  -28.2533  -42.7595 H         1 UNK         0.0849 
     69 H69        17.0701  -30.1196  -41.9581 H         1 UNK         0.0865 
     70 H70        15.9497  -30.0243  -43.2937 H         1 UNK         0.0865 
     71 H71        18.9181  -31.5569  -42.3806 H         1 UNK         0.1346 
     72 H72        20.4790  -32.0763  -46.3376 H         1 UNK         0.1412 
     73 H73        17.2073  -29.3850  -45.6537 H         1 UNK         0.1426 
     74 H74        18.0405  -30.9570  -48.1062 H         1 UNK         0.0716 
     75 H75        19.7603  -30.6619  -48.1333 H         1 UNK         0.0716 
     76 H76        19.9446  -27.2050  -49.2673 H         1 UNK         0.0695 
     77 H77        20.7209  -28.7184  -48.9885 H         1 UNK         0.0695 
     78 H78        21.6682  -26.6127  -47.8618 H         1 UNK         0.0983 
     79 H79        19.4271  -26.8820  -45.9206 H         1 UNK         0.3095 
     80 H80        19.7050  -23.4591  -45.1136 H         1 UNK         0.0454 
     81 H81        17.3274  -24.7961  -46.5102 H         1 UNK         0.0851 
     82 H82        18.1370  -23.3380  -47.0649 H         1 UNK         0.0851 
     83 H83        17.2744  -23.3243  -45.5380 H         1 UNK         0.0851 
     84 H84        17.8512  -25.1794  -44.0453 H         1 UNK         0.2976 
     85 H85        21.7215  -26.9301  -44.9285 H         1 UNK         0.3116 
     86 H86        23.6698  -29.1947  -44.9519 H         1 UNK         0.0646 
     87 H87        21.6992  -28.5569  -42.6976 H         1 UNK         0.0847 
     88 H88        23.0027  -29.7259  -42.6103 H         1 UNK         0.0847 
     89 H89        21.6659  -29.9901  -43.7210 H         1 UNK         0.0847 
     90 H90        22.6369  -26.0648  -43.5835 H         1 UNK         0.3040 
     91 H91        23.6374  -24.3846  -42.6078 H         1 UNK         0.1015 
     92 H92        26.3713  -25.4997  -43.4267 H         1 UNK         0.0786 
     93 H93        26.0095  -23.8564  -42.9281 H         1 UNK         0.0786 
     94 H94        25.3608  -24.4686  -44.4398 H         1 UNK         0.0786 
     95 H95        23.0715  -26.9493  -41.2595 H         1 UNK         0.3172 
     96 H96        23.9167  -26.3792  -38.6061 H         1 UNK         0.0595 
     97 H97        25.1506  -28.5727  -38.2622 H         1 UNK         0.0839 
     98 H98        26.0287  -27.5381  -39.3691 H         1 UNK         0.0839 
     99 H99        25.0795  -28.8834  -39.9920 H         1 UNK         0.0839 
    100 H100       23.0370  -28.3147  -37.2186 H         1 UNK         0.2998 
    101 H101       20.3894  -29.1762  -38.2451 H         1 UNK         0.0822 
    102 H102       20.5083  -28.1182  -35.9925 H         1 UNK         0.0787 
    103 H103       19.9874  -29.7905  -35.8778 H         1 UNK         0.0787 
    104 H104       21.6383  -29.3594  -35.4511 H         1 UNK         0.0787 
    105 H105       22.1214  -30.3570  -39.7880 H         1 UNK         0.3055 
    106 H106       23.1595  -32.8906  -38.6928 H         1 UNK         0.1106 
    107 H107       24.3068  -33.0384  -40.8730 H         1 UNK         0.0828 
    108 H108       23.3547  -31.7179  -41.5244 H         1 UNK         0.0828 
    109 H109       24.5316  -31.4180  -40.2453 H         1 UNK         0.0828 
    110 H110       22.9169  -34.8226  -40.0602 H         1 UNK         0.2931 
    111 H111       21.8753  -36.5095  -40.8125 H         1 UNK         0.0412 
    112 H112       20.0657  -34.8681  -38.7303 H         1 UNK         0.3472 
    113 H113       18.6631  -35.9106  -38.7379 H         1 UNK         0.3472 
    114 H114       21.0644  -36.4997  -42.9869 H         1 UNK         0.0970 
    115 H115       22.1533  -35.1574  -42.9195 H         1 UNK         0.0970 
    116 H116       21.3165  -32.5617  -42.9320 H         1 UNK         0.0612 
    117 H117       21.4933  -33.2544  -44.5282 H         1 UNK         0.0612 
@<TRIPOS>BOND
     1    1    2 1    
     2    1   62 1    
     3    1   63 1    
     4    1   64 1    
     5    2    3 2    
     6    2    4 am   BACKBONE|DICT|INTERRES
     7    4    5 1    
     8    4   65 1    
     9    5    6 1    
    10    5   25 1    
    11    5   66 1    
    12    6    7 1    
    13    6   67 1    
    14    6   68 1    
    15    7    8 1    
    16    8    9 1    
    17    8   69 1    
    18    8   70 1    
    19    9   10 ar   
    20    9   14 ar   
    21   10   11 ar   
    22   10   71 1    
    23   11   12 ar   
    24   11   61 1    
    25   12   13 ar   
    26   12   72 1    
    27   13   14 ar   
    28   13   15 1    
    29   14   73 1    
    30   15   16 1    
    31   15   74 1    
    32   15   75 1    
    33   16   17 1    
    34   17   18 1    
    35   17   76 1    
    36   17   77 1    
    37   18   19 1    
    38   18   27 1    
    39   18   78 1    
    40   19   20 am   BACKBONE|DICT|INTERRES
    41   19   79 1    
    42   20   21 2    
    43   20   22 1    
    44   22   23 1    
    45   22   24 1    
    46   22   80 1    
    47   23   81 1    
    48   23   82 1    
    49   23   83 1    
    50   24   25 am   BACKBONE|DICT|INTERRES
    51   24   84 1    
    52   25   26 2    
    53   27   28 2    
    54   27   29 am   BACKBONE|DICT|INTERRES
    55   29   30 1    
    56   29   85 1    
    57   30   31 1    
    58   30   32 1    
    59   30   86 1    
    60   31   87 1    
    61   31   88 1    
    62   31   89 1    
    63   32   33 2    
    64   32   34 am   BACKBONE|DICT|INTERRES
    65   34   35 1    
    66   34   90 1    
    67   35   36 1    
    68   35   37 1    
    69   35   91 1    
    70   36   92 1    
    71   36   93 1    
    72   36   94 1    
    73   37   38 2    
    74   37   39 am   BACKBONE|DICT|INTERRES
    75   39   40 1    
    76   39   95 1    
    77   40   41 1    
    78   40   42 1    
    79   40   96 1    
    80   41   97 1    
    81   41   98 1    
    82   41   99 1    
    83   42   43 2    
    84   42   44 am   BACKBONE|DICT|INTERRES
    85   44   45 1    
    86   44  100 1    
    87   45   46 1    
    88   45   47 1    
    89   45  101 1    
    90   46  102 1    
    91   46  103 1    
    92   46  104 1    
    93   47   48 2    
    94   47   49 am   BACKBONE|DICT|INTERRES
    95   49   50 1    
    96   49  105 1    
    97   50   51 1    
    98   50   52 1    
    99   50  106 1    
   100   51  107 1    
   101   51  108 1    
   102   51  109 1    
   103   52   53 2    
   104   52   54 am   BACKBONE|DICT|INTERRES
   105   54   55 1    
   106   54  110 1    
   107   55   56 1    
   108   55   59 1    
   109   55  111 1    
   110   56   57 am   BACKBONE|DICT|INTERRES
   111   56   58 2    
   112   57  112 1    
   113   57  113 1    
   114   59   60 1    
   115   59  114 1    
   116   59  115 1    
   117   60   61 1    
   118   61  116 1    
   119   61  117 1    
@<TRIPOS>SUBSTRUCTURE
     1 UNK         1 GROUP             0       ****    0 ROOT    
