@<TRIPOS>MOLECULE
3R8
117   119    1
SMALL
USER_CHARGES


@<TRIPOS>ATOM
      1 CA         15.3521  -25.4935  -45.4607 C.3       0 UNK        -0.2013 
      2 C          16.8325  -25.6714  -45.1643 C.2       0 UNK         0.4866 
      3 O          17.1839  -26.2050  -44.1122 O.2       0 UNK        -0.5176 
      4 N          17.7061  -25.2083  -46.0723 N.am      1 UNK        -0.4884 
      5 CA         19.1782  -25.3477  -46.0643 C.3       1 UNK         0.0853 
      6 C6         19.6440  -26.8310  -46.1096 C.3       10 UNK        -0.0849 
      7 S7         19.0182  -27.7793  -47.5405 S.3       10 UNK        -0.2776 
      8 C8         17.6881  -28.8094  -46.8220 C.3       10 UNK         0.0316 
      9 C9         18.1049  -29.5760  -45.5700 C.ar      10 UNK        -0.0863 
     10 C10        19.2215  -30.4190  -45.5897 C.ar      10 UNK        -0.1009 
     11 C11        19.6068  -31.1095  -44.4378 C.ar      10 UNK        -0.0712 
     12 C12        18.8549  -30.9682  -43.2694 C.ar      10 UNK        -0.0894 
     13 C13        17.7347  -30.1352  -43.2317 C.ar      10 UNK        -0.0745 
     14 C14        17.3658  -29.4410  -44.3880 C.ar      10 UNK        -0.0972 
     15 C15        16.9105  -30.0130  -41.9532 C.3       10 UNK         0.0209 
     16 S16        17.9152  -29.5820  -40.4893 S.3       10 UNK        -0.2568 
     17 C17        18.1669  -27.7885  -40.7086 C.3       10 UNK        -0.0983 
     18 CA         19.4021  -27.4422  -41.5759 C.3       3 UNK         0.0876 
     19 N          19.3109  -26.0802  -42.1231 N.am      3 UNK        -0.4424 
     20 C          19.9052  -24.9233  -41.7771 C.2       2 UNK         0.4918 
     21 O          20.7237  -24.7961  -40.8675 O.2       2 UNK        -0.4875 
     22 CA         19.4914  -23.6786  -42.6003 C.3       2 UNK         0.0481 
     23 CB         20.5111  -22.5218  -42.5487 C.3       2 UNK        -0.1831 
     24 N          19.1237  -24.0143  -43.9805 N.am      2 UNK        -0.4498 
     25 C          19.8933  -24.6257  -44.8944 C.2       1 UNK         0.5027 
     26 O          21.1197  -24.6961  -44.8090 O.2       1 UNK        -0.4969 
     27 C          20.7496  -27.8503  -40.9397 C.2       3 UNK         0.5005 
     28 O          21.5247  -28.5744  -41.5676 O.2       3 UNK        -0.5279 
     29 N          21.0258  -27.3735  -39.7172 N.am      4 UNK        -0.4463 
     30 CA         22.2875  -27.5716  -38.9944 C.3       4 UNK         0.0283 
     31 CB         22.1851  -26.9265  -37.6042 C.3       4 UNK        -0.1875 
     32 C          23.5258  -27.0420  -39.7438 C.2       4 UNK         0.4949 
     33 O          24.6124  -27.5912  -39.5680 O.2       4 UNK        -0.5039 
     34 N          23.3411  -26.0361  -40.6115 N.am      5 UNK        -0.4663 
     35 CA         24.3610  -25.5347  -41.5402 C.3       5 UNK         0.0242 
     36 CB         23.8532  -24.2443  -42.1968 C.3       5 UNK        -0.1982 
     37 C          24.7623  -26.5562  -42.6233 C.2       5 UNK         0.5017 
     38 O          25.8780  -26.4753  -43.1367 O.2       5 UNK        -0.5012 
     39 N          23.8700  -27.5106  -42.9247 N.am      6 UNK        -0.4439 
     40 CA         24.1112  -28.6663  -43.7918 C.3       6 UNK         0.0297 
     41 CB         22.8875  -28.8671  -44.7051 C.3       6 UNK        -0.2006 
     42 C          24.4261  -29.9308  -42.9651 C.2       6 UNK         0.4892 
     43 O          24.3058  -31.0398  -43.4869 O.2       6 UNK        -0.5089 
     44 N          24.8116  -29.7436  -41.6913 N.am      7 UNK        -0.4243 
     45 CA         25.1557  -30.7553  -40.6865 C.3       7 UNK         0.0196 
     46 CB         26.3900  -31.5732  -41.1244 C.3       7 UNK        -0.2007 
     47 C          23.9734  -31.6474  -40.2648 C.2       7 UNK         0.5020 
     48 O          24.2040  -32.7459  -39.7591 O.2       7 UNK        -0.5147 
     49 N          22.7318  -31.1881  -40.4896 N.am      8 UNK        -0.4734 
     50 CA         21.4441  -31.8365  -40.1848 C.3       8 UNK         0.0238 
     51 CB         21.2720  -32.0403  -38.6670 C.3       8 UNK        -0.1912 
     52 C          21.1394  -33.1359  -40.9635 C.2       8 UNK         0.5038 
     53 O          19.9678  -33.5027  -41.0421 O.2       8 UNK        -0.5046 
     54 N          22.1694  -33.7774  -41.5332 N.am      9 UNK        -0.4200 
     55 CA         22.1655  -34.9240  -42.4608 C.3       9 UNK         0.0839 
     56 C          21.3472  -36.1857  -42.0447 C.2       9 UNK         0.5513 
     57 N          21.0439  -36.3804  -40.7674 N.am      9 UNK        -0.7519 
     58 O          21.0273  -37.0301  -42.8782 O.2       9 UNK        -0.4960 
     59 C59        22.0052  -34.4988  -43.9517 C.3       10 UNK        -0.0876 
     60 S60        20.3960  -33.7574  -44.3918 S.3       10 UNK        -0.2414 
     61 C61        20.8425  -31.9941  -44.4372 C.3       10 UNK         0.0169 
     62 H62        14.8856  -24.8837  -44.6875 H         1 UNK         0.0903 
     63 H63        15.1826  -25.0118  -46.4234 H         1 UNK         0.0903 
     64 H64        14.8557  -26.4633  -45.4745 H         1 UNK         0.0903 
     65 H65        17.3399  -24.7539  -46.8983 H         1 UNK         0.3096 
     66 H66        19.5350  -24.8580  -46.9720 H         1 UNK         0.1121 
     67 H67        19.3935  -27.3378  -45.1775 H         1 UNK         0.0849 
     68 H68        20.7320  -26.8790  -46.1770 H         1 UNK         0.0849 
     69 H69        16.8257  -28.1750  -46.6179 H         1 UNK         0.0865 
     70 H70        17.3591  -29.5262  -47.5752 H         1 UNK         0.0865 
     71 H71        19.7975  -30.5237  -46.4989 H         1 UNK         0.1346 
     72 H72        19.1399  -31.5117  -42.3821 H         1 UNK         0.1412 
     73 H73        16.5001  -28.7934  -44.3664 H         1 UNK         0.1426 
     74 H74        16.1077  -29.2834  -42.0701 H         1 UNK         0.0716 
     75 H75        16.4260  -30.9723  -41.7670 H         1 UNK         0.0716 
     76 H76        18.2345  -27.3195  -39.7260 H         1 UNK         0.0695 
     77 H77        17.2647  -27.3778  -41.1653 H         1 UNK         0.0695 
     78 H78        19.3318  -28.0586  -42.4727 H         1 UNK         0.0983 
     79 H79        18.6410  -26.0181  -42.8867 H         1 UNK         0.3095 
     80 H80        18.5764  -23.3170  -42.1295 H         1 UNK         0.0454 
     81 H81        20.1143  -21.6301  -43.0335 H         1 UNK         0.0851 
     82 H82        21.4478  -22.7730  -43.0421 H         1 UNK         0.0851 
     83 H83        20.7475  -22.2481  -41.5199 H         1 UNK         0.0851 
     84 H84        18.1303  -24.0228  -44.1688 H         1 UNK         0.2976 
     85 H85        20.3633  -26.7348  -39.3002 H         1 UNK         0.3116 
     86 H86        22.4227  -28.6471  -38.8631 H         1 UNK         0.0646 
     87 H87        21.3697  -27.3587  -37.0240 H         1 UNK         0.0847 
     88 H88        23.1025  -27.0805  -37.0342 H         1 UNK         0.0847 
     89 H89        22.0194  -25.8504  -37.6704 H         1 UNK         0.0847 
     90 H90        22.4131  -25.6231  -40.6809 H         1 UNK         0.3040 
     91 H91        25.2564  -25.2997  -40.9603 H         1 UNK         0.1015 
     92 H92        22.9959  -24.4449  -42.8390 H         1 UNK         0.0786 
     93 H93        24.6264  -23.7910  -42.8186 H         1 UNK         0.0786 
     94 H94        23.5556  -23.5045  -41.4534 H         1 UNK         0.0786 
     95 H95        22.9920  -27.5360  -42.4140 H         1 UNK         0.3172 
     96 H96        24.9773  -28.4802  -44.4296 H         1 UNK         0.0595 
     97 H97        21.9878  -29.1021  -44.1356 H         1 UNK         0.0839 
     98 H98        23.0502  -29.6842  -45.4087 H         1 UNK         0.0839 
     99 H99        22.6870  -27.9726  -45.2936 H         1 UNK         0.0839 
    100 H100       24.8486  -28.7907  -41.3490 H         1 UNK         0.2998 
    101 H101       25.4363  -30.2004  -39.7902 H         1 UNK         0.0822 
    102 H102       26.7479  -32.2082  -40.3130 H         1 UNK         0.0787 
    103 H103       26.1667  -32.2245  -41.9700 H         1 UNK         0.0787 
    104 H104       27.2161  -30.9222  -41.4105 H         1 UNK         0.0787 
    105 H105       22.6431  -30.2896  -40.9543 H         1 UNK         0.3055 
    106 H106       20.6838  -31.1207  -40.5016 H         1 UNK         0.1106 
    107 H107       20.2731  -32.4132  -38.4364 H         1 UNK         0.0828 
    108 H108       21.9859  -32.7606  -38.2670 H         1 UNK         0.0828 
    109 H109       21.3986  -31.1031  -38.1252 H         1 UNK         0.0828 
    110 H110       23.0884  -33.4279  -41.2897 H         1 UNK         0.2931 
    111 H111       23.1910  -35.2881  -42.3891 H         1 UNK         0.0412 
    112 H112       20.5287  -37.2044  -40.4999 H         1 UNK         0.3472 
    113 H113       21.2887  -35.6886  -40.0770 H         1 UNK         0.3472 
    114 H114       22.7998  -33.7970  -44.2117 H         1 UNK         0.0970 
    115 H115       22.1671  -35.3572  -44.6059 H         1 UNK         0.0970 
    116 H116       21.4577  -31.7426  -43.5722 H         1 UNK         0.0612 
    117 H117       21.4585  -31.8033  -45.3172 H         1 UNK         0.0612 
@<TRIPOS>BOND
     1    1    2 1    
     2    1   62 1    
     3    1   63 1    
     4    1   64 1    
     5    2    3 2    
     6    2    4 am   BACKBONE|DICT|INTERRES
     7    4    5 1    
     8    4   65 1    
     9    5    6 1    
    10    5   25 1    
    11    5   66 1    
    12    6    7 1    
    13    6   67 1    
    14    6   68 1    
    15    7    8 1    
    16    8    9 1    
    17    8   69 1    
    18    8   70 1    
    19    9   10 ar   
    20    9   14 ar   
    21   10   11 ar   
    22   10   71 1    
    23   11   12 ar   
    24   11   61 1    
    25   12   13 ar   
    26   12   72 1    
    27   13   14 ar   
    28   13   15 1    
    29   14   73 1    
    30   15   16 1    
    31   15   74 1    
    32   15   75 1    
    33   16   17 1    
    34   17   18 1    
    35   17   76 1    
    36   17   77 1    
    37   18   19 1    
    38   18   27 1    
    39   18   78 1    
    40   19   20 am   BACKBONE|DICT|INTERRES
    41   19   79 1    
    42   20   21 2    
    43   20   22 1    
    44   22   23 1    
    45   22   24 1    
    46   22   80 1    
    47   23   81 1    
    48   23   82 1    
    49   23   83 1    
    50   24   25 am   BACKBONE|DICT|INTERRES
    51   24   84 1    
    52   25   26 2    
    53   27   28 2    
    54   27   29 am   BACKBONE|DICT|INTERRES
    55   29   30 1    
    56   29   85 1    
    57   30   31 1    
    58   30   32 1    
    59   30   86 1    
    60   31   87 1    
    61   31   88 1    
    62   31   89 1    
    63   32   33 2    
    64   32   34 am   BACKBONE|DICT|INTERRES
    65   34   35 1    
    66   34   90 1    
    67   35   36 1    
    68   35   37 1    
    69   35   91 1    
    70   36   92 1    
    71   36   93 1    
    72   36   94 1    
    73   37   38 2    
    74   37   39 am   BACKBONE|DICT|INTERRES
    75   39   40 1    
    76   39   95 1    
    77   40   41 1    
    78   40   42 1    
    79   40   96 1    
    80   41   97 1    
    81   41   98 1    
    82   41   99 1    
    83   42   43 2    
    84   42   44 am   BACKBONE|DICT|INTERRES
    85   44   45 1    
    86   44  100 1    
    87   45   46 1    
    88   45   47 1    
    89   45  101 1    
    90   46  102 1    
    91   46  103 1    
    92   46  104 1    
    93   47   48 2    
    94   47   49 am   BACKBONE|DICT|INTERRES
    95   49   50 1    
    96   49  105 1    
    97   50   51 1    
    98   50   52 1    
    99   50  106 1    
   100   51  107 1    
   101   51  108 1    
   102   51  109 1    
   103   52   53 2    
   104   52   54 am   BACKBONE|DICT|INTERRES
   105   54   55 1    
   106   54  110 1    
   107   55   56 1    
   108   55   59 1    
   109   55  111 1    
   110   56   57 am   BACKBONE|DICT|INTERRES
   111   56   58 2    
   112   57  112 1    
   113   57  113 1    
   114   59   60 1    
   115   59  114 1    
   116   59  115 1    
   117   60   61 1    
   118   61  116 1    
   119   61  117 1    
@<TRIPOS>SUBSTRUCTURE
     1 UNK         1 GROUP             0       ****    0 ROOT    
