@<TRIPOS>MOLECULE
3R8
117   119    1
SMALL
USER_CHARGES


@<TRIPOS>ATOM
      1 CA         14.1650  -23.1850  -48.8950 C.3       0 UNK        -0.2013 
      2 C          15.1875  -24.2854  -48.6524 C.2       0 UNK         0.4866 
      3 O          15.9635  -24.6092  -49.5524 O.2       0 UNK        -0.5176 
      4 N          15.1900  -24.8683  -47.4469 N.am      1 UNK        -0.4884 
      5 CA         16.1498  -25.8914  -47.0188 C.3       1 UNK         0.0853 
      6 C6         15.6227  -26.6669  -45.7858 C.3       10 UNK        -0.0849 
      7 S7         16.3334  -28.3426  -45.6636 S.3       10 UNK        -0.2776 
      8 C8         15.4413  -28.9971  -44.2172 C.3       10 UNK         0.0316 
      9 C9         16.2471  -28.8238  -42.9383 C.ar      10 UNK        -0.0863 
     10 C10        16.9812  -29.8978  -42.4246 C.ar      10 UNK        -0.1009 
     11 C11        17.7164  -29.7544  -41.2450 C.ar      10 UNK        -0.0712 
     12 C12        17.7183  -28.5259  -40.5798 C.ar      10 UNK        -0.0894 
     13 C13        17.0092  -27.4371  -41.0968 C.ar      10 UNK        -0.0745 
     14 C14        16.2601  -27.5971  -42.2665 C.ar      10 UNK        -0.0972 
     15 C15        17.0876  -26.0804  -40.4112 C.3       10 UNK         0.0209 
     16 S16        18.7912  -25.4274  -40.3922 S.3       10 UNK        -0.2568 
     17 C17        19.1360  -25.1549  -42.1670 C.3       10 UNK        -0.0983 
     18 CA         19.7750  -26.3841  -42.8738 C.3       3 UNK         0.0876 
     19 N          19.6355  -26.3231  -44.3336 N.am      3 UNK        -0.4424 
     20 C          20.2850  -25.4942  -45.1664 C.2       2 UNK         0.4918 
     21 O          21.0922  -24.6370  -44.8073 O.2       2 UNK        -0.4875 
     22 CA         19.9824  -25.6497  -46.6677 C.3       2 UNK         0.0481 
     23 CB         20.9425  -26.6696  -47.3011 C.3       2 UNK        -0.1831 
     24 N          18.5980  -26.0459  -46.9420 N.am      2 UNK        -0.4498 
     25 C          17.5302  -25.2628  -46.7334 C.2       1 UNK         0.5027 
     26 O          17.6007  -24.1080  -46.3030 O.2       1 UNK        -0.4969 
     27 C          21.2305  -26.6945  -42.4542 C.2       3 UNK         0.5005 
     28 O          21.8458  -25.9573  -41.6799 O.2       3 UNK        -0.5279 
     29 N          21.7664  -27.7960  -42.9980 N.am      4 UNK        -0.4463 
     30 CA         23.1203  -28.3060  -42.7630 C.3       4 UNK         0.0283 
     31 CB         23.4936  -29.2241  -43.9386 C.3       4 UNK        -0.1875 
     32 C          23.2407  -29.0177  -41.3999 C.2       4 UNK         0.4949 
     33 O          23.6431  -30.1821  -41.3412 O.2       4 UNK        -0.5039 
     34 N          22.8634  -28.3055  -40.3297 N.am      5 UNK        -0.4663 
     35 CA         22.6916  -28.8007  -38.9594 C.3       5 UNK         0.0242 
     36 CB         22.2130  -27.6436  -38.0683 C.3       5 UNK        -0.1982 
     37 C          23.9349  -29.4710  -38.3504 C.2       5 UNK         0.5017 
     38 O          23.7919  -30.4074  -37.5642 O.2       5 UNK        -0.5012 
     39 N          25.1208  -28.9834  -38.7328 N.am      6 UNK        -0.4439 
     40 CA         26.4234  -29.4854  -38.2918 C.3       6 UNK         0.0297 
     41 CB         27.3453  -28.2793  -38.0344 C.3       6 UNK        -0.2006 
     42 C          27.0675  -30.4616  -39.2964 C.2       6 UNK         0.4892 
     43 O          28.2116  -30.8616  -39.0731 O.2       6 UNK        -0.5089 
     44 N          26.3663  -30.8099  -40.3844 N.am      7 UNK        -0.4243 
     45 CA         26.8815  -31.6344  -41.4745 C.3       7 UNK         0.0196 
     46 CB         27.3848  -30.7233  -42.6142 C.3       7 UNK        -0.2007 
     47 C          25.8196  -32.6598  -41.8948 C.2       7 UNK         0.5020 
     48 O          25.5859  -33.6135  -41.1516 O.2       7 UNK        -0.5147 
     49 N          25.2155  -32.4736  -43.0775 N.am      8 UNK        -0.4734 
     50 CA         24.3230  -33.4298  -43.7466 C.3       8 UNK         0.0238 
     51 CB         23.9801  -32.9148  -45.1543 C.3       8 UNK        -0.1912 
     52 C          23.0449  -33.8178  -42.9785 C.2       8 UNK         0.5038 
     53 O          22.4829  -34.8732  -43.2766 O.2       8 UNK        -0.5046 
     54 N          22.6181  -33.0029  -42.0038 N.am      9 UNK        -0.4200 
     55 CA         21.5592  -33.3667  -41.0459 C.3       9 UNK         0.0839 
     56 C          21.9634  -34.4888  -40.0421 C.2       9 UNK         0.5513 
     57 N          23.2389  -34.8207  -39.8765 N.am      9 UNK        -0.7519 
     58 O          21.0940  -35.0741  -39.4014 O.2       9 UNK        -0.4960 
     59 C59        21.0240  -32.1339  -40.2790 C.3       10 UNK        -0.0876 
     60 S60        20.2102  -30.9121  -41.3637 S.3       10 UNK        -0.2414 
     61 C61        18.5213  -30.9180  -40.6923 C.3       10 UNK         0.0169 
     62 H62        13.5191  -23.4505  -49.7315 H         1 UNK         0.0903 
     63 H63        13.5355  -23.0127  -48.0222 H         1 UNK         0.0903 
     64 H64        14.6706  -22.2507  -49.1379 H         1 UNK         0.0903 
     65 H65        14.5553  -24.5346  -46.7351 H         1 UNK         0.3096 
     66 H66        16.2598  -26.5914  -47.8510 H         1 UNK         0.1121 
     67 H67        15.7986  -26.1134  -44.8620 H         1 UNK         0.0849 
     68 H68        14.5406  -26.7887  -45.8614 H         1 UNK         0.0849 
     69 H69        14.4672  -28.5160  -44.1166 H         1 UNK         0.0865 
     70 H70        15.2339  -30.0547  -44.3878 H         1 UNK         0.0865 
     71 H71        16.9850  -30.8467  -42.9438 H         1 UNK         0.1346 
     72 H72        18.3016  -28.4048  -39.6768 H         1 UNK         0.1412 
     73 H73        15.6999  -26.7618  -42.6619 H         1 UNK         0.1426 
     74 H74        16.7362  -26.1810  -39.3834 H         1 UNK         0.0716 
     75 H75        16.4296  -25.3551  -40.8926 H         1 UNK         0.0716 
     76 H76        18.1962  -24.8928  -42.6557 H         1 UNK         0.0695 
     77 H77        19.7761  -24.2769  -42.2690 H         1 UNK         0.0695 
     78 H78        19.2072  -27.2663  -42.5841 H         1 UNK         0.0983 
     79 H79        18.9880  -26.9838  -44.7393 H         1 UNK         0.3095 
     80 H80        20.1559  -24.6818  -47.1431 H         1 UNK         0.0454 
     81 H81        20.8056  -27.6695  -46.8875 H         1 UNK         0.0851 
     82 H82        20.8023  -26.7301  -48.3805 H         1 UNK         0.0851 
     83 H83        21.9817  -26.3862  -47.1279 H         1 UNK         0.0851 
     84 H84        18.4519  -26.9856  -47.2842 H         1 UNK         0.2976 
     85 H85        21.1809  -28.3616  -43.5954 H         1 UNK         0.3116 
     86 H86        23.8174  -27.4656  -42.7555 H         1 UNK         0.0646 
     87 H87        24.5132  -29.5933  -43.8425 H         1 UNK         0.0847 
     88 H88        23.4316  -28.6984  -44.8916 H         1 UNK         0.0847 
     89 H89        22.8313  -30.0886  -43.9861 H         1 UNK         0.0847 
     90 H90        22.5447  -27.3573  -40.5125 H         1 UNK         0.3040 
     91 H91        21.8967  -29.5460  -38.9829 H         1 UNK         0.1015 
     92 H92        21.2723  -27.2273  -38.4307 H         1 UNK         0.0786 
     93 H93        22.9442  -26.8351  -38.0292 H         1 UNK         0.0786 
     94 H94        22.0433  -27.9814  -37.0449 H         1 UNK         0.0786 
     95 H95        25.1251  -28.2222  -39.3971 H         1 UNK         0.3172 
     96 H96        26.3112  -30.0265  -37.3499 H         1 UNK         0.0595 
     97 H97        26.9109  -27.5963  -37.3041 H         1 UNK         0.0839 
     98 H98        27.5390  -27.7159  -38.9482 H         1 UNK         0.0839 
     99 H99        28.3104  -28.5982  -37.6382 H         1 UNK         0.0839 
    100 H100       25.4024  -30.5032  -40.4823 H         1 UNK         0.2998 
    101 H101       27.7303  -32.2271  -41.1267 H         1 UNK         0.0822 
    102 H102       28.2400  -30.1326  -42.2850 H         1 UNK         0.0787 
    103 H103       27.7165  -31.3060  -43.4749 H         1 UNK         0.0787 
    104 H104       26.6203  -30.0239  -42.9504 H         1 UNK         0.0787 
    105 H105       25.4626  -31.6490  -43.6035 H         1 UNK         0.3055 
    106 H106       24.8932  -34.3542  -43.8634 H         1 UNK         0.1106 
    107 H107       23.4027  -31.9923  -45.1221 H         1 UNK         0.0828 
    108 H108       24.8790  -32.7309  -45.7429 H         1 UNK         0.0828 
    109 H109       23.3845  -33.6470  -45.7015 H         1 UNK         0.0828 
    110 H110       23.1152  -32.1373  -41.8240 H         1 UNK         0.2931 
    111 H111       20.7265  -33.7720  -41.6243 H         1 UNK         0.0412 
    112 H112       23.4753  -35.5512  -39.2243 H         1 UNK         0.3472 
    113 H113       23.9779  -34.3463  -40.3880 H         1 UNK         0.3472 
    114 H114       21.8469  -31.6491  -39.7541 H         1 UNK         0.0970 
    115 H115       20.3186  -32.4406  -39.5044 H         1 UNK         0.0970 
    116 H116       18.0384  -31.8665  -40.9325 H         1 UNK         0.0612 
    117 H117       18.5583  -30.8523  -39.6037 H         1 UNK         0.0612 
@<TRIPOS>BOND
     1    1    2 1    
     2    1   62 1    
     3    1   63 1    
     4    1   64 1    
     5    2    3 2    
     6    2    4 am   BACKBONE|DICT|INTERRES
     7    4    5 1    
     8    4   65 1    
     9    5    6 1    
    10    5   25 1    
    11    5   66 1    
    12    6    7 1    
    13    6   67 1    
    14    6   68 1    
    15    7    8 1    
    16    8    9 1    
    17    8   69 1    
    18    8   70 1    
    19    9   10 ar   
    20    9   14 ar   
    21   10   11 ar   
    22   10   71 1    
    23   11   12 ar   
    24   11   61 1    
    25   12   13 ar   
    26   12   72 1    
    27   13   14 ar   
    28   13   15 1    
    29   14   73 1    
    30   15   16 1    
    31   15   74 1    
    32   15   75 1    
    33   16   17 1    
    34   17   18 1    
    35   17   76 1    
    36   17   77 1    
    37   18   19 1    
    38   18   27 1    
    39   18   78 1    
    40   19   20 am   BACKBONE|DICT|INTERRES
    41   19   79 1    
    42   20   21 2    
    43   20   22 1    
    44   22   23 1    
    45   22   24 1    
    46   22   80 1    
    47   23   81 1    
    48   23   82 1    
    49   23   83 1    
    50   24   25 am   BACKBONE|DICT|INTERRES
    51   24   84 1    
    52   25   26 2    
    53   27   28 2    
    54   27   29 am   BACKBONE|DICT|INTERRES
    55   29   30 1    
    56   29   85 1    
    57   30   31 1    
    58   30   32 1    
    59   30   86 1    
    60   31   87 1    
    61   31   88 1    
    62   31   89 1    
    63   32   33 2    
    64   32   34 am   BACKBONE|DICT|INTERRES
    65   34   35 1    
    66   34   90 1    
    67   35   36 1    
    68   35   37 1    
    69   35   91 1    
    70   36   92 1    
    71   36   93 1    
    72   36   94 1    
    73   37   38 2    
    74   37   39 am   BACKBONE|DICT|INTERRES
    75   39   40 1    
    76   39   95 1    
    77   40   41 1    
    78   40   42 1    
    79   40   96 1    
    80   41   97 1    
    81   41   98 1    
    82   41   99 1    
    83   42   43 2    
    84   42   44 am   BACKBONE|DICT|INTERRES
    85   44   45 1    
    86   44  100 1    
    87   45   46 1    
    88   45   47 1    
    89   45  101 1    
    90   46  102 1    
    91   46  103 1    
    92   46  104 1    
    93   47   48 2    
    94   47   49 am   BACKBONE|DICT|INTERRES
    95   49   50 1    
    96   49  105 1    
    97   50   51 1    
    98   50   52 1    
    99   50  106 1    
   100   51  107 1    
   101   51  108 1    
   102   51  109 1    
   103   52   53 2    
   104   52   54 am   BACKBONE|DICT|INTERRES
   105   54   55 1    
   106   54  110 1    
   107   55   56 1    
   108   55   59 1    
   109   55  111 1    
   110   56   57 am   BACKBONE|DICT|INTERRES
   111   56   58 2    
   112   57  112 1    
   113   57  113 1    
   114   59   60 1    
   115   59  114 1    
   116   59  115 1    
   117   60   61 1    
   118   61  116 1    
   119   61  117 1    
@<TRIPOS>SUBSTRUCTURE
     1 UNK         1 GROUP             0       ****    0 ROOT    
