@<TRIPOS>MOLECULE
3R8
117   119    1
SMALL
USER_CHARGES


@<TRIPOS>ATOM
      1 CA         24.2702  -23.2553  -46.7903 C.3       0 UNK        -0.2013 
      2 C          23.6140  -23.9338  -45.5973 C.2       0 UNK         0.4866 
      3 O          23.3956  -23.2882  -44.5724 O.2       0 UNK        -0.5176 
      4 N          23.3056  -25.2325  -45.7219 N.am      1 UNK        -0.4884 
      5 CA         22.6347  -26.0415  -44.6976 C.3       1 UNK         0.0853 
      6 C6         22.7565  -27.5538  -45.0267 C.3       10 UNK        -0.0849 
      7 S7         21.8775  -28.6648  -43.8752 S.3       10 UNK        -0.2776 
      8 C8         20.8114  -29.5943  -45.0281 C.3       10 UNK         0.0316 
      9 C9         19.7782  -30.4221  -44.2784 C.ar      10 UNK        -0.0863 
     10 C10        20.1816  -31.3952  -43.3600 C.ar      10 UNK        -0.1009 
     11 C11        19.2391  -32.0970  -42.6051 C.ar      10 UNK        -0.0712 
     12 C12        17.8785  -31.8385  -42.7896 C.ar      10 UNK        -0.0894 
     13 C13        17.4609  -30.8843  -43.7228 C.ar      10 UNK        -0.0745 
     14 C14        18.4139  -30.1950  -44.4786 C.ar      10 UNK        -0.0972 
     15 C15        15.9815  -30.5731  -43.8872 C.3       10 UNK         0.0209 
     16 S16        15.4576  -29.2460  -42.7529 S.3       10 UNK        -0.2568 
     17 C17        16.0615  -27.7466  -43.6040 C.3       10 UNK        -0.0983 
     18 CA         17.4563  -27.2621  -43.1082 C.3       3 UNK         0.0876 
     19 N          18.2644  -26.6618  -44.1816 N.am      3 UNK        -0.4424 
     20 C          17.9650  -25.5460  -44.8640 C.2       2 UNK         0.4918 
     21 O          16.8695  -24.9877  -44.7993 O.2       2 UNK        -0.4875 
     22 CA         19.0735  -24.9128  -45.7354 C.3       2 UNK         0.0481 
     23 CB         19.1335  -23.3851  -45.5258 C.3       2 UNK        -0.1831 
     24 N          20.4258  -25.4779  -45.5926 N.am      2 UNK        -0.4498 
     25 C          21.1791  -25.5715  -44.4838 C.2       1 UNK         0.5027 
     26 O          20.7770  -25.3115  -43.3454 O.2       1 UNK        -0.4969 
     27 C          17.4045  -26.3653  -41.8434 C.2       3 UNK         0.5005 
     28 O          16.5267  -26.5398  -40.9966 O.2       3 UNK        -0.5279 
     29 N          18.3577  -25.4282  -41.7304 N.am      4 UNK        -0.4463 
     30 CA         18.5307  -24.5188  -40.6015 C.3       4 UNK         0.0283 
     31 CB         18.7769  -23.0942  -41.1264 C.3       4 UNK        -0.1875 
     32 C          19.7004  -24.9879  -39.7300 C.2       4 UNK         0.4949 
     33 O          19.5500  -25.0680  -38.5109 O.2       4 UNK        -0.5039 
     34 N          20.8371  -25.3086  -40.3667 N.am      5 UNK        -0.4663 
     35 CA         22.0252  -25.8331  -39.6880 C.3       5 UNK         0.0242 
     36 CB         23.2676  -25.5686  -40.5533 C.3       5 UNK        -0.1982 
     37 C          21.9058  -27.3337  -39.3812 C.2       5 UNK         0.5017 
     38 O          22.4362  -27.7830  -38.3654 O.2       5 UNK        -0.5012 
     39 N          21.2359  -28.0728  -40.2816 N.am      6 UNK        -0.4439 
     40 CA         21.0567  -29.5326  -40.2844 C.3       6 UNK         0.0297 
     41 CB         20.1364  -29.9736  -39.1277 C.3       6 UNK        -0.2006 
     42 C          22.3905  -30.3133  -40.3232 C.2       6 UNK         0.4892 
     43 O          22.4850  -31.4095  -39.7699 O.2       6 UNK        -0.5089 
     44 N          23.4047  -29.7217  -40.9680 N.am      7 UNK        -0.4243 
     45 CA         24.7876  -30.1987  -40.9813 C.3       7 UNK         0.0196 
     46 CB         25.7038  -29.0304  -41.3821 C.3       7 UNK        -0.2007 
     47 C          25.0299  -31.4047  -41.9025 C.2       7 UNK         0.5020 
     48 O          25.9813  -32.1501  -41.6695 O.2       7 UNK        -0.5147 
     49 N          24.2032  -31.5626  -42.9457 N.am      8 UNK        -0.4734 
     50 CA         24.3809  -32.5946  -43.9743 C.3       8 UNK         0.0238 
     51 CB         23.5674  -32.2204  -45.2234 C.3       8 UNK        -0.1912 
     52 C          24.0265  -34.0201  -43.5132 C.2       8 UNK         0.5038 
     53 O          24.5255  -34.9753  -44.1103 O.2       8 UNK        -0.5046 
     54 N          23.1668  -34.1470  -42.4944 N.am      9 UNK        -0.4200 
     55 CA         22.7279  -35.4376  -41.9426 C.3       9 UNK         0.0839 
     56 C          23.8107  -36.0720  -41.0310 C.2       9 UNK         0.5513 
     57 N          23.9579  -37.3892  -41.0678 N.am      9 UNK        -0.7519 
     58 O          24.4833  -35.3900  -40.2610 O.2       9 UNK        -0.4960 
     59 C59        21.3730  -35.3259  -41.1977 C.3       10 UNK        -0.0876 
     60 S60        20.0386  -34.7210  -42.2889 S.3       10 UNK        -0.2414 
     61 C61        19.7044  -33.0927  -41.5573 C.3       10 UNK         0.0169 
     62 H62        24.4131  -23.9421  -47.6244 H         1 UNK         0.0903 
     63 H63        23.6530  -22.4264  -47.1359 H         1 UNK         0.0903 
     64 H64        25.2450  -22.8591  -46.5070 H         1 UNK         0.0903 
     65 H65        23.5280  -25.7063  -46.5863 H         1 UNK         0.3096 
     66 H66        23.1591  -25.8661  -43.7573 H         1 UNK         0.1121 
     67 H67        23.8091  -27.8418  -45.0174 H         1 UNK         0.0849 
     68 H68        22.4128  -27.7457  -46.0446 H         1 UNK         0.0849 
     69 H69        20.3176  -28.8945  -45.7041 H         1 UNK         0.0865 
     70 H70        21.4206  -30.2454  -45.6545 H         1 UNK         0.0865 
     71 H71        21.2334  -31.5792  -43.1995 H         1 UNK         0.1346 
     72 H72        17.1455  -32.3663  -42.1948 H         1 UNK         0.1412 
     73 H73        18.0887  -29.4515  -45.1933 H         1 UNK         0.1426 
     74 H74        15.3920  -31.4665  -43.6756 H         1 UNK         0.0716 
     75 H75        15.7553  -30.3002  -44.9190 H         1 UNK         0.0716 
     76 H76        15.3146  -26.9580  -43.4962 H         1 UNK         0.0695 
     77 H77        16.0937  -27.9616  -44.6728 H         1 UNK         0.0695 
     78 H78        18.0238  -28.1355  -42.7865 H         1 UNK         0.0983 
     79 H79        19.1941  -27.0388  -44.2944 H         1 UNK         0.3095 
     80 H80        18.7798  -25.0947  -46.7700 H         1 UNK         0.0454 
     81 H81        19.8847  -22.9254  -46.1678 H         1 UNK         0.0851 
     82 H82        19.3750  -23.1288  -44.4936 H         1 UNK         0.0851 
     83 H83        18.1791  -22.9134  -45.7628 H         1 UNK         0.0851 
     84 H84        20.8648  -25.7425  -46.4636 H         1 UNK         0.2976 
     85 H85        19.0630  -25.3708  -42.4591 H         1 UNK         0.3116 
     86 H86        17.6303  -24.5014  -39.9837 H         1 UNK         0.0646 
     87 H87        19.6658  -23.0371  -41.7564 H         1 UNK         0.0847 
     88 H88        17.9301  -22.7396  -41.7142 H         1 UNK         0.0847 
     89 H89        18.9151  -22.3936  -40.3019 H         1 UNK         0.0847 
     90 H90        20.8902  -25.1966  -41.3747 H         1 UNK         0.3040 
     91 H91        22.1527  -25.3060  -38.7392 H         1 UNK         0.1015 
     92 H92        24.1763  -25.8673  -40.0287 H         1 UNK         0.0786 
     93 H93        23.3670  -24.5107  -40.7975 H         1 UNK         0.0786 
     94 H94        23.2348  -26.1287  -41.4869 H         1 UNK         0.0786 
     95 H95        20.8517  -27.5847  -41.0776 H         1 UNK         0.3172 
     96 H96        20.5396  -29.7635  -41.2142 H         1 UNK         0.0595 
     97 H97        20.6053  -29.8167  -38.1559 H         1 UNK         0.0839 
     98 H98        19.8919  -31.0336  -39.2026 H         1 UNK         0.0839 
     99 H99        19.1948  -29.4248  -39.1396 H         1 UNK         0.0839 
    100 H100       23.2246  -28.8387  -41.4226 H         1 UNK         0.2998 
    101 H101       25.0506  -30.5065  -39.9667 H         1 UNK         0.0822 
    102 H102       26.7512  -29.3358  -41.3781 H         1 UNK         0.0787 
    103 H103       25.4751  -28.6625  -42.3834 H         1 UNK         0.0787 
    104 H104       25.6095  -28.1957  -40.6870 H         1 UNK         0.0787 
    105 H105       23.4679  -30.8842  -43.0837 H         1 UNK         0.3055 
    106 H106       25.4367  -32.6055  -44.2559 H         1 UNK         0.1106 
    107 H107       22.4951  -32.2924  -45.0451 H         1 UNK         0.0828 
    108 H108       23.7931  -31.2090  -45.5620 H         1 UNK         0.0828 
    109 H109       23.7981  -32.8949  -46.0492 H         1 UNK         0.0828 
    110 H110       22.8516  -33.3178  -42.0151 H         1 UNK         0.2931 
    111 H111       22.5711  -36.1142  -42.7860 H         1 UNK         0.0412 
    112 H112       23.4039  -37.9588  -41.6892 H         1 UNK         0.3472 
    113 H113       24.6447  -37.8233  -40.4703 H         1 UNK         0.3472 
    114 H114       21.0679  -36.3055  -40.8245 H         1 UNK         0.0970 
    115 H115       21.4673  -34.6895  -40.3156 H         1 UNK         0.0970 
    116 H116       18.9620  -33.1984  -40.7648 H         1 UNK         0.0612 
    117 H117       20.6057  -32.7073  -41.0831 H         1 UNK         0.0612 
@<TRIPOS>BOND
     1    1    2 1    
     2    1   62 1    
     3    1   63 1    
     4    1   64 1    
     5    2    3 2    
     6    2    4 am   BACKBONE|DICT|INTERRES
     7    4    5 1    
     8    4   65 1    
     9    5    6 1    
    10    5   25 1    
    11    5   66 1    
    12    6    7 1    
    13    6   67 1    
    14    6   68 1    
    15    7    8 1    
    16    8    9 1    
    17    8   69 1    
    18    8   70 1    
    19    9   10 ar   
    20    9   14 ar   
    21   10   11 ar   
    22   10   71 1    
    23   11   12 ar   
    24   11   61 1    
    25   12   13 ar   
    26   12   72 1    
    27   13   14 ar   
    28   13   15 1    
    29   14   73 1    
    30   15   16 1    
    31   15   74 1    
    32   15   75 1    
    33   16   17 1    
    34   17   18 1    
    35   17   76 1    
    36   17   77 1    
    37   18   19 1    
    38   18   27 1    
    39   18   78 1    
    40   19   20 am   BACKBONE|DICT|INTERRES
    41   19   79 1    
    42   20   21 2    
    43   20   22 1    
    44   22   23 1    
    45   22   24 1    
    46   22   80 1    
    47   23   81 1    
    48   23   82 1    
    49   23   83 1    
    50   24   25 am   BACKBONE|DICT|INTERRES
    51   24   84 1    
    52   25   26 2    
    53   27   28 2    
    54   27   29 am   BACKBONE|DICT|INTERRES
    55   29   30 1    
    56   29   85 1    
    57   30   31 1    
    58   30   32 1    
    59   30   86 1    
    60   31   87 1    
    61   31   88 1    
    62   31   89 1    
    63   32   33 2    
    64   32   34 am   BACKBONE|DICT|INTERRES
    65   34   35 1    
    66   34   90 1    
    67   35   36 1    
    68   35   37 1    
    69   35   91 1    
    70   36   92 1    
    71   36   93 1    
    72   36   94 1    
    73   37   38 2    
    74   37   39 am   BACKBONE|DICT|INTERRES
    75   39   40 1    
    76   39   95 1    
    77   40   41 1    
    78   40   42 1    
    79   40   96 1    
    80   41   97 1    
    81   41   98 1    
    82   41   99 1    
    83   42   43 2    
    84   42   44 am   BACKBONE|DICT|INTERRES
    85   44   45 1    
    86   44  100 1    
    87   45   46 1    
    88   45   47 1    
    89   45  101 1    
    90   46  102 1    
    91   46  103 1    
    92   46  104 1    
    93   47   48 2    
    94   47   49 am   BACKBONE|DICT|INTERRES
    95   49   50 1    
    96   49  105 1    
    97   50   51 1    
    98   50   52 1    
    99   50  106 1    
   100   51  107 1    
   101   51  108 1    
   102   51  109 1    
   103   52   53 2    
   104   52   54 am   BACKBONE|DICT|INTERRES
   105   54   55 1    
   106   54  110 1    
   107   55   56 1    
   108   55   59 1    
   109   55  111 1    
   110   56   57 am   BACKBONE|DICT|INTERRES
   111   56   58 2    
   112   57  112 1    
   113   57  113 1    
   114   59   60 1    
   115   59  114 1    
   116   59  115 1    
   117   60   61 1    
   118   61  116 1    
   119   61  117 1    
@<TRIPOS>SUBSTRUCTURE
     1 UNK         1 GROUP             0       ****    0 ROOT    
