@<TRIPOS>MOLECULE
3R8
117   119    1
SMALL
USER_CHARGES


@<TRIPOS>ATOM
      1 CA         17.6468  -21.9811  -43.8858 C.3       0 UNK        -0.2013 
      2 C          18.2540  -23.1368  -44.6673 C.2       0 UNK         0.4866 
      3 O          19.2397  -22.9434  -45.3801 O.2       0 UNK        -0.5176 
      4 N          17.6687  -24.3340  -44.5431 N.am      1 UNK        -0.4884 
      5 CA         18.1706  -25.5827  -45.1271 C.3       1 UNK         0.0853 
      6 C6         17.0193  -26.5873  -45.3881 C.3       10 UNK        -0.0849 
      7 S7         16.0663  -27.0418  -43.8992 S.3       10 UNK        -0.2776 
      8 C8         15.3472  -28.6271  -44.4300 C.3       10 UNK         0.0316 
      9 C9         16.3199  -29.7810  -44.2363 C.ar      10 UNK        -0.0863 
     10 C10        17.0086  -30.3358  -45.3208 C.ar      10 UNK        -0.1009 
     11 C11        17.8690  -31.4271  -45.1456 C.ar      10 UNK        -0.0712 
     12 C12        18.0278  -31.9576  -43.8574 C.ar      10 UNK        -0.0894 
     13 C13        17.3666  -31.3942  -42.7637 C.ar      10 UNK        -0.0745 
     14 C14        16.5075  -30.3125  -42.9596 C.ar      10 UNK        -0.0972 
     15 C15        17.5801  -31.9644  -41.3719 C.3       10 UNK         0.0209 
     16 S16        19.1581  -31.4072  -40.6608 S.3       10 UNK        -0.2568 
     17 C17        18.7922  -29.6789  -40.2049 C.3       10 UNK        -0.0983 
     18 CA         19.9505  -28.7394  -40.6155 C.3       3 UNK         0.0876 
     19 N          20.0374  -28.5436  -42.0709 N.am      3 UNK        -0.4424 
     20 C          21.1554  -28.1630  -42.7045 C.2       2 UNK         0.4918 
     21 O          22.2183  -27.9380  -42.1268 O.2       2 UNK        -0.4875 
     22 CA         21.0905  -27.9570  -44.2286 C.3       2 UNK         0.0481 
     23 CB         21.2916  -29.2938  -44.9518 C.3       2 UNK        -0.1831 
     24 N          19.8807  -27.3080  -44.7476 N.am      2 UNK        -0.4498 
     25 C          19.3249  -26.1779  -44.2872 C.2       1 UNK         0.5027 
     26 O          19.6954  -25.6156  -43.2549 O.2       1 UNK        -0.4969 
     27 C          19.9374  -27.4235  -39.8066 C.2       3 UNK         0.5005 
     28 O          20.1746  -27.4754  -38.5987 O.2       3 UNK        -0.5279 
     29 N          19.7140  -26.2711  -40.4566 N.am      4 UNK        -0.4463 
     30 CA         19.9200  -24.9468  -39.8591 C.3       4 UNK         0.0283 
     31 CB         18.9649  -23.9328  -40.5134 C.3       4 UNK        -0.1875 
     32 C          21.3847  -24.4789  -39.9852 C.2       4 UNK         0.4949 
     33 O          21.7390  -23.4625  -39.3868 O.2       4 UNK        -0.5039 
     34 N          22.2002  -25.2090  -40.7582 N.am      5 UNK        -0.4663 
     35 CA         23.6163  -24.9569  -40.9980 C.3       5 UNK         0.0242 
     36 CB         23.8285  -24.7509  -42.5133 C.3       5 UNK        -0.1982 
     37 C          24.4361  -26.1103  -40.3909 C.2       5 UNK         0.5017 
     38 O          24.3644  -26.3236  -39.1797 O.2       5 UNK        -0.5012 
     39 N          25.2158  -26.8157  -41.2221 N.am      6 UNK        -0.4439 
     40 CA         26.1546  -27.8672  -40.8183 C.3       6 UNK         0.0297 
     41 CB         27.1375  -28.1237  -41.9734 C.3       6 UNK        -0.2006 
     42 C          25.5021  -29.1915  -40.3791 C.2       6 UNK         0.4892 
     43 O          26.1632  -29.9688  -39.6895 O.2       6 UNK        -0.5089 
     44 N          24.2522  -29.4418  -40.8010 N.am      7 UNK        -0.4243 
     45 CA         23.4680  -30.6638  -40.5670 C.3       7 UNK         0.0196 
     46 CB         23.0990  -30.8054  -39.0749 C.3       7 UNK        -0.2007 
     47 C          24.1108  -31.9355  -41.1569 C.2       7 UNK         0.5020 
     48 O          23.9875  -33.0166  -40.5800 O.2       7 UNK        -0.5147 
     49 N          24.7768  -31.7869  -42.3116 N.am      8 UNK        -0.4734 
     50 CA         25.3959  -32.8873  -43.0608 C.3       8 UNK         0.0238 
     51 CB         26.4172  -32.3082  -44.0535 C.3       8 UNK        -0.1912 
     52 C          24.3684  -33.7699  -43.7944 C.2       8 UNK         0.5038 
     53 O          24.6476  -34.9426  -44.0457 O.2       8 UNK        -0.5046 
     54 N          23.2100  -33.1862  -44.1252 N.am      9 UNK        -0.4200 
     55 CA         22.0414  -33.8592  -44.7016 C.3       9 UNK         0.0839 
     56 C          21.3808  -34.8046  -43.6599 C.2       9 UNK         0.5513 
     57 N          21.1868  -36.0722  -43.9972 N.am      9 UNK        -0.7519 
     58 O          21.0172  -34.3845  -42.5644 O.2       9 UNK        -0.4960 
     59 C59        21.0558  -32.7961  -45.2494 C.3       10 UNK        -0.0876 
     60 S60        19.6130  -33.4817  -46.1340 S.3       10 UNK        -0.2414 
     61 C61        18.5908  -31.9836  -46.3793 C.3       10 UNK         0.0169 
     62 H62        16.7822  -22.2941  -43.3006 H         1 UNK         0.0903 
     63 H63        18.3850  -21.5638  -43.2014 H         1 UNK         0.0903 
     64 H64        17.3284  -21.1926  -44.5671 H         1 UNK         0.0903 
     65 H65        16.8787  -24.4445  -43.9228 H         1 UNK         0.3096 
     66 H66        18.6085  -25.3412  -46.0986 H         1 UNK         0.1121 
     67 H67        17.3962  -27.4893  -45.8712 H         1 UNK         0.0849 
     68 H68        16.3208  -26.1522  -46.1047 H         1 UNK         0.0849 
     69 H69        14.4457  -28.8156  -43.8448 H         1 UNK         0.0865 
     70 H70        15.0207  -28.5597  -45.4691 H         1 UNK         0.0865 
     71 H71        16.8646  -29.9252  -46.3111 H         1 UNK         0.1346 
     72 H72        18.6699  -32.8078  -43.6801 H         1 UNK         0.1412 
     73 H73        15.9797  -29.8827  -42.1190 H         1 UNK         0.1426 
     74 H74        17.5844  -33.0542  -41.4238 H         1 UNK         0.0716 
     75 H75        16.7599  -31.6936  -40.7050 H         1 UNK         0.0716 
     76 H76        18.6392  -29.6687  -39.1239 H         1 UNK         0.0695 
     77 H77        17.8525  -29.3464  -40.6462 H         1 UNK         0.0695 
     78 H78        20.8735  -29.2258  -40.2994 H         1 UNK         0.0983 
     79 H79        19.1978  -28.7120  -42.6066 H         1 UNK         0.3095 
     80 H80        21.9272  -27.3071  -44.4917 H         1 UNK         0.0454 
     81 H81        20.4215  -29.9367  -44.8262 H         1 UNK         0.0851 
     82 H82        22.1617  -29.8267  -44.5661 H         1 UNK         0.0851 
     83 H83        21.4506  -29.1496  -46.0205 H         1 UNK         0.0851 
     84 H84        19.5016  -27.7108  -45.5918 H         1 UNK         0.2976 
     85 H85        19.5612  -26.2798  -41.4625 H         1 UNK         0.3116 
     86 H86        19.6791  -24.9875  -38.7947 H         1 UNK         0.0646 
     87 H87        17.9309  -24.2755  -40.4765 H         1 UNK         0.0847 
     88 H88        19.2209  -23.7448  -41.5558 H         1 UNK         0.0847 
     89 H89        19.0069  -22.9734  -39.9964 H         1 UNK         0.0847 
     90 H90        21.8389  -26.0593  -41.1720 H         1 UNK         0.3040 
     91 H91        23.9353  -24.0469  -40.4852 H         1 UNK         0.1015 
     92 H92        24.8713  -24.5292  -42.7443 H         1 UNK         0.0786 
     93 H93        23.2406  -23.9060  -42.8733 H         1 UNK         0.0786 
     94 H94        23.5280  -25.6236  -43.0947 H         1 UNK         0.0786 
     95 H95        25.1920  -26.5814  -42.2040 H         1 UNK         0.3172 
     96 H96        26.7265  -27.4940  -39.9660 H         1 UNK         0.0595 
     97 H97        26.6269  -28.4781  -42.8697 H         1 UNK         0.0839 
     98 H98        27.8744  -28.8805  -41.6995 H         1 UNK         0.0839 
     99 H99        27.6893  -27.2205  -42.2347 H         1 UNK         0.0839 
    100 H100       23.7754  -28.7248  -41.3423 H         1 UNK         0.2998 
    101 H101       22.5393  -30.5386  -41.1231 H         1 UNK         0.0822 
    102 H102       22.6473  -29.8919  -38.6879 H         1 UNK         0.0787 
    103 H103       22.3783  -31.6106  -38.9264 H         1 UNK         0.0787 
    104 H104       23.9721  -31.0321  -38.4625 H         1 UNK         0.0787 
    105 H105       24.8596  -30.8595  -42.7025 H         1 UNK         0.3055 
    106 H106       25.9293  -33.5284  -42.3549 H         1 UNK         0.1106 
    107 H107       25.9453  -31.6517  -44.7857 H         1 UNK         0.0828 
    108 H108       26.9180  -33.1047  -44.6059 H         1 UNK         0.0828 
    109 H109       27.1912  -31.7379  -43.5393 H         1 UNK         0.0828 
    110 H110       23.0758  -32.2305  -43.8368 H         1 UNK         0.2931 
    111 H111       22.3924  -34.4559  -45.5464 H         1 UNK         0.0412 
    112 H112       21.4733  -36.4185  -44.8998 H         1 UNK         0.3472 
    113 H113       20.7479  -36.6947  -43.3369 H         1 UNK         0.3472 
    114 H114       20.7131  -32.1643  -44.4308 H         1 UNK         0.0970 
    115 H115       21.5782  -32.1374  -45.9450 H         1 UNK         0.0970 
    116 H116       17.8401  -32.2216  -47.1343 H         1 UNK         0.0612 
    117 H117       19.2176  -31.2005  -46.8081 H         1 UNK         0.0612 
@<TRIPOS>BOND
     1    1    2 1    
     2    1   62 1    
     3    1   63 1    
     4    1   64 1    
     5    2    3 2    
     6    2    4 am   BACKBONE|DICT|INTERRES
     7    4    5 1    
     8    4   65 1    
     9    5    6 1    
    10    5   25 1    
    11    5   66 1    
    12    6    7 1    
    13    6   67 1    
    14    6   68 1    
    15    7    8 1    
    16    8    9 1    
    17    8   69 1    
    18    8   70 1    
    19    9   10 ar   
    20    9   14 ar   
    21   10   11 ar   
    22   10   71 1    
    23   11   12 ar   
    24   11   61 1    
    25   12   13 ar   
    26   12   72 1    
    27   13   14 ar   
    28   13   15 1    
    29   14   73 1    
    30   15   16 1    
    31   15   74 1    
    32   15   75 1    
    33   16   17 1    
    34   17   18 1    
    35   17   76 1    
    36   17   77 1    
    37   18   19 1    
    38   18   27 1    
    39   18   78 1    
    40   19   20 am   BACKBONE|DICT|INTERRES
    41   19   79 1    
    42   20   21 2    
    43   20   22 1    
    44   22   23 1    
    45   22   24 1    
    46   22   80 1    
    47   23   81 1    
    48   23   82 1    
    49   23   83 1    
    50   24   25 am   BACKBONE|DICT|INTERRES
    51   24   84 1    
    52   25   26 2    
    53   27   28 2    
    54   27   29 am   BACKBONE|DICT|INTERRES
    55   29   30 1    
    56   29   85 1    
    57   30   31 1    
    58   30   32 1    
    59   30   86 1    
    60   31   87 1    
    61   31   88 1    
    62   31   89 1    
    63   32   33 2    
    64   32   34 am   BACKBONE|DICT|INTERRES
    65   34   35 1    
    66   34   90 1    
    67   35   36 1    
    68   35   37 1    
    69   35   91 1    
    70   36   92 1    
    71   36   93 1    
    72   36   94 1    
    73   37   38 2    
    74   37   39 am   BACKBONE|DICT|INTERRES
    75   39   40 1    
    76   39   95 1    
    77   40   41 1    
    78   40   42 1    
    79   40   96 1    
    80   41   97 1    
    81   41   98 1    
    82   41   99 1    
    83   42   43 2    
    84   42   44 am   BACKBONE|DICT|INTERRES
    85   44   45 1    
    86   44  100 1    
    87   45   46 1    
    88   45   47 1    
    89   45  101 1    
    90   46  102 1    
    91   46  103 1    
    92   46  104 1    
    93   47   48 2    
    94   47   49 am   BACKBONE|DICT|INTERRES
    95   49   50 1    
    96   49  105 1    
    97   50   51 1    
    98   50   52 1    
    99   50  106 1    
   100   51  107 1    
   101   51  108 1    
   102   51  109 1    
   103   52   53 2    
   104   52   54 am   BACKBONE|DICT|INTERRES
   105   54   55 1    
   106   54  110 1    
   107   55   56 1    
   108   55   59 1    
   109   55  111 1    
   110   56   57 am   BACKBONE|DICT|INTERRES
   111   56   58 2    
   112   57  112 1    
   113   57  113 1    
   114   59   60 1    
   115   59  114 1    
   116   59  115 1    
   117   60   61 1    
   118   61  116 1    
   119   61  117 1    
@<TRIPOS>SUBSTRUCTURE
     1 UNK         1 GROUP             0       ****    0 ROOT    
