@<TRIPOS>MOLECULE
3R8
117   119    1
SMALL
USER_CHARGES


@<TRIPOS>ATOM
      1 CA         17.3527  -21.5366  -43.5464 C.3       0 UNK        -0.2013 
      2 C          17.4926  -22.8767  -44.2531 C.2       0 UNK         0.4866 
      3 O          17.1198  -22.9951  -45.4210 O.2       0 UNK        -0.5176 
      4 N          18.0171  -23.8893  -43.5522 N.am      1 UNK        -0.4884 
      5 CA         18.2702  -25.2322  -44.0841 C.3       1 UNK         0.0853 
      6 C6         18.5642  -26.2488  -42.9532 C.3       10 UNK        -0.0849 
      7 S7         17.1035  -26.5736  -41.9093 S.3       10 UNK        -0.2776 
      8 C8         16.2046  -27.8466  -42.8565 C.3       10 UNK         0.0316 
      9 C9         16.9970  -29.1371  -43.0225 C.ar      10 UNK        -0.0863 
     10 C10        17.0422  -30.0802  -41.9900 C.ar      10 UNK        -0.1009 
     11 C11        17.7301  -31.2879  -42.1577 C.ar      10 UNK        -0.0712 
     12 C12        18.3718  -31.5407  -43.3729 C.ar      10 UNK        -0.0894 
     13 C13        18.3826  -30.5855  -44.3912 C.ar      10 UNK        -0.0745 
     14 C14        17.6694  -29.3968  -44.2207 C.ar      10 UNK        -0.0972 
     15 C15        19.1866  -30.8236  -45.6632 C.3       10 UNK         0.0209 
     16 S16        20.9329  -31.2687  -45.3451 S.3       10 UNK        -0.2568 
     17 C17        21.5021  -30.0208  -44.1328 C.3       10 UNK        -0.0983 
     18 CA         22.1619  -28.7939  -44.8020 C.3       3 UNK         0.0876 
     19 N          21.2005  -28.0270  -45.5921 N.am      3 UNK        -0.4424 
     20 C          21.5178  -27.1545  -46.5571 C.2       2 UNK         0.4918 
     21 O          22.6594  -26.9905  -46.9884 O.2       2 UNK        -0.4875 
     22 CA         20.3628  -26.3125  -47.1307 C.3       2 UNK         0.0481 
     23 CB         19.7571  -27.0036  -48.3627 C.3       2 UNK        -0.1831 
     24 N          19.3064  -26.0570  -46.1452 N.am      2 UNK        -0.4498 
     25 C          19.4305  -25.2252  -45.0995 C.2       1 UNK         0.5027 
     26 O          20.4180  -24.5132  -44.8994 O.2       1 UNK        -0.4969 
     27 C          22.7870  -27.8535  -43.7529 C.2       3 UNK         0.5005 
     28 O          22.0493  -27.1098  -43.0978 O.2       3 UNK        -0.5279 
     29 N          24.1234  -27.8900  -43.6415 N.am      4 UNK        -0.4463 
     30 CA         24.9705  -26.9847  -42.8560 C.3       4 UNK         0.0283 
     31 CB         26.4254  -27.4814  -42.9152 C.3       4 UNK        -0.1875 
     32 C          24.5104  -26.8145  -41.3988 C.2       4 UNK         0.4949 
     33 O          24.6755  -27.7327  -40.5966 O.2       4 UNK        -0.5039 
     34 N          23.9094  -25.6518  -41.1053 N.am      5 UNK        -0.4663 
     35 CA         23.3354  -25.2505  -39.8126 C.3       5 UNK         0.0242 
     36 CB         24.4575  -25.0243  -38.7763 C.3       5 UNK        -0.1982 
     37 C          22.2353  -26.2018  -39.2925 C.2       5 UNK         0.5017 
     38 O          22.0467  -26.2993  -38.0788 O.2       5 UNK        -0.5012 
     39 N          21.5428  -26.8913  -40.2150 N.am      6 UNK        -0.4439 
     40 CA         20.5434  -27.9397  -39.9691 C.3       6 UNK         0.0297 
     41 CB         19.3208  -27.3767  -39.2131 C.3       6 UNK        -0.2006 
     42 C          21.1274  -29.1949  -39.2846 C.2       6 UNK         0.4892 
     43 O          20.3882  -29.9162  -38.6127 O.2       6 UNK        -0.5089 
     44 N          22.4325  -29.4360  -39.4618 N.am      7 UNK        -0.4243 
     45 CA         23.1515  -30.6182  -38.9960 C.3       7 UNK         0.0196 
     46 CB         24.3098  -30.1685  -38.0892 C.3       7 UNK        -0.2007 
     47 C          23.6789  -31.3936  -40.2101 C.2       7 UNK         0.5020 
     48 O          23.7461  -30.8447  -41.3123 O.2       7 UNK        -0.5147 
     49 N          24.0462  -32.6632  -39.9779 N.am      8 UNK        -0.4734 
     50 CA         24.5154  -33.6363  -40.9782 C.3       8 UNK         0.0238 
     51 CB         25.8996  -33.2317  -41.5313 C.3       8 UNK        -0.1912 
     52 C          23.4712  -33.8888  -42.0861 C.2       8 UNK         0.5038 
     53 O          23.8189  -33.9306  -43.2678 O.2       8 UNK        -0.5046 
     54 N          22.2064  -34.0192  -41.6626 N.am      9 UNK        -0.4200 
     55 CA         21.0140  -34.1934  -42.5016 C.3       9 UNK         0.0839 
     56 C          21.1087  -35.4113  -43.4600 C.2       9 UNK         0.5513 
     57 N          20.7657  -35.2336  -44.7284 N.am      9 UNK        -0.7519 
     58 O          21.4427  -36.5204  -43.0481 O.2       9 UNK        -0.4960 
     59 C59        19.7323  -34.2964  -41.6312 C.3       10 UNK        -0.0876 
     60 S60        19.4553  -32.8300  -40.5726 S.3       10 UNK        -0.2414 
     61 C61        17.7624  -32.3172  -41.0321 C.3       10 UNK         0.0169 
     62 H62        16.3080  -21.2269  -43.5322 H         1 UNK         0.0903 
     63 H63        17.7074  -21.5792  -42.5167 H         1 UNK         0.0903 
     64 H64        17.9274  -20.7741  -44.0715 H         1 UNK         0.0903 
     65 H65        18.3126  -23.7358  -42.5989 H         1 UNK         0.3096 
     66 H66        17.3682  -25.5492  -44.6123 H         1 UNK         0.1121 
     67 H67        19.3642  -25.8756  -42.3105 H         1 UNK         0.0849 
     68 H68        18.9402  -27.1939  -43.3439 H         1 UNK         0.0849 
     69 H69        15.2673  -28.0645  -42.3423 H         1 UNK         0.0865 
     70 H70        15.9210  -27.4421  -43.8290 H         1 UNK         0.0865 
     71 H71        16.5317  -29.8743  -41.0590 H         1 UNK         0.1346 
     72 H72        18.8980  -32.4691  -43.5219 H         1 UNK         0.1412 
     73 H73        17.6432  -28.6672  -45.0174 H         1 UNK         0.1426 
     74 H74        19.1643  -29.9441  -46.3075 H         1 UNK         0.0716 
     75 H75        18.7179  -31.6282  -46.2310 H         1 UNK         0.0716 
     76 H76        22.2248  -30.5255  -43.4893 H         1 UNK         0.0695 
     77 H77        20.6894  -29.7166  -43.4722 H         1 UNK         0.0695 
     78 H78        22.9497  -29.1497  -45.4701 H         1 UNK         0.0983 
     79 H79        20.2469  -28.0636  -45.2735 H         1 UNK         0.3095 
     80 H80        20.7756  -25.3526  -47.4486 H         1 UNK         0.0454 
     81 H81        19.3169  -27.9698  -48.1134 H         1 UNK         0.0851 
     82 H82        20.5194  -27.1811  -49.1226 H         1 UNK         0.0851 
     83 H83        18.9829  -26.3893  -48.8226 H         1 UNK         0.0851 
     84 H84        18.4439  -26.5671  -46.2691 H         1 UNK         0.2976 
     85 H85        24.6214  -28.5712  -44.1959 H         1 UNK         0.3116 
     86 H86        24.9339  -26.0092  -43.3450 H         1 UNK         0.0646 
     87 H87        26.8027  -27.4948  -43.9378 H         1 UNK         0.0847 
     88 H88        26.5240  -28.4880  -42.5060 H         1 UNK         0.0847 
     89 H89        27.0836  -26.8308  -42.3377 H         1 UNK         0.0847 
     90 H90        23.7815  -24.9884  -41.8580 H         1 UNK         0.3040 
     91 H91        22.8419  -24.2916  -39.9797 H         1 UNK         0.1015 
     92 H92        24.9514  -25.9586  -38.5065 H         1 UNK         0.0786 
     93 H93        24.0631  -24.5883  -37.8576 H         1 UNK         0.0786 
     94 H94        25.2169  -24.3406  -39.1556 H         1 UNK         0.0786 
     95 H95        21.7997  -26.7669  -41.1930 H         1 UNK         0.3172 
     96 H96        20.2025  -28.2607  -40.9548 H         1 UNK         0.0595 
     97 H97        19.5383  -27.2068  -38.1583 H         1 UNK         0.0839 
     98 H98        18.4819  -28.0719  -39.2634 H         1 UNK         0.0839 
     99 H99        18.9864  -26.4317  -39.6392 H         1 UNK         0.0839 
    100 H100       22.9802  -28.8140  -40.0487 H         1 UNK         0.2998 
    101 H101       22.4877  -31.2750  -38.4299 H         1 UNK         0.0822 
    102 H102       23.9454  -29.5826  -37.2451 H         1 UNK         0.0787 
    103 H103       24.8479  -31.0250  -37.6816 H         1 UNK         0.0787 
    104 H104       25.0325  -29.5572  -38.6313 H         1 UNK         0.0787 
    105 H105       23.9622  -33.0164  -39.0339 H         1 UNK         0.3055 
    106 H106       24.6372  -34.5881  -40.4580 H         1 UNK         0.1106 
    107 H107       25.8506  -32.3133  -42.1173 H         1 UNK         0.0828 
    108 H108       26.3025  -34.0091  -42.1816 H         1 UNK         0.0828 
    109 H109       26.6191  -33.0781  -40.7273 H         1 UNK         0.0828 
    110 H110       22.0295  -33.9531  -40.6719 H         1 UNK         0.2931 
    111 H111       20.9472  -33.2898  -43.1079 H         1 UNK         0.0412 
    112 H112       20.8051  -36.0172  -45.3616 H         1 UNK         0.3472 
    113 H113       20.5094  -34.3219  -45.0751 H         1 UNK         0.3472 
    114 H114       19.7859  -35.1729  -40.9825 H         1 UNK         0.0970 
    115 H115       18.8581  -34.4559  -42.2646 H         1 UNK         0.0970 
    116 H116       17.2936  -31.9039  -40.1378 H         1 UNK         0.0612 
    117 H117       17.1636  -33.1849  -41.3109 H         1 UNK         0.0612 
@<TRIPOS>BOND
     1    1    2 1    
     2    1   62 1    
     3    1   63 1    
     4    1   64 1    
     5    2    3 2    
     6    2    4 am   BACKBONE|DICT|INTERRES
     7    4    5 1    
     8    4   65 1    
     9    5    6 1    
    10    5   25 1    
    11    5   66 1    
    12    6    7 1    
    13    6   67 1    
    14    6   68 1    
    15    7    8 1    
    16    8    9 1    
    17    8   69 1    
    18    8   70 1    
    19    9   10 ar   
    20    9   14 ar   
    21   10   11 ar   
    22   10   71 1    
    23   11   12 ar   
    24   11   61 1    
    25   12   13 ar   
    26   12   72 1    
    27   13   14 ar   
    28   13   15 1    
    29   14   73 1    
    30   15   16 1    
    31   15   74 1    
    32   15   75 1    
    33   16   17 1    
    34   17   18 1    
    35   17   76 1    
    36   17   77 1    
    37   18   19 1    
    38   18   27 1    
    39   18   78 1    
    40   19   20 am   BACKBONE|DICT|INTERRES
    41   19   79 1    
    42   20   21 2    
    43   20   22 1    
    44   22   23 1    
    45   22   24 1    
    46   22   80 1    
    47   23   81 1    
    48   23   82 1    
    49   23   83 1    
    50   24   25 am   BACKBONE|DICT|INTERRES
    51   24   84 1    
    52   25   26 2    
    53   27   28 2    
    54   27   29 am   BACKBONE|DICT|INTERRES
    55   29   30 1    
    56   29   85 1    
    57   30   31 1    
    58   30   32 1    
    59   30   86 1    
    60   31   87 1    
    61   31   88 1    
    62   31   89 1    
    63   32   33 2    
    64   32   34 am   BACKBONE|DICT|INTERRES
    65   34   35 1    
    66   34   90 1    
    67   35   36 1    
    68   35   37 1    
    69   35   91 1    
    70   36   92 1    
    71   36   93 1    
    72   36   94 1    
    73   37   38 2    
    74   37   39 am   BACKBONE|DICT|INTERRES
    75   39   40 1    
    76   39   95 1    
    77   40   41 1    
    78   40   42 1    
    79   40   96 1    
    80   41   97 1    
    81   41   98 1    
    82   41   99 1    
    83   42   43 2    
    84   42   44 am   BACKBONE|DICT|INTERRES
    85   44   45 1    
    86   44  100 1    
    87   45   46 1    
    88   45   47 1    
    89   45  101 1    
    90   46  102 1    
    91   46  103 1    
    92   46  104 1    
    93   47   48 2    
    94   47   49 am   BACKBONE|DICT|INTERRES
    95   49   50 1    
    96   49  105 1    
    97   50   51 1    
    98   50   52 1    
    99   50  106 1    
   100   51  107 1    
   101   51  108 1    
   102   51  109 1    
   103   52   53 2    
   104   52   54 am   BACKBONE|DICT|INTERRES
   105   54   55 1    
   106   54  110 1    
   107   55   56 1    
   108   55   59 1    
   109   55  111 1    
   110   56   57 am   BACKBONE|DICT|INTERRES
   111   56   58 2    
   112   57  112 1    
   113   57  113 1    
   114   59   60 1    
   115   59  114 1    
   116   59  115 1    
   117   60   61 1    
   118   61  116 1    
   119   61  117 1    
@<TRIPOS>SUBSTRUCTURE
     1 UNK         1 GROUP             0       ****    0 ROOT    
