@<TRIPOS>MOLECULE
3R8
117   119    1
SMALL
USER_CHARGES


@<TRIPOS>ATOM
      1 CA         18.7616  -24.0572  -49.4188 C.3       0 UNK        -0.2013 
      2 C          19.2309  -25.4074  -48.8974 C.2       0 UNK         0.4866 
      3 O          19.2739  -26.3745  -49.6582 O.2       0 UNK        -0.5176 
      4 N          19.5852  -25.4787  -47.6094 N.am      1 UNK        -0.4884 
      5 CA         20.1081  -26.6792  -46.9487 C.3       1 UNK         0.0853 
      6 C6         19.0211  -27.7567  -46.6790 C.3       10 UNK        -0.0849 
      7 S7         19.7096  -29.4469  -46.6640 S.3       10 UNK        -0.2776 
      8 C8         18.2057  -30.4594  -46.4810 C.3       10 UNK         0.0316 
      9 C9         17.6855  -30.4458  -45.0506 C.ar      10 UNK        -0.0863 
     10 C10        18.0914  -31.4260  -44.1390 C.ar      10 UNK        -0.1009 
     11 C11        17.6286  -31.4074  -42.8180 C.ar      10 UNK        -0.0712 
     12 C12        16.7514  -30.3949  -42.4149 C.ar      10 UNK        -0.0894 
     13 C13        16.3232  -29.4229  -43.3235 C.ar      10 UNK        -0.0745 
     14 C14        16.7860  -29.4592  -44.6405 C.ar      10 UNK        -0.0972 
     15 C15        15.3495  -28.3369  -42.8963 C.3       10 UNK         0.0209 
     16 S16        16.1868  -26.7356  -42.6920 S.3       10 UNK        -0.2568 
     17 C17        17.0955  -26.9838  -41.1278 C.3       10 UNK        -0.0983 
     18 CA         18.6253  -27.1699  -41.3093 C.3       3 UNK         0.0876 
     19 N          19.1909  -26.1286  -42.1799 N.am      3 UNK        -0.4424 
     20 C          20.4753  -25.9378  -42.5103 C.2       2 UNK         0.4918 
     21 O          21.4182  -26.5699  -42.0338 O.2       2 UNK        -0.4875 
     22 CA         20.7090  -24.8584  -43.5816 C.3       2 UNK         0.0481 
     23 CB         22.1524  -24.3129  -43.6027 C.3       2 UNK        -0.1831 
     24 N          20.2744  -25.3372  -44.9010 N.am      2 UNK        -0.4498 
     25 C          20.8524  -26.2862  -45.6605 C.2       1 UNK         0.5027 
     26 O          21.9299  -26.8214  -45.4064 O.2       1 UNK        -0.4969 
     27 C          19.2832  -27.2763  -39.9157 C.2       3 UNK         0.5005 
     28 O          19.3114  -28.3654  -39.3393 O.2       3 UNK        -0.5279 
     29 N          19.7837  -26.1490  -39.3896 N.am      4 UNK        -0.4463 
     30 CA         20.4621  -26.0256  -38.0986 C.3       4 UNK         0.0283 
     31 CB         20.4739  -24.5426  -37.6843 C.3       4 UNK        -0.1875 
     32 C          21.8762  -26.6362  -38.1308 C.2       4 UNK         0.4949 
     33 O          22.8666  -25.9054  -38.0902 O.2       4 UNK        -0.5039 
     34 N          21.9375  -27.9697  -38.2363 N.am      5 UNK        -0.4663 
     35 CA         23.1083  -28.8616  -38.2255 C.3       5 UNK         0.0242 
     36 CB         23.8856  -28.7412  -36.9008 C.3       5 UNK        -0.1982 
     37 C          24.0611  -28.7362  -39.4292 C.2       5 UNK         0.5017 
     38 O          24.6455  -29.7457  -39.8236 O.2       5 UNK        -0.5012 
     39 N          24.1935  -27.5338  -40.0042 N.am      6 UNK        -0.4439 
     40 CA         25.0579  -27.1976  -41.1429 C.3       6 UNK         0.0297 
     41 CB         24.9517  -25.6916  -41.4235 C.3       6 UNK        -0.2006 
     42 C          24.7925  -28.0189  -42.4202 C.2       6 UNK         0.4892 
     43 O          25.7210  -28.2284  -43.2018 O.2       6 UNK        -0.5089 
     44 N          23.5552  -28.5075  -42.5793 N.am      7 UNK        -0.4243 
     45 CA         23.1290  -29.4717  -43.5965 C.3       7 UNK         0.0196 
     46 CB         21.6116  -29.6934  -43.4595 C.3       7 UNK        -0.2007 
     47 C          23.8565  -30.8289  -43.5314 C.2       7 UNK         0.5020 
     48 O          23.8899  -31.5305  -44.5424 O.2       7 UNK        -0.5147 
     49 N          24.3923  -31.1897  -42.3517 N.am      8 UNK        -0.4734 
     50 CA         25.0569  -32.4605  -42.0211 C.3       8 UNK         0.0238 
     51 CB         26.3781  -32.6104  -42.8047 C.3       8 UNK        -0.1912 
     52 C          24.1326  -33.6877  -42.1664 C.2       8 UNK         0.5038 
     53 O          24.6090  -34.7938  -42.4257 O.2       8 UNK        -0.5046 
     54 N          22.8246  -33.4597  -42.0044 N.am      9 UNK        -0.4200 
     55 CA         21.7470  -34.4397  -42.1807 C.3       9 UNK         0.0839 
     56 C          21.5187  -35.3995  -40.9768 C.2       9 UNK         0.5513 
     57 N          22.2023  -35.2319  -39.8511 N.am      9 UNK        -0.7519 
     58 O          20.7168  -36.3247  -41.0737 O.2       9 UNK        -0.4960 
     59 C59        20.4469  -33.7359  -42.6492 C.3       10 UNK        -0.0876 
     60 S60        19.8220  -32.4833  -41.4695 S.3       10 UNK        -0.2414 
     61 C61        18.0366  -32.4947  -41.8303 C.3       10 UNK         0.0169 
     62 H62        18.7520  -23.2970  -48.6378 H         1 UNK         0.0903 
     63 H63        19.4191  -23.7147  -50.2175 H         1 UNK         0.0903 
     64 H64        17.7523  -24.1411  -49.8212 H         1 UNK         0.0903 
     65 H65        19.5991  -24.6331  -47.0562 H         1 UNK         0.3096 
     66 H66        20.8586  -27.1012  -47.6221 H         1 UNK         0.1121 
     67 H67        18.4969  -27.5612  -45.7424 H         1 UNK         0.0849 
     68 H68        18.2580  -27.7314  -47.4579 H         1 UNK         0.0849 
     69 H69        17.4365  -30.1107  -47.1719 H         1 UNK         0.0865 
     70 H70        18.4357  -31.4833  -46.7800 H         1 UNK         0.0865 
     71 H71        18.7683  -32.2038  -44.4603 H         1 UNK         0.1346 
     72 H72        16.3883  -30.3714  -41.3965 H         1 UNK         0.1412 
     73 H73        16.4516  -28.7081  -45.3430 H         1 UNK         0.1426 
     74 H74        14.8354  -28.6079  -41.9728 H         1 UNK         0.0716 
     75 H75        14.5729  -28.2320  -43.6554 H         1 UNK         0.0716 
     76 H76        16.6701  -27.8365  -40.5951 H         1 UNK         0.0695 
     77 H77        16.8912  -26.1117  -40.5031 H         1 UNK         0.0695 
     78 H78        18.7985  -28.1231  -41.8141 H         1 UNK         0.0983 
     79 H79        18.4954  -25.5610  -42.6426 H         1 UNK         0.3095 
     80 H80        20.0592  -24.0173  -43.3342 H         1 UNK         0.0454 
     81 H81        22.3960  -23.8379  -42.6521 H         1 UNK         0.0851 
     82 H82        22.2810  -23.5616  -44.3814 H         1 UNK         0.0851 
     83 H83        22.8906  -25.0972  -43.7701 H         1 UNK         0.0851 
     84 H84        19.3691  -24.9984  -45.1936 H         1 UNK         0.2976 
     85 H85        19.7387  -25.3128  -39.9533 H         1 UNK         0.3116 
     86 H86        19.8861  -26.5740  -37.3502 H         1 UNK         0.0646 
     87 H87        19.4623  -24.1477  -37.5911 H         1 UNK         0.0847 
     88 H88        21.0115  -23.9239  -38.4038 H         1 UNK         0.0847 
     89 H89        20.9602  -24.4124  -36.7165 H         1 UNK         0.0847 
     90 H90        21.0450  -28.4346  -38.3852 H         1 UNK         0.3040 
     91 H91        22.7004  -29.8728  -38.2725 H         1 UNK         0.1015 
     92 H92        24.6911  -29.4753  -36.8546 H         1 UNK         0.0786 
     93 H93        23.2373  -28.9185  -36.0427 H         1 UNK         0.0786 
     94 H94        24.3393  -27.7570  -36.7814 H         1 UNK         0.0786 
     95 H95        23.6945  -26.7666  -39.5612 H         1 UNK         0.3172 
     96 H96        26.0843  -27.4124  -40.8389 H         1 UNK         0.0595 
     97 H97        25.5268  -25.4103  -42.3068 H         1 UNK         0.0839 
     98 H98        25.3336  -25.1057  -40.5874 H         1 UNK         0.0839 
     99 H99        23.9182  -25.3933  -41.5926 H         1 UNK         0.0839 
    100 H100       22.8343  -28.1618  -41.9568 H         1 UNK         0.2998 
    101 H101       23.3329  -29.0368  -44.5769 H         1 UNK         0.0822 
    102 H102       21.2569  -30.4524  -44.1583 H         1 UNK         0.0787 
    103 H103       21.0549  -28.7819  -43.6740 H         1 UNK         0.0787 
    104 H104       21.3389  -30.0210  -42.4562 H         1 UNK         0.0787 
    105 H105       24.3337  -30.5304  -41.5792 H         1 UNK         0.3055 
    106 H106       25.3093  -32.4016  -40.9610 H         1 UNK         0.1106 
    107 H107       27.0125  -31.7325  -42.6821 H         1 UNK         0.0828 
    108 H108       26.9470  -33.4716  -42.4526 H         1 UNK         0.0828 
    109 H109       26.2033  -32.7521  -43.8715 H         1 UNK         0.0828 
    110 H110       22.5270  -32.5241  -41.7730 H         1 UNK         0.2931 
    111 H111       22.0497  -35.0930  -43.0017 H         1 UNK         0.0412 
    112 H112       22.8634  -34.4776  -39.7639 H         1 UNK         0.3472 
    113 H113       22.0500  -35.8639  -39.0807 H         1 UNK         0.3472 
    114 H114       20.6356  -33.2392  -43.6014 H         1 UNK         0.0970 
    115 H115       19.6738  -34.4784  -42.8523 H         1 UNK         0.0970 
    116 H116       17.7252  -33.4683  -42.2099 H         1 UNK         0.0612 
    117 H117       17.5081  -32.3624  -40.8850 H         1 UNK         0.0612 
@<TRIPOS>BOND
     1    1    2 1    
     2    1   62 1    
     3    1   63 1    
     4    1   64 1    
     5    2    3 2    
     6    2    4 am   BACKBONE|DICT|INTERRES
     7    4    5 1    
     8    4   65 1    
     9    5    6 1    
    10    5   25 1    
    11    5   66 1    
    12    6    7 1    
    13    6   67 1    
    14    6   68 1    
    15    7    8 1    
    16    8    9 1    
    17    8   69 1    
    18    8   70 1    
    19    9   10 ar   
    20    9   14 ar   
    21   10   11 ar   
    22   10   71 1    
    23   11   12 ar   
    24   11   61 1    
    25   12   13 ar   
    26   12   72 1    
    27   13   14 ar   
    28   13   15 1    
    29   14   73 1    
    30   15   16 1    
    31   15   74 1    
    32   15   75 1    
    33   16   17 1    
    34   17   18 1    
    35   17   76 1    
    36   17   77 1    
    37   18   19 1    
    38   18   27 1    
    39   18   78 1    
    40   19   20 am   BACKBONE|DICT|INTERRES
    41   19   79 1    
    42   20   21 2    
    43   20   22 1    
    44   22   23 1    
    45   22   24 1    
    46   22   80 1    
    47   23   81 1    
    48   23   82 1    
    49   23   83 1    
    50   24   25 am   BACKBONE|DICT|INTERRES
    51   24   84 1    
    52   25   26 2    
    53   27   28 2    
    54   27   29 am   BACKBONE|DICT|INTERRES
    55   29   30 1    
    56   29   85 1    
    57   30   31 1    
    58   30   32 1    
    59   30   86 1    
    60   31   87 1    
    61   31   88 1    
    62   31   89 1    
    63   32   33 2    
    64   32   34 am   BACKBONE|DICT|INTERRES
    65   34   35 1    
    66   34   90 1    
    67   35   36 1    
    68   35   37 1    
    69   35   91 1    
    70   36   92 1    
    71   36   93 1    
    72   36   94 1    
    73   37   38 2    
    74   37   39 am   BACKBONE|DICT|INTERRES
    75   39   40 1    
    76   39   95 1    
    77   40   41 1    
    78   40   42 1    
    79   40   96 1    
    80   41   97 1    
    81   41   98 1    
    82   41   99 1    
    83   42   43 2    
    84   42   44 am   BACKBONE|DICT|INTERRES
    85   44   45 1    
    86   44  100 1    
    87   45   46 1    
    88   45   47 1    
    89   45  101 1    
    90   46  102 1    
    91   46  103 1    
    92   46  104 1    
    93   47   48 2    
    94   47   49 am   BACKBONE|DICT|INTERRES
    95   49   50 1    
    96   49  105 1    
    97   50   51 1    
    98   50   52 1    
    99   50  106 1    
   100   51  107 1    
   101   51  108 1    
   102   51  109 1    
   103   52   53 2    
   104   52   54 am   BACKBONE|DICT|INTERRES
   105   54   55 1    
   106   54  110 1    
   107   55   56 1    
   108   55   59 1    
   109   55  111 1    
   110   56   57 am   BACKBONE|DICT|INTERRES
   111   56   58 2    
   112   57  112 1    
   113   57  113 1    
   114   59   60 1    
   115   59  114 1    
   116   59  115 1    
   117   60   61 1    
   118   61  116 1    
   119   61  117 1    
@<TRIPOS>SUBSTRUCTURE
     1 UNK         1 GROUP             0       ****    0 ROOT    
