@<TRIPOS>MOLECULE
3R8
117   119    1
SMALL
USER_CHARGES


@<TRIPOS>ATOM
      1 CA         19.1311  -23.1080  -40.1274 C.3       0 UNK        -0.2013 
      2 C          18.5063  -23.8169  -41.3201 C.2       0 UNK         0.4866 
      3 O          17.2931  -23.7348  -41.5140 O.2       0 UNK        -0.5176 
      4 N          19.3298  -24.5055  -42.1159 N.am      1 UNK        -0.4884 
      5 CA         18.9498  -25.2375  -43.3259 C.3       1 UNK         0.0853 
      6 C6         18.9259  -26.7745  -43.1075 C.3       10 UNK        -0.0849 
      7 S7         17.7129  -27.3203  -41.8534 S.3       10 UNK        -0.2776 
      8 C8         16.5013  -28.2605  -42.8405 C.3       10 UNK         0.0316 
      9 C9         17.1237  -29.4527  -43.5578 C.ar      10 UNK        -0.0863 
     10 C10        17.7465  -30.4748  -42.8314 C.ar      10 UNK        -0.1009 
     11 C11        18.3372  -31.5555  -43.4934 C.ar      10 UNK        -0.0712 
     12 C12        18.2877  -31.6176  -44.8883 C.ar      10 UNK        -0.0894 
     13 C13        17.6821  -30.5969  -45.6254 C.ar      10 UNK        -0.0745 
     14 C14        17.0884  -29.5241  -44.9548 C.ar      10 UNK        -0.0972 
     15 C15        17.7163  -30.6357  -47.1470 C.3       10 UNK         0.0209 
     16 S16        18.8395  -29.3795  -47.8483 S.3       10 UNK        -0.2568 
     17 C17        20.4182  -29.7410  -46.9974 C.3       10 UNK        -0.0983 
     18 CA         21.4572  -28.5980  -47.1226 C.3       3 UNK         0.0876 
     19 N          20.8807  -27.3003  -46.7522 N.am      3 UNK        -0.4424 
     20 C          21.3628  -26.1095  -47.1305 C.2       2 UNK         0.4918 
     21 O          22.4319  -25.9599  -47.7222 O.2       2 UNK        -0.4875 
     22 CA         20.4837  -24.8784  -46.8394 C.3       2 UNK         0.0481 
     23 CB         19.6371  -24.5327  -48.0752 C.3       2 UNK        -0.1831 
     24 N          19.5951  -25.0718  -45.6879 N.am      2 UNK        -0.4498 
     25 C          19.9729  -24.8766  -44.4178 C.2       1 UNK         0.5027 
     26 O          21.0859  -24.4515  -44.0960 O.2       1 UNK        -0.4969 
     27 C          22.7204  -28.9550  -46.3111 C.2       3 UNK         0.5005 
     28 O          23.5635  -29.7049  -46.8068 O.2       3 UNK        -0.5279 
     29 N          22.8185  -28.4435  -45.0789 N.am      4 UNK        -0.4463 
     30 CA         23.8631  -28.7295  -44.0982 C.3       4 UNK         0.0283 
     31 CB         23.6474  -30.1301  -43.4863 C.3       4 UNK        -0.1875 
     32 C          23.8167  -27.6434  -43.0156 C.2       4 UNK         0.4949 
     33 O          22.9930  -26.7286  -43.0998 O.2       4 UNK        -0.5039 
     34 N          24.6825  -27.7684  -42.0013 N.am      5 UNK        -0.4663 
     35 CA         24.7273  -26.9153  -40.8088 C.3       5 UNK         0.0242 
     36 CB         26.0633  -27.1519  -40.0799 C.3       5 UNK        -0.1982 
     37 C          23.5087  -27.1550  -39.8938 C.2       5 UNK         0.5017 
     38 O          23.6386  -27.7709  -38.8343 O.2       5 UNK        -0.5012 
     39 N          22.3381  -26.6953  -40.3533 N.am      6 UNK        -0.4439 
     40 CA         21.0097  -26.9397  -39.7885 C.3       6 UNK         0.0297 
     41 CB         20.8572  -26.2816  -38.3973 C.3       6 UNK        -0.2006 
     42 C          20.6690  -28.4418  -39.8426 C.2       6 UNK         0.4892 
     43 O          20.8638  -29.0619  -40.8882 O.2       6 UNK        -0.5089 
     44 N          20.1771  -29.0023  -38.7311 N.am      7 UNK        -0.4243 
     45 CA         19.7706  -30.4042  -38.6059 C.3       7 UNK         0.0196 
     46 CB         18.8942  -30.5518  -37.3506 C.3       7 UNK        -0.2007 
     47 C          20.9349  -31.4146  -38.5786 C.2       7 UNK         0.5020 
     48 O          20.6703  -32.6180  -38.5849 O.2       7 UNK        -0.5147 
     49 N          22.1924  -30.9469  -38.5422 N.am      8 UNK        -0.4734 
     50 CA         23.4102  -31.7674  -38.5073 C.3       8 UNK         0.0238 
     51 CB         24.5749  -30.9153  -37.9697 C.3       8 UNK        -0.1912 
     52 C          23.7392  -32.4243  -39.8663 C.2       8 UNK         0.5038 
     53 O          24.8471  -32.2615  -40.3814 O.2       8 UNK        -0.5046 
     54 N          22.7682  -33.1587  -40.4169 N.am      9 UNK        -0.4200 
     55 CA         22.8724  -33.9314  -41.6631 C.3       9 UNK         0.0839 
     56 C          23.5457  -35.3240  -41.4913 C.2       9 UNK         0.5513 
     57 N          23.8377  -35.7835  -40.2799 N.am      9 UNK        -0.7519 
     58 O          23.8180  -35.9989  -42.4808 O.2       9 UNK        -0.4960 
     59 C59        21.4941  -34.0553  -42.3634 C.3       10 UNK        -0.0876 
     60 S60        20.8653  -32.4327  -42.9033 S.3       10 UNK        -0.2414 
     61 C61        19.0695  -32.6416  -42.7215 C.3       10 UNK         0.0169 
     62 H62        18.7106  -23.4959  -39.1999 H         1 UNK         0.0903 
     63 H63        20.2119  -23.2444  -40.0916 H         1 UNK         0.0903 
     64 H64        18.9254  -22.0390  -40.1750 H         1 UNK         0.0903 
     65 H65        20.3308  -24.4480  -41.9796 H         1 UNK         0.3096 
     66 H66        17.9668  -24.9058  -43.6680 H         1 UNK         0.1121 
     67 H67        19.9091  -27.1325  -42.7947 H         1 UNK         0.0849 
     68 H68        18.7164  -27.2860  -44.0474 H         1 UNK         0.0849 
     69 H69        15.7114  -28.6193  -42.1793 H         1 UNK         0.0865 
     70 H70        16.0220  -27.5826  -43.5485 H         1 UNK         0.0865 
     71 H71        17.7950  -30.4117  -41.7528 H         1 UNK         0.1346 
     72 H72        18.7628  -32.4434  -45.4003 H         1 UNK         0.1412 
     73 H73        16.6241  -28.7326  -45.5274 H         1 UNK         0.1426 
     74 H74        16.7108  -30.4694  -47.5358 H         1 UNK         0.0716 
     75 H75        18.0229  -31.6207  -47.5027 H         1 UNK         0.0716 
     76 H76        20.8192  -30.6710  -47.4051 H         1 UNK         0.0695 
     77 H77        20.2194  -29.9304  -45.9419 H         1 UNK         0.0695 
     78 H78        21.7604  -28.5377  -48.1705 H         1 UNK         0.0983 
     79 H79        19.9800  -27.3354  -46.3013 H         1 UNK         0.3095 
     80 H80        21.1486  -24.0340  -46.6450 H         1 UNK         0.0454 
     81 H81        20.2715  -24.3537  -48.9445 H         1 UNK         0.0851 
     82 H82        19.0503  -23.6282  -47.9144 H         1 UNK         0.0851 
     83 H83        18.9496  -25.3385  -48.3358 H         1 UNK         0.0851 
     84 H84        18.6560  -25.3887  -45.8848 H         1 UNK         0.2976 
     85 H85        22.1374  -27.7636  -44.7629 H         1 UNK         0.3116 
     86 H86        24.8363  -28.6833  -44.5907 H         1 UNK         0.0646 
     87 H87        22.7357  -30.1619  -42.8880 H         1 UNK         0.0847 
     88 H88        23.5701  -30.9026  -44.2512 H         1 UNK         0.0847 
     89 H89        24.4717  -30.4157  -42.8323 H         1 UNK         0.0847 
     90 H90        25.3093  -28.5602  -42.0019 H         1 UNK         0.3040 
     91 H91        24.7002  -25.8701  -41.1260 H         1 UNK         0.1015 
     92 H92        26.1341  -26.5316  -39.1853 H         1 UNK         0.0786 
     93 H93        26.9123  -26.8990  -40.7154 H         1 UNK         0.0786 
     94 H94        26.1765  -28.1903  -39.7660 H         1 UNK         0.0786 
     95 H95        22.3520  -26.3514  -41.3103 H         1 UNK         0.3172 
     96 H96        20.3016  -26.4501  -40.4543 H         1 UNK         0.0595 
     97 H97        21.4893  -26.7511  -37.6427 H         1 UNK         0.0839 
     98 H98        19.8251  -26.3314  -38.0480 H         1 UNK         0.0839 
     99 H99        21.1246  -25.2257  -38.4353 H         1 UNK         0.0839 
    100 H100       20.0707  -28.4251  -37.9096 H         1 UNK         0.2998 
    101 H101       19.1609  -30.6544  -39.4770 H         1 UNK         0.0822 
    102 H102       18.5251  -31.5732  -37.2469 H         1 UNK         0.0787 
    103 H103       19.4478  -30.3120  -36.4419 H         1 UNK         0.0787 
    104 H104       18.0215  -29.8998  -37.3961 H         1 UNK         0.0787 
    105 H105       22.3298  -29.9455  -38.5850 H         1 UNK         0.3055 
    106 H106       23.2483  -32.5820  -37.7976 H         1 UNK         0.1106 
    107 H107       24.3309  -30.4633  -37.0083 H         1 UNK         0.0828 
    108 H108       25.4684  -31.5236  -37.8234 H         1 UNK         0.0828 
    109 H109       24.8391  -30.1143  -38.6603 H         1 UNK         0.0828 
    110 H110       21.8839  -33.2117  -39.9199 H         1 UNK         0.2931 
    111 H111       23.5277  -33.3785  -42.3395 H         1 UNK         0.0412 
    112 H112       24.2783  -36.6856  -40.1866 H         1 UNK         0.3472 
    113 H113       23.6178  -35.2417  -39.4598 H         1 UNK         0.3472 
    114 H114       21.5611  -34.6881  -43.2505 H         1 UNK         0.0970 
    115 H115       20.7709  -34.5323  -41.6992 H         1 UNK         0.0970 
    116 H116       18.8076  -32.6168  -41.6624 H         1 UNK         0.0612 
    117 H117       18.7716  -33.6205  -43.1004 H         1 UNK         0.0612 
@<TRIPOS>BOND
     1    1    2 1    
     2    1   62 1    
     3    1   63 1    
     4    1   64 1    
     5    2    3 2    
     6    2    4 am   BACKBONE|DICT|INTERRES
     7    4    5 1    
     8    4   65 1    
     9    5    6 1    
    10    5   25 1    
    11    5   66 1    
    12    6    7 1    
    13    6   67 1    
    14    6   68 1    
    15    7    8 1    
    16    8    9 1    
    17    8   69 1    
    18    8   70 1    
    19    9   10 ar   
    20    9   14 ar   
    21   10   11 ar   
    22   10   71 1    
    23   11   12 ar   
    24   11   61 1    
    25   12   13 ar   
    26   12   72 1    
    27   13   14 ar   
    28   13   15 1    
    29   14   73 1    
    30   15   16 1    
    31   15   74 1    
    32   15   75 1    
    33   16   17 1    
    34   17   18 1    
    35   17   76 1    
    36   17   77 1    
    37   18   19 1    
    38   18   27 1    
    39   18   78 1    
    40   19   20 am   BACKBONE|DICT|INTERRES
    41   19   79 1    
    42   20   21 2    
    43   20   22 1    
    44   22   23 1    
    45   22   24 1    
    46   22   80 1    
    47   23   81 1    
    48   23   82 1    
    49   23   83 1    
    50   24   25 am   BACKBONE|DICT|INTERRES
    51   24   84 1    
    52   25   26 2    
    53   27   28 2    
    54   27   29 am   BACKBONE|DICT|INTERRES
    55   29   30 1    
    56   29   85 1    
    57   30   31 1    
    58   30   32 1    
    59   30   86 1    
    60   31   87 1    
    61   31   88 1    
    62   31   89 1    
    63   32   33 2    
    64   32   34 am   BACKBONE|DICT|INTERRES
    65   34   35 1    
    66   34   90 1    
    67   35   36 1    
    68   35   37 1    
    69   35   91 1    
    70   36   92 1    
    71   36   93 1    
    72   36   94 1    
    73   37   38 2    
    74   37   39 am   BACKBONE|DICT|INTERRES
    75   39   40 1    
    76   39   95 1    
    77   40   41 1    
    78   40   42 1    
    79   40   96 1    
    80   41   97 1    
    81   41   98 1    
    82   41   99 1    
    83   42   43 2    
    84   42   44 am   BACKBONE|DICT|INTERRES
    85   44   45 1    
    86   44  100 1    
    87   45   46 1    
    88   45   47 1    
    89   45  101 1    
    90   46  102 1    
    91   46  103 1    
    92   46  104 1    
    93   47   48 2    
    94   47   49 am   BACKBONE|DICT|INTERRES
    95   49   50 1    
    96   49  105 1    
    97   50   51 1    
    98   50   52 1    
    99   50  106 1    
   100   51  107 1    
   101   51  108 1    
   102   51  109 1    
   103   52   53 2    
   104   52   54 am   BACKBONE|DICT|INTERRES
   105   54   55 1    
   106   54  110 1    
   107   55   56 1    
   108   55   59 1    
   109   55  111 1    
   110   56   57 am   BACKBONE|DICT|INTERRES
   111   56   58 2    
   112   57  112 1    
   113   57  113 1    
   114   59   60 1    
   115   59  114 1    
   116   59  115 1    
   117   60   61 1    
   118   61  116 1    
   119   61  117 1    
@<TRIPOS>SUBSTRUCTURE
     1 UNK         1 GROUP             0       ****    0 ROOT    
