@<TRIPOS>MOLECULE
3R8
117   119    1
SMALL
USER_CHARGES


@<TRIPOS>ATOM
      1 CA         13.9980  -24.6672  -43.6581 C.3       0 UNK        -0.2013 
      2 C          14.4797  -26.1145  -43.7063 C.2       0 UNK         0.4866 
      3 O          13.9171  -26.9591  -43.0132 O.2       0 UNK        -0.5176 
      4 N          15.4985  -26.4625  -44.5040 N.am      1 UNK        -0.4884 
      5 CA         16.3136  -25.5828  -45.3502 C.3       1 UNK         0.0853 
      6 C6         17.1190  -26.3492  -46.4288 C.3       10 UNK        -0.0849 
      7 S7         16.0767  -27.2465  -47.6310 S.3       10 UNK        -0.2776 
      8 C8         15.6581  -28.8194  -46.7907 C.3       10 UNK         0.0316 
      9 C9         16.8323  -29.5562  -46.1473 C.ar      10 UNK        -0.0863 
     10 C10        16.6410  -30.2288  -44.9353 C.ar      10 UNK        -0.1009 
     11 C11        17.6836  -30.9508  -44.3462 C.ar      10 UNK        -0.0712 
     12 C12        18.9329  -30.9879  -44.9707 C.ar      10 UNK        -0.0894 
     13 C13        19.1465  -30.2991  -46.1674 C.ar      10 UNK        -0.0745 
     14 C14        18.0885  -29.6071  -46.7622 C.ar      10 UNK        -0.0972 
     15 C15        20.5153  -30.3009  -46.8285 C.3       10 UNK         0.0209 
     16 S16        21.4699  -28.8157  -46.3797 S.3       10 UNK        -0.2568 
     17 C17        22.0542  -29.2422  -44.7053 C.3       10 UNK        -0.0983 
     18 CA         21.7626  -28.1495  -43.6454 C.3       3 UNK         0.0876 
     19 N          20.3288  -27.8166  -43.5699 N.am      3 UNK        -0.4424 
     20 C          19.8243  -26.6647  -43.1097 C.2       2 UNK         0.4918 
     21 O          20.5158  -25.7665  -42.6246 O.2       2 UNK        -0.4875 
     22 CA         18.3013  -26.4972  -43.1388 C.3       2 UNK         0.0481 
     23 CB         17.7181  -26.7274  -41.7346 C.3       2 UNK        -0.1831 
     24 N          18.0172  -25.1209  -43.5456 N.am      2 UNK        -0.4498 
     25 C          17.2369  -24.6496  -44.5314 C.2       1 UNK         0.5027 
     26 O          17.2162  -23.4482  -44.7926 O.2       1 UNK        -0.4969 
     27 C          22.3816  -28.5127  -42.2694 C.2       3 UNK         0.5005 
     28 O          23.2471  -29.3889  -42.1874 O.2       3 UNK        -0.5279 
     29 N          21.9380  -27.8431  -41.1972 N.am      4 UNK        -0.4463 
     30 CA         22.3992  -28.0470  -39.8218 C.3       4 UNK         0.0283 
     31 CB         21.4685  -27.3043  -38.8520 C.3       4 UNK        -0.1875 
     32 C          23.8617  -27.6228  -39.6152 C.2       4 UNK         0.4949 
     33 O          24.5724  -28.2659  -38.8449 O.2       4 UNK        -0.5039 
     34 N          24.3057  -26.5953  -40.3542 N.am      5 UNK        -0.4663 
     35 CA         25.6947  -26.1214  -40.3821 C.3       5 UNK         0.0242 
     36 CB         25.7580  -24.7921  -41.1512 C.3       5 UNK        -0.1982 
     37 C          26.6805  -27.1402  -40.9859 C.2       5 UNK         0.5017 
     38 O          27.8615  -27.1128  -40.6400 O.2       5 UNK        -0.5012 
     39 N          26.1751  -28.0279  -41.8536 N.am      6 UNK        -0.4439 
     40 CA         26.9113  -29.1501  -42.4398 C.3       6 UNK         0.0297 
     41 CB         26.4094  -29.3674  -43.8782 C.3       6 UNK        -0.2006 
     42 C          26.7626  -30.4449  -41.6164 C.2       6 UNK         0.4892 
     43 O          27.3238  -31.4658  -42.0151 O.2       6 UNK        -0.5089 
     44 N          25.9935  -30.3951  -40.5150 N.am      7 UNK        -0.4243 
     45 CA         25.5906  -31.5102  -39.6484 C.3       7 UNK         0.0196 
     46 CB         26.8109  -32.1375  -38.9412 C.3       7 UNK        -0.2007 
     47 C          24.7081  -32.5560  -40.3615 C.2       7 UNK         0.5020 
     48 O          24.6446  -33.7028  -39.9171 O.2       7 UNK        -0.5147 
     49 N          24.0217  -32.1443  -41.4363 N.am      8 UNK        -0.4734 
     50 CA         23.1319  -32.9869  -42.2414 C.3       8 UNK         0.0238 
     51 CB         23.4372  -32.7401  -43.7287 C.3       8 UNK        -0.1912 
     52 C          21.6457  -32.7435  -41.9217 C.2       8 UNK         0.5038 
     53 O          20.7888  -33.3874  -42.5272 O.2       8 UNK        -0.5046 
     54 N          21.3640  -31.8302  -40.9858 N.am      9 UNK        -0.4200 
     55 CA         20.0240  -31.4739  -40.5015 C.3       9 UNK         0.0839 
     56 C          20.0205  -31.0997  -38.9904 C.2       9 UNK         0.5513 
     57 N          21.0066  -31.5257  -38.2085 N.am      9 UNK        -0.7519 
     58 O          19.1215  -30.4147  -38.5118 O.2       9 UNK        -0.4960 
     59 C59        19.3532  -30.4133  -41.4188 C.3       10 UNK        -0.0876 
     60 S60        17.5522  -30.6500  -41.5847 S.3       10 UNK        -0.2414 
     61 C61        17.4475  -31.7191  -43.0535 C.3       10 UNK         0.0169 
     62 H62        14.7279  -24.0316  -43.1581 H         1 UNK         0.0903 
     63 H63        13.8102  -24.2747  -44.6565 H         1 UNK         0.0903 
     64 H64        13.0639  -24.5975  -43.1009 H         1 UNK         0.0903 
     65 H65        15.7848  -27.4296  -44.5034 H         1 UNK         0.3096 
     66 H66        15.6263  -24.9325  -45.8947 H         1 UNK         0.1121 
     67 H67        17.7102  -25.6410  -47.0132 H         1 UNK         0.0849 
     68 H68        17.8494  -27.0261  -45.9912 H         1 UNK         0.0849 
     69 H69        14.8788  -28.6225  -46.0538 H         1 UNK         0.0865 
     70 H70        15.2042  -29.4850  -47.5260 H         1 UNK         0.0865 
     71 H71        15.6724  -30.2109  -44.4538 H         1 UNK         0.1346 
     72 H72        19.7368  -31.5578  -44.5247 H         1 UNK         0.1412 
     73 H73        18.2508  -29.0948  -47.7008 H         1 UNK         0.1426 
     74 H74        21.0761  -31.1987  -46.5634 H         1 UNK         0.0716 
     75 H75        20.3974  -30.3272  -47.9128 H         1 UNK         0.0716 
     76 H76        21.6198  -30.1908  -44.3917 H         1 UNK         0.0695 
     77 H77        23.1284  -29.4127  -44.7900 H         1 UNK         0.0695 
     78 H78        22.2889  -27.2488  -43.9696 H         1 UNK         0.0983 
     79 H79        19.7008  -28.5039  -43.9620 H         1 UNK         0.3095 
     80 H80        17.8826  -27.2345  -43.8200 H         1 UNK         0.0454 
     81 H81        16.6370  -26.5958  -41.7233 H         1 UNK         0.0851 
     82 H82        17.9181  -27.7377  -41.3833 H         1 UNK         0.0851 
     83 H83        18.1414  -26.0398  -41.0010 H         1 UNK         0.0851 
     84 H84        18.6163  -24.4506  -43.0824 H         1 UNK         0.2976 
     85 H85        21.2815  -27.0867  -41.3620 H         1 UNK         0.3116 
     86 H86        22.3365  -29.1141  -39.6011 H         1 UNK         0.0646 
     87 H87        21.7818  -27.4568  -37.8182 H         1 UNK         0.0847 
     88 H88        20.4427  -27.6653  -38.9326 H         1 UNK         0.0847 
     89 H89        21.4630  -26.2294  -39.0368 H         1 UNK         0.0847 
     90 H90        23.6483  -26.1186  -40.9550 H         1 UNK         0.3040 
     91 H91        26.0087  -25.9392  -39.3516 H         1 UNK         0.1015 
     92 H92        25.1277  -24.0336  -40.6863 H         1 UNK         0.0786 
     93 H93        25.4375  -24.9079  -42.1874 H         1 UNK         0.0786 
     94 H94        26.7755  -24.3986  -41.1671 H         1 UNK         0.0786 
     95 H95        25.1845  -27.9930  -42.0530 H         1 UNK         0.3172 
     96 H96        27.9755  -28.9098  -42.4840 H         1 UNK         0.0595 
     97 H97        25.3658  -29.6818  -43.8983 H         1 UNK         0.0839 
     98 H98        26.9892  -30.1421  -44.3819 H         1 UNK         0.0839 
     99 H99        26.5001  -28.4594  -44.4744 H         1 UNK         0.0839 
    100 H100       25.5974  -29.4992  -40.2565 H         1 UNK         0.2998 
    101 H101       24.9588  -31.0703  -38.8753 H         1 UNK         0.0822 
    102 H102       27.4141  -31.3782  -38.4436 H         1 UNK         0.0787 
    103 H103       26.4970  -32.8506  -38.1779 H         1 UNK         0.0787 
    104 H104       27.4540  -32.6740  -39.6393 H         1 UNK         0.0787 
    105 H105       24.0849  -31.1694  -41.7174 H         1 UNK         0.3055 
    106 H106       23.3212  -34.0425  -42.0339 H         1 UNK         0.1106 
    107 H107       22.7591  -33.2989  -44.3751 H         1 UNK         0.0828 
    108 H108       23.3501  -31.6873  -43.9886 H         1 UNK         0.0828 
    109 H109       24.4510  -33.0555  -43.9759 H         1 UNK         0.0828 
    110 H110       22.1329  -31.3381  -40.5557 H         1 UNK         0.2931 
    111 H111       19.4269  -32.3867  -40.5459 H         1 UNK         0.0412 
    112 H112       20.9918  -31.2779  -37.2313 H         1 UNK         0.3472 
    113 H113       21.7102  -32.1587  -38.5523 H         1 UNK         0.3472 
    114 H114       19.7916  -30.4373  -42.4143 H         1 UNK         0.0970 
    115 H115       19.5449  -29.4065  -41.0471 H         1 UNK         0.0970 
    116 H116       18.1573  -32.5422  -42.9563 H         1 UNK         0.0612 
    117 H117       16.4573  -32.1760  -43.0810 H         1 UNK         0.0612 
@<TRIPOS>BOND
     1    1    2 1    
     2    1   62 1    
     3    1   63 1    
     4    1   64 1    
     5    2    3 2    
     6    2    4 am   BACKBONE|DICT|INTERRES
     7    4    5 1    
     8    4   65 1    
     9    5    6 1    
    10    5   25 1    
    11    5   66 1    
    12    6    7 1    
    13    6   67 1    
    14    6   68 1    
    15    7    8 1    
    16    8    9 1    
    17    8   69 1    
    18    8   70 1    
    19    9   10 ar   
    20    9   14 ar   
    21   10   11 ar   
    22   10   71 1    
    23   11   12 ar   
    24   11   61 1    
    25   12   13 ar   
    26   12   72 1    
    27   13   14 ar   
    28   13   15 1    
    29   14   73 1    
    30   15   16 1    
    31   15   74 1    
    32   15   75 1    
    33   16   17 1    
    34   17   18 1    
    35   17   76 1    
    36   17   77 1    
    37   18   19 1    
    38   18   27 1    
    39   18   78 1    
    40   19   20 am   BACKBONE|DICT|INTERRES
    41   19   79 1    
    42   20   21 2    
    43   20   22 1    
    44   22   23 1    
    45   22   24 1    
    46   22   80 1    
    47   23   81 1    
    48   23   82 1    
    49   23   83 1    
    50   24   25 am   BACKBONE|DICT|INTERRES
    51   24   84 1    
    52   25   26 2    
    53   27   28 2    
    54   27   29 am   BACKBONE|DICT|INTERRES
    55   29   30 1    
    56   29   85 1    
    57   30   31 1    
    58   30   32 1    
    59   30   86 1    
    60   31   87 1    
    61   31   88 1    
    62   31   89 1    
    63   32   33 2    
    64   32   34 am   BACKBONE|DICT|INTERRES
    65   34   35 1    
    66   34   90 1    
    67   35   36 1    
    68   35   37 1    
    69   35   91 1    
    70   36   92 1    
    71   36   93 1    
    72   36   94 1    
    73   37   38 2    
    74   37   39 am   BACKBONE|DICT|INTERRES
    75   39   40 1    
    76   39   95 1    
    77   40   41 1    
    78   40   42 1    
    79   40   96 1    
    80   41   97 1    
    81   41   98 1    
    82   41   99 1    
    83   42   43 2    
    84   42   44 am   BACKBONE|DICT|INTERRES
    85   44   45 1    
    86   44  100 1    
    87   45   46 1    
    88   45   47 1    
    89   45  101 1    
    90   46  102 1    
    91   46  103 1    
    92   46  104 1    
    93   47   48 2    
    94   47   49 am   BACKBONE|DICT|INTERRES
    95   49   50 1    
    96   49  105 1    
    97   50   51 1    
    98   50   52 1    
    99   50  106 1    
   100   51  107 1    
   101   51  108 1    
   102   51  109 1    
   103   52   53 2    
   104   52   54 am   BACKBONE|DICT|INTERRES
   105   54   55 1    
   106   54  110 1    
   107   55   56 1    
   108   55   59 1    
   109   55  111 1    
   110   56   57 am   BACKBONE|DICT|INTERRES
   111   56   58 2    
   112   57  112 1    
   113   57  113 1    
   114   59   60 1    
   115   59  114 1    
   116   59  115 1    
   117   60   61 1    
   118   61  116 1    
   119   61  117 1    
@<TRIPOS>SUBSTRUCTURE
     1 UNK         1 GROUP             0       ****    0 ROOT    
