@<TRIPOS>MOLECULE
3R8
117   119    1
SMALL
USER_CHARGES


@<TRIPOS>ATOM
      1 CA         16.8239  -25.2969  -48.7356 C.3       0 UNK        -0.2013 
      2 C          16.9154  -25.9411  -47.3605 C.2       0 UNK         0.4866 
      3 O          16.5355  -27.1012  -47.2040 O.2       0 UNK        -0.5176 
      4 N          17.4140  -25.1960  -46.3665 N.am      1 UNK        -0.4884 
      5 CA         17.5620  -25.6413  -44.9755 C.3       1 UNK         0.0853 
      6 C6         16.3569  -25.1805  -44.1103 C.3       10 UNK        -0.0849 
      7 S7         16.0796  -26.1191  -42.5658 S.3       10 UNK        -0.2776 
      8 C8         15.3951  -27.7111  -43.1374 C.3       10 UNK         0.0316 
      9 C9         16.4486  -28.8098  -43.0820 C.ar      10 UNK        -0.0863 
     10 C10        16.8220  -29.3676  -41.8545 C.ar      10 UNK        -0.1009 
     11 C11        17.8386  -30.3268  -41.7752 C.ar      10 UNK        -0.0712 
     12 C12        18.4675  -30.7401  -42.9568 C.ar      10 UNK        -0.0894 
     13 C13        18.0835  -30.2124  -44.1913 C.ar      10 UNK        -0.0745 
     14 C14        17.0643  -29.2605  -44.2504 C.ar      10 UNK        -0.0972 
     15 C15        18.7747  -30.6550  -45.4676 C.3       10 UNK         0.0209 
     16 S16        19.9516  -29.3947  -46.0417 S.3       10 UNK        -0.2568 
     17 C17        21.4054  -29.6835  -44.9663 C.3       10 UNK        -0.0983 
     18 CA         21.8637  -28.4704  -44.1022 C.3       3 UNK         0.0876 
     19 N          21.5119  -27.1779  -44.6883 N.am      3 UNK        -0.4424 
     20 C          22.0118  -25.9877  -44.3366 C.2       2 UNK         0.4918 
     21 O          22.9165  -25.8441  -43.5138 O.2       2 UNK        -0.4875 
     22 CA         21.3342  -24.7531  -44.9614 C.3       2 UNK         0.0481 
     23 CB         22.1032  -24.2950  -46.2093 C.3       2 UNK        -0.1831 
     24 N          19.9228  -24.9852  -45.3075 N.am      2 UNK        -0.4498 
     25 C          18.9550  -25.2710  -44.4184 C.2       1 UNK         0.5027 
     26 O          19.1652  -25.3033  -43.2070 O.2       1 UNK        -0.4969 
     27 C          21.4978  -28.5990  -42.6053 C.2       3 UNK         0.5005 
     28 O          22.0992  -29.4344  -41.9345 O.2       3 UNK        -0.5279 
     29 N          20.6053  -27.7487  -42.0694 N.am      4 UNK        -0.4463 
     30 CA         20.3718  -27.6457  -40.6240 C.3       4 UNK         0.0283 
     31 CB         19.0798  -26.8652  -40.3431 C.3       4 UNK        -0.1875 
     32 C          21.5493  -26.9822  -39.8916 C.2       4 UNK         0.4949 
     33 O          21.8819  -27.3978  -38.7820 O.2       4 UNK        -0.5039 
     34 N          22.1591  -25.9685  -40.5231 N.am      5 UNK        -0.4663 
     35 CA         23.3201  -25.2489  -39.9965 C.3       5 UNK         0.0242 
     36 CB         23.4188  -23.8651  -40.6592 C.3       5 UNK        -0.1982 
     37 C          24.6186  -26.0454  -40.1885 C.2       5 UNK         0.5017 
     38 O          25.4432  -26.0827  -39.2749 O.2       5 UNK        -0.5012 
     39 N          24.7691  -26.6802  -41.3607 N.am      6 UNK        -0.4439 
     40 CA         25.9070  -27.5469  -41.6893 C.3       6 UNK         0.0297 
     41 CB         25.9556  -27.7758  -43.2076 C.3       6 UNK        -0.2006 
     42 C          25.8934  -28.8945  -40.9401 C.2       6 UNK         0.4892 
     43 O          26.9568  -29.4971  -40.7891 O.2       6 UNK        -0.5089 
     44 N          24.7053  -29.3256  -40.4894 N.am      7 UNK        -0.4243 
     45 CA         24.3872  -30.5901  -39.8183 C.3       7 UNK         0.0196 
     46 CB         25.2182  -30.7700  -38.5275 C.3       7 UNK        -0.2007 
     47 C          24.4633  -31.8026  -40.7678 C.2       7 UNK         0.5020 
     48 O          24.6252  -31.6386  -41.9790 O.2       7 UNK        -0.5147 
     49 N          24.3047  -33.0042  -40.1912 N.am      8 UNK        -0.4734 
     50 CA         24.1903  -34.3052  -40.8671 C.3       8 UNK         0.0238 
     51 CB         25.4954  -34.6727  -41.6065 C.3       8 UNK        -0.1912 
     52 C          22.9387  -34.3733  -41.7644 C.2       8 UNK         0.5038 
     53 O          23.0403  -34.6710  -42.9559 O.2       8 UNK        -0.5046 
     54 N          21.7808  -34.0741  -41.1601 N.am      9 UNK        -0.4200 
     55 CA         20.4577  -34.0387  -41.8065 C.3       9 UNK         0.0839 
     56 C          19.9483  -35.4040  -42.3557 C.2       9 UNK         0.5513 
     57 N          20.4778  -36.5394  -41.9157 N.am      9 UNK        -0.7519 
     58 O          19.0529  -35.4289  -43.1950 O.2       9 UNK        -0.4960 
     59 C59        19.3845  -33.4099  -40.8767 C.3       10 UNK        -0.0876 
     60 S60        19.8228  -31.7397  -40.2792 S.3       10 UNK        -0.2414 
     61 C61        18.2166  -30.8717  -40.3945 C.3       10 UNK         0.0169 
     62 H62        15.7887  -25.2873  -49.0762 H         1 UNK         0.0903 
     63 H63        17.1892  -24.2701  -48.7324 H         1 UNK         0.0903 
     64 H64        17.4137  -25.8645  -49.4552 H         1 UNK         0.0903 
     65 H65        17.6772  -24.2358  -46.5475 H         1 UNK         0.3096 
     66 H66        17.5739  -26.7293  -44.9685 H         1 UNK         0.1121 
     67 H67        16.4594  -24.1240  -43.8562 H         1 UNK         0.0849 
     68 H68        15.4357  -25.2491  -44.6915 H         1 UNK         0.0849 
     69 H69        14.5567  -27.9855  -42.4955 H         1 UNK         0.0865 
     70 H70        14.9863  -27.6099  -44.1441 H         1 UNK         0.0865 
     71 H71        16.3376  -29.0267  -40.9494 H         1 UNK         0.1346 
     72 H72        19.2641  -31.4664  -42.9296 H         1 UNK         0.1412 
     73 H73        16.7713  -28.8550  -45.2094 H         1 UNK         0.1426 
     74 H74        18.0265  -30.8155  -46.2452 H         1 UNK         0.0716 
     75 H75        19.2839  -31.6107  -45.3334 H         1 UNK         0.0716 
     76 H76        21.2475  -30.5744  -44.3551 H         1 UNK         0.0695 
     77 H77        22.2210  -29.9549  -45.6382 H         1 UNK         0.0695 
     78 H78        22.9535  -28.5005  -44.1062 H         1 UNK         0.0983 
     79 H79        20.7768  -27.2122  -45.3801 H         1 UNK         0.3095 
     80 H80        21.3710  -23.9499  -44.2228 H         1 UNK         0.0454 
     81 H81        23.1489  -24.0954  -45.9702 H         1 UNK         0.0851 
     82 H82        22.0878  -25.0503  -46.9958 H         1 UNK         0.0851 
     83 H83        21.6861  -23.3746  -46.6176 H         1 UNK         0.0851 
     84 H84        19.6917  -25.0055  -46.2905 H         1 UNK         0.2976 
     85 H85        20.1364  -27.0673  -42.6554 H         1 UNK         0.3116 
     86 H86        20.2513  -28.6545  -40.2252 H         1 UNK         0.0646 
     87 H87        18.8310  -26.8963  -39.2819 H         1 UNK         0.0847 
     88 H88        18.2360  -27.2835  -40.8858 H         1 UNK         0.0847 
     89 H89        19.1662  -25.8156  -40.6248 H         1 UNK         0.0847 
     90 H90        21.8455  -25.7124  -41.4497 H         1 UNK         0.3040 
     91 H91        23.1792  -25.0986  -38.9233 H         1 UNK         0.1015 
     92 H92        22.5181  -23.2768  -40.4836 H         1 UNK         0.0786 
     93 H93        23.5675  -23.9362  -41.7372 H         1 UNK         0.0786 
     94 H94        24.2584  -23.2997  -40.2526 H         1 UNK         0.0786 
     95 H95        24.0685  -26.5318  -42.0817 H         1 UNK         0.3172 
     96 H96        26.8196  -27.0209  -41.4019 H         1 UNK         0.0595 
     97 H97        26.8741  -28.2920  -43.4899 H         1 UNK         0.0839 
     98 H98        25.9292  -26.8358  -43.7581 H         1 UNK         0.0839 
     99 H99        25.1265  -28.3927  -43.5482 H         1 UNK         0.0839 
    100 H100       23.8897  -28.7938  -40.7628 H         1 UNK         0.2998 
    101 H101       23.3385  -30.5008  -39.5288 H         1 UNK         0.0822 
    102 H102       25.2186  -29.8587  -37.9291 H         1 UNK         0.0787 
    103 H103       24.8117  -31.5609  -37.8972 H         1 UNK         0.0787 
    104 H104       26.2556  -31.0273  -38.7439 H         1 UNK         0.0787 
    105 H105       24.1836  -33.0262  -39.1882 H         1 UNK         0.3055 
    106 H106       24.0435  -35.0522  -40.0855 H         1 UNK         0.1106 
    107 H107       25.6949  -34.0047  -42.4442 H         1 UNK         0.0828 
    108 H108       26.3543  -34.6359  -40.9372 H         1 UNK         0.0828 
    109 H109       25.4410  -35.6849  -42.0088 H         1 UNK         0.0828 
    110 H110       21.7957  -33.8152  -40.1853 H         1 UNK         0.2931 
    111 H111       20.5635  -33.3888  -42.6766 H         1 UNK         0.0412 
    112 H112       21.2100  -36.5301  -41.2247 H         1 UNK         0.3472 
    113 H113       20.1395  -37.4164  -42.2804 H         1 UNK         0.3472 
    114 H114       18.4261  -33.3555  -41.3968 H         1 UNK         0.0970 
    115 H115       19.2155  -34.0463  -40.0063 H         1 UNK         0.0970 
    116 H116       18.2501  -30.0391  -39.6905 H         1 UNK         0.0612 
    117 H117       17.4244  -31.5339  -40.0429 H         1 UNK         0.0612 
@<TRIPOS>BOND
     1    1    2 1    
     2    1   62 1    
     3    1   63 1    
     4    1   64 1    
     5    2    3 2    
     6    2    4 am   BACKBONE|DICT|INTERRES
     7    4    5 1    
     8    4   65 1    
     9    5    6 1    
    10    5   25 1    
    11    5   66 1    
    12    6    7 1    
    13    6   67 1    
    14    6   68 1    
    15    7    8 1    
    16    8    9 1    
    17    8   69 1    
    18    8   70 1    
    19    9   10 ar   
    20    9   14 ar   
    21   10   11 ar   
    22   10   71 1    
    23   11   12 ar   
    24   11   61 1    
    25   12   13 ar   
    26   12   72 1    
    27   13   14 ar   
    28   13   15 1    
    29   14   73 1    
    30   15   16 1    
    31   15   74 1    
    32   15   75 1    
    33   16   17 1    
    34   17   18 1    
    35   17   76 1    
    36   17   77 1    
    37   18   19 1    
    38   18   27 1    
    39   18   78 1    
    40   19   20 am   BACKBONE|DICT|INTERRES
    41   19   79 1    
    42   20   21 2    
    43   20   22 1    
    44   22   23 1    
    45   22   24 1    
    46   22   80 1    
    47   23   81 1    
    48   23   82 1    
    49   23   83 1    
    50   24   25 am   BACKBONE|DICT|INTERRES
    51   24   84 1    
    52   25   26 2    
    53   27   28 2    
    54   27   29 am   BACKBONE|DICT|INTERRES
    55   29   30 1    
    56   29   85 1    
    57   30   31 1    
    58   30   32 1    
    59   30   86 1    
    60   31   87 1    
    61   31   88 1    
    62   31   89 1    
    63   32   33 2    
    64   32   34 am   BACKBONE|DICT|INTERRES
    65   34   35 1    
    66   34   90 1    
    67   35   36 1    
    68   35   37 1    
    69   35   91 1    
    70   36   92 1    
    71   36   93 1    
    72   36   94 1    
    73   37   38 2    
    74   37   39 am   BACKBONE|DICT|INTERRES
    75   39   40 1    
    76   39   95 1    
    77   40   41 1    
    78   40   42 1    
    79   40   96 1    
    80   41   97 1    
    81   41   98 1    
    82   41   99 1    
    83   42   43 2    
    84   42   44 am   BACKBONE|DICT|INTERRES
    85   44   45 1    
    86   44  100 1    
    87   45   46 1    
    88   45   47 1    
    89   45  101 1    
    90   46  102 1    
    91   46  103 1    
    92   46  104 1    
    93   47   48 2    
    94   47   49 am   BACKBONE|DICT|INTERRES
    95   49   50 1    
    96   49  105 1    
    97   50   51 1    
    98   50   52 1    
    99   50  106 1    
   100   51  107 1    
   101   51  108 1    
   102   51  109 1    
   103   52   53 2    
   104   52   54 am   BACKBONE|DICT|INTERRES
   105   54   55 1    
   106   54  110 1    
   107   55   56 1    
   108   55   59 1    
   109   55  111 1    
   110   56   57 am   BACKBONE|DICT|INTERRES
   111   56   58 2    
   112   57  112 1    
   113   57  113 1    
   114   59   60 1    
   115   59  114 1    
   116   59  115 1    
   117   60   61 1    
   118   61  116 1    
   119   61  117 1    
@<TRIPOS>SUBSTRUCTURE
     1 UNK         1 GROUP             0       ****    0 ROOT    
