@<TRIPOS>MOLECULE
3R8
117   119    1
SMALL
USER_CHARGES


@<TRIPOS>ATOM
      1 CA         15.0784  -22.5796  -41.6309 C.3       0 UNK        -0.2013 
      2 C          15.6181  -23.2431  -42.8891 C.2       0 UNK         0.4866 
      3 O          15.5352  -22.6611  -43.9708 O.2       0 UNK        -0.5176 
      4 N          16.1685  -24.4580  -42.7563 N.am      1 UNK        -0.4884 
      5 CA         16.7450  -25.2425  -43.8577 C.3       1 UNK         0.0853 
      6 C6         16.9480  -26.7310  -43.4545 C.3       10 UNK        -0.0849 
      7 S7         15.6145  -27.7801  -44.1216 S.3       10 UNK        -0.2776 
      8 C8         16.1358  -29.4435  -43.5718 C.3       10 UNK         0.0316 
      9 C9         17.3398  -30.0641  -44.2895 C.ar      10 UNK        -0.0863 
     10 C10        17.7413  -31.3430  -43.8953 C.ar      10 UNK        -0.1009 
     11 C11        18.8304  -31.9746  -44.4999 C.ar      10 UNK        -0.0712 
     12 C12        19.5501  -31.3019  -45.4928 C.ar      10 UNK        -0.0894 
     13 C13        19.1716  -30.0186  -45.9051 C.ar      10 UNK        -0.0745 
     14 C14        18.0453  -29.4244  -45.3188 C.ar      10 UNK        -0.0972 
     15 C15        19.9658  -29.3203  -47.0131 C.3       10 UNK         0.0209 
     16 S16        19.9472  -27.4895  -46.9239 S.3       10 UNK        -0.2568 
     17 C17        21.6994  -27.0182  -46.6697 C.3       10 UNK        -0.0983 
     18 CA         22.0156  -26.3074  -45.3218 C.3       3 UNK         0.0876 
     19 N          21.0691  -25.2397  -44.9904 N.am      3 UNK        -0.4424 
     20 C          21.2849  -24.2603  -44.1021 C.2       2 UNK         0.4918 
     21 O          22.3571  -24.0914  -43.5215 O.2       2 UNK        -0.4875 
     22 CA         20.1185  -23.3019  -43.7898 C.3       2 UNK         0.0481 
     23 CB         20.0053  -22.1959  -44.8572 C.3       2 UNK        -0.1831 
     24 N          18.8259  -23.9603  -43.5451 N.am      2 UNK        -0.4498 
     25 C          18.0509  -24.6334  -44.4089 C.2       1 UNK         0.5027 
     26 O          18.3355  -24.8013  -45.5945 O.2       1 UNK        -0.4969 
     27 C          22.1590  -27.2880  -44.1450 C.2       3 UNK         0.5005 
     28 O          23.2007  -27.3078  -43.4855 O.2       3 UNK        -0.5279 
     29 N          21.1110  -28.0957  -43.9215 N.am      4 UNK        -0.4463 
     30 CA         20.9631  -29.1071  -42.8646 C.3       4 UNK         0.0283 
     31 CB         20.6990  -28.4149  -41.5120 C.3       4 UNK        -0.1875 
     32 C          22.1212  -30.1253  -42.7896 C.2       4 UNK         0.4949 
     33 O          22.3898  -30.6506  -41.7103 O.2       4 UNK        -0.5039 
     34 N          22.8169  -30.3424  -43.9181 N.am      5 UNK        -0.4663 
     35 CA         24.0691  -31.0987  -44.0606 C.3       5 UNK         0.0242 
     36 CB         23.7997  -32.6125  -43.9568 C.3       5 UNK        -0.1982 
     37 C          25.1766  -30.6157  -43.0984 C.2       5 UNK         0.5017 
     38 O          25.8684  -31.4383  -42.4981 O.2       5 UNK        -0.5012 
     39 N          25.2934  -29.2864  -42.9421 N.am      6 UNK        -0.4439 
     40 CA         26.1577  -28.5833  -41.9841 C.3       6 UNK         0.0297 
     41 CB         27.6534  -28.8362  -42.2728 C.3       6 UNK        -0.2006 
     42 C          25.7540  -28.8814  -40.5264 C.2       6 UNK         0.4892 
     43 O          26.6099  -29.1637  -39.6869 O.2       6 UNK        -0.5089 
     44 N          24.4373  -28.8247  -40.2790 N.am      7 UNK        -0.4243 
     45 CA         23.7252  -29.0902  -39.0220 C.3       7 UNK         0.0196 
     46 CB         24.2127  -28.1648  -37.8872 C.3       7 UNK        -0.2007 
     47 C          23.6894  -30.5706  -38.5923 C.2       7 UNK         0.5020 
     48 O          23.1530  -30.8627  -37.5225 O.2       7 UNK        -0.5147 
     49 N          24.1977  -31.4926  -39.4232 N.am      8 UNK        -0.4734 
     50 CA         24.1489  -32.9388  -39.1805 C.3       8 UNK         0.0238 
     51 CB         25.0876  -33.6630  -40.1569 C.3       8 UNK        -0.1912 
     52 C          22.7265  -33.5252  -39.2523 C.2       8 UNK         0.5038 
     53 O          22.4645  -34.5289  -38.5877 O.2       8 UNK        -0.5046 
     54 N          21.8337  -32.8865  -40.0213 N.am      9 UNK        -0.4200 
     55 CA         20.3960  -33.2008  -40.0708 C.3       9 UNK         0.0839 
     56 C          19.5934  -32.6790  -38.8414 C.2       9 UNK         0.5513 
     57 N          20.1812  -31.9267  -37.9169 N.am      9 UNK        -0.7519 
     58 O          18.4067  -32.9715  -38.7192 O.2       9 UNK        -0.4960 
     59 C59        19.7386  -32.7374  -41.3991 C.3       10 UNK        -0.0876 
     60 S60        20.5300  -33.4674  -42.8720 S.3       10 UNK        -0.2414 
     61 C61        19.1967  -33.3997  -44.1060 C.3       10 UNK         0.0169 
     62 H62        14.0146  -22.3722  -41.7435 H         1 UNK         0.0903 
     63 H63        15.2096  -23.2067  -40.7492 H         1 UNK         0.0903 
     64 H64        15.5927  -21.6352  -41.4549 H         1 UNK         0.0903 
     65 H65        16.1873  -24.8932  -41.8445 H         1 UNK         0.3096 
     66 H66        16.0404  -25.1891  -44.6917 H         1 UNK         0.1121 
     67 H67        17.9005  -27.1274  -43.8095 H         1 UNK         0.0849 
     68 H68        16.9827  -26.8501  -42.3703 H         1 UNK         0.0849 
     69 H69        16.3401  -29.4076  -42.5005 H         1 UNK         0.0865 
     70 H70        15.2834  -30.1131  -43.6961 H         1 UNK         0.0865 
     71 H71        17.1900  -31.8594  -43.1211 H         1 UNK         0.1346 
     72 H72        20.3980  -31.7894  -45.9548 H         1 UNK         0.1412 
     73 H73        17.7224  -28.4568  -45.6713 H         1 UNK         0.1426 
     74 H74        19.5390  -29.6162  -47.9722 H         1 UNK         0.0716 
     75 H75        20.9948  -29.6812  -47.0173 H         1 UNK         0.0716 
     76 H76        21.9510  -26.3361  -47.4832 H         1 UNK         0.0695 
     77 H77        22.3532  -27.8794  -46.8165 H         1 UNK         0.0695 
     78 H78        22.9956  -25.8391  -45.4414 H         1 UNK         0.0983 
     79 H79        20.1531  -25.2875  -45.4296 H         1 UNK         0.3095 
     80 H80        20.3674  -22.8102  -42.8480 H         1 UNK         0.0454 
     81 H81        19.2228  -21.4804  -44.6048 H         1 UNK         0.0851 
     82 H82        19.7847  -22.5982  -45.8462 H         1 UNK         0.0851 
     83 H83        20.9396  -21.6389  -44.9383 H         1 UNK         0.0851 
     84 H84        18.4936  -23.9031  -42.5923 H         1 UNK         0.2976 
     85 H85        20.3354  -28.0259  -44.5685 H         1 UNK         0.3116 
     86 H86        20.0748  -29.6871  -43.1093 H         1 UNK         0.0646 
     87 H87        19.8271  -27.7634  -41.5677 H         1 UNK         0.0847 
     88 H88        20.5032  -29.1429  -40.7236 H         1 UNK         0.0847 
     89 H89        21.5479  -27.8078  -41.1977 H         1 UNK         0.0847 
     90 H90        22.5046  -29.8572  -44.7460 H         1 UNK         0.3040 
     91 H91        24.4420  -30.9007  -45.0667 H         1 UNK         0.1015 
     92 H92        24.7063  -33.1901  -44.1405 H         1 UNK         0.0786 
     93 H93        23.0580  -32.9329  -44.6883 H         1 UNK         0.0786 
     94 H94        23.4319  -32.8854  -42.9684 H         1 UNK         0.0786 
     95 H95        24.6209  -28.6915  -43.4201 H         1 UNK         0.3172 
     96 H96        25.9726  -27.5190  -42.1376 H         1 UNK         0.0595 
     97 H97        27.9398  -29.8696  -42.0758 H         1 UNK         0.0839 
     98 H98        28.2814  -28.2039  -41.6441 H         1 UNK         0.0839 
     99 H99        27.9017  -28.6102  -43.3096 H         1 UNK         0.0839 
    100 H100       23.8371  -28.6349  -41.0705 H         1 UNK         0.2998 
    101 H101       22.6853  -28.8297  -39.2214 H         1 UNK         0.0822 
    102 H102       23.5676  -28.2473  -37.0116 H         1 UNK         0.0787 
    103 H103       24.2047  -27.1194  -38.1954 H         1 UNK         0.0787 
    104 H104       25.2240  -28.4138  -37.5648 H         1 UNK         0.0787 
    105 H105       24.5792  -31.1870  -40.3090 H         1 UNK         0.3055 
    106 H106       24.5167  -33.1156  -38.1672 H         1 UNK         0.1106 
    107 H107       26.1061  -33.2802  -40.0886 H         1 UNK         0.0828 
    108 H108       25.1264  -34.7313  -39.9400 H         1 UNK         0.0828 
    109 H109       24.7587  -33.5541  -41.1894 H         1 UNK         0.0828 
    110 H110       22.1314  -32.0749  -40.5588 H         1 UNK         0.2931 
    111 H111       20.3021  -34.2880  -40.0376 H         1 UNK         0.0412 
    112 H112       19.6397  -31.6069  -37.1295 H         1 UNK         0.3472 
    113 H113       21.1635  -31.6934  -37.9772 H         1 UNK         0.3472 
    114 H114       18.6829  -33.0142  -41.4103 H         1 UNK         0.0970 
    115 H115       19.7696  -31.6507  -41.4847 H         1 UNK         0.0970 
    116 H116       19.5175  -33.9491  -44.9922 H         1 UNK         0.0612 
    117 H117       18.3230  -33.9296  -43.7235 H         1 UNK         0.0612 
@<TRIPOS>BOND
     1    1    2 1    
     2    1   62 1    
     3    1   63 1    
     4    1   64 1    
     5    2    3 2    
     6    2    4 am   BACKBONE|DICT|INTERRES
     7    4    5 1    
     8    4   65 1    
     9    5    6 1    
    10    5   25 1    
    11    5   66 1    
    12    6    7 1    
    13    6   67 1    
    14    6   68 1    
    15    7    8 1    
    16    8    9 1    
    17    8   69 1    
    18    8   70 1    
    19    9   10 ar   
    20    9   14 ar   
    21   10   11 ar   
    22   10   71 1    
    23   11   12 ar   
    24   11   61 1    
    25   12   13 ar   
    26   12   72 1    
    27   13   14 ar   
    28   13   15 1    
    29   14   73 1    
    30   15   16 1    
    31   15   74 1    
    32   15   75 1    
    33   16   17 1    
    34   17   18 1    
    35   17   76 1    
    36   17   77 1    
    37   18   19 1    
    38   18   27 1    
    39   18   78 1    
    40   19   20 am   BACKBONE|DICT|INTERRES
    41   19   79 1    
    42   20   21 2    
    43   20   22 1    
    44   22   23 1    
    45   22   24 1    
    46   22   80 1    
    47   23   81 1    
    48   23   82 1    
    49   23   83 1    
    50   24   25 am   BACKBONE|DICT|INTERRES
    51   24   84 1    
    52   25   26 2    
    53   27   28 2    
    54   27   29 am   BACKBONE|DICT|INTERRES
    55   29   30 1    
    56   29   85 1    
    57   30   31 1    
    58   30   32 1    
    59   30   86 1    
    60   31   87 1    
    61   31   88 1    
    62   31   89 1    
    63   32   33 2    
    64   32   34 am   BACKBONE|DICT|INTERRES
    65   34   35 1    
    66   34   90 1    
    67   35   36 1    
    68   35   37 1    
    69   35   91 1    
    70   36   92 1    
    71   36   93 1    
    72   36   94 1    
    73   37   38 2    
    74   37   39 am   BACKBONE|DICT|INTERRES
    75   39   40 1    
    76   39   95 1    
    77   40   41 1    
    78   40   42 1    
    79   40   96 1    
    80   41   97 1    
    81   41   98 1    
    82   41   99 1    
    83   42   43 2    
    84   42   44 am   BACKBONE|DICT|INTERRES
    85   44   45 1    
    86   44  100 1    
    87   45   46 1    
    88   45   47 1    
    89   45  101 1    
    90   46  102 1    
    91   46  103 1    
    92   46  104 1    
    93   47   48 2    
    94   47   49 am   BACKBONE|DICT|INTERRES
    95   49   50 1    
    96   49  105 1    
    97   50   51 1    
    98   50   52 1    
    99   50  106 1    
   100   51  107 1    
   101   51  108 1    
   102   51  109 1    
   103   52   53 2    
   104   52   54 am   BACKBONE|DICT|INTERRES
   105   54   55 1    
   106   54  110 1    
   107   55   56 1    
   108   55   59 1    
   109   55  111 1    
   110   56   57 am   BACKBONE|DICT|INTERRES
   111   56   58 2    
   112   57  112 1    
   113   57  113 1    
   114   59   60 1    
   115   59  114 1    
   116   59  115 1    
   117   60   61 1    
   118   61  116 1    
   119   61  117 1    
@<TRIPOS>SUBSTRUCTURE
     1 UNK         1 GROUP             0       ****    0 ROOT    
