@<TRIPOS>MOLECULE
3R8
117   119    1
SMALL
USER_CHARGES


@<TRIPOS>ATOM
      1 CA         15.5396  -23.1637  -42.8928 C.3       0 UNK        -0.2013 
      2 C          16.4736  -23.6217  -44.0031 C.2       0 UNK         0.4866 
      3 O          17.0570  -22.7870  -44.6961 O.2       0 UNK        -0.5176 
      4 N          16.6124  -24.9406  -44.1836 N.am      1 UNK        -0.4884 
      5 CA         17.5129  -25.5593  -45.1615 C.3       1 UNK         0.0853 
      6 C6         17.2126  -27.0644  -45.3398 C.3       10 UNK        -0.0849 
      7 S7         15.6148  -27.3843  -46.1598 S.3       10 UNK        -0.2776 
      8 C8         14.9348  -28.7692  -45.1755 C.3       10 UNK         0.0316 
      9 C9         15.9391  -29.8759  -44.8477 C.ar      10 UNK        -0.0863 
     10 C10        15.9075  -30.4729  -43.5833 C.ar      10 UNK        -0.1009 
     11 C11        16.8287  -31.4651  -43.2337 C.ar      10 UNK        -0.0712 
     12 C12        17.7937  -31.8589  -44.1659 C.ar      10 UNK        -0.0894 
     13 C13        17.8634  -31.2447  -45.4205 C.ar      10 UNK        -0.0745 
     14 C14        16.9092  -30.2863  -45.7705 C.ar      10 UNK        -0.0972 
     15 C15        19.0118  -31.5633  -46.3704 C.3       10 UNK         0.0209 
     16 S16        20.2436  -30.2101  -46.4315 S.3       10 UNK        -0.2568 
     17 C17        20.7071  -30.0679  -44.6717 C.3       10 UNK        -0.0983 
     18 CA         21.6379  -28.8839  -44.3040 C.3       3 UNK         0.0876 
     19 N          21.2425  -27.6288  -44.9488 N.am      3 UNK        -0.4424 
     20 C          21.9673  -26.5008  -44.9539 C.2       2 UNK         0.4918 
     21 O          23.0960  -26.4152  -44.4725 O.2       2 UNK        -0.4875 
     22 CA         21.3327  -25.2514  -45.5981 C.3       2 UNK         0.0481 
     23 CB         21.9744  -24.9734  -46.9670 C.3       2 UNK        -0.1831 
     24 N          19.8747  -25.3231  -45.7571 N.am      2 UNK        -0.4498 
     25 C          18.9889  -25.3906  -44.7524 C.2       1 UNK         0.5027 
     26 O          19.3057  -25.4160  -43.5607 O.2       1 UNK        -0.4969 
     27 C          21.6847  -28.7648  -42.7637 C.2       3 UNK         0.5005 
     28 O          22.4365  -29.5032  -42.1237 O.2       3 UNK        -0.5279 
     29 N          20.8519  -27.8831  -42.1882 N.am      4 UNK        -0.4463 
     30 CA         20.7247  -27.6847  -40.7451 C.3       4 UNK         0.0283 
     31 CB         19.5037  -26.7987  -40.4544 C.3       4 UNK        -0.1875 
     32 C          21.9989  -27.0633  -40.1572 C.2       4 UNK         0.4949 
     33 O          22.5518  -26.1340  -40.7490 O.2       4 UNK        -0.5039 
     34 N          22.4424  -27.6009  -39.0129 N.am      5 UNK        -0.4663 
     35 CA         23.6444  -27.2555  -38.2351 C.3       5 UNK         0.0242 
     36 CB         23.5791  -25.8065  -37.7135 C.3       5 UNK        -0.1982 
     37 C          24.9846  -27.5246  -38.9480 C.2       5 UNK         0.5017 
     38 O          25.8873  -28.0823  -38.3246 O.2       5 UNK        -0.5012 
     39 N          25.0936  -27.1362  -40.2248 N.am      6 UNK        -0.4439 
     40 CA         26.2780  -27.2988  -41.0699 C.3       6 UNK         0.0297 
     41 CB         26.1074  -26.4851  -42.3622 C.3       6 UNK        -0.2006 
     42 C          26.5831  -28.7712  -41.3852 C.2       6 UNK         0.4892 
     43 O          27.7267  -29.1966  -41.2184 O.2       6 UNK        -0.5089 
     44 N          25.5554  -29.5180  -41.8113 N.am      7 UNK        -0.4243 
     45 CA         25.6243  -30.9628  -42.0504 C.3       7 UNK         0.0196 
     46 CB         25.0903  -31.2645  -43.4624 C.3       7 UNK        -0.2007 
     47 C          24.8325  -31.7544  -40.9964 C.2       7 UNK         0.5020 
     48 O          24.8963  -32.9834  -41.0078 O.2       7 UNK        -0.5147 
     49 N          24.0722  -31.0559  -40.1368 N.am      8 UNK        -0.4734 
     50 CA         23.1337  -31.5889  -39.1389 C.3       8 UNK         0.0238 
     51 CB         23.8999  -32.2639  -37.9820 C.3       8 UNK        -0.1912 
     52 C          22.0614  -32.5011  -39.7704 C.2       8 UNK         0.5038 
     53 O          21.7504  -33.5581  -39.2189 O.2       8 UNK        -0.5046 
     54 N          21.5569  -32.0826  -40.9401 N.am      9 UNK        -0.4200 
     55 CA         20.6659  -32.8418  -41.8350 C.3       9 UNK         0.0839 
     56 C          21.3354  -34.0522  -42.5562 C.2       9 UNK         0.5513 
     57 N          22.6380  -34.2804  -42.4409 N.am      9 UNK        -0.7519 
     58 O          20.6622  -34.7819  -43.2793 O.2       9 UNK        -0.4960 
     59 C59        19.2954  -33.2139  -41.1968 C.3       10 UNK        -0.0876 
     60 S60        18.2580  -31.7520  -40.8456 S.3       10 UNK        -0.2414 
     61 C61        16.7707  -32.0997  -41.8482 C.3       10 UNK         0.0169 
     62 H62        14.7424  -22.5451  -43.3041 H         1 UNK         0.0903 
     63 H63        15.0816  -24.0045  -42.3719 H         1 UNK         0.0903 
     64 H64        16.0889  -22.5709  -42.1620 H         1 UNK         0.0903 
     65 H65        16.1177  -25.5806  -43.5795 H         1 UNK         0.3096 
     66 H66        17.3667  -25.0541  -46.1193 H         1 UNK         0.1121 
     67 H67        17.2472  -27.5669  -44.3709 H         1 UNK         0.0849 
     68 H68        17.9753  -27.5457  -45.9556 H         1 UNK         0.0849 
     69 H69        14.5218  -28.3523  -44.2555 H         1 UNK         0.0865 
     70 H70        14.0951  -29.2065  -45.7170 H         1 UNK         0.0865 
     71 H71        15.1637  -30.1591  -42.8633 H         1 UNK         0.1346 
     72 H72        18.5179  -32.6152  -43.9016 H         1 UNK         0.1412 
     73 H73        16.9605  -29.8206  -46.7450 H         1 UNK         0.1426 
     74 H74        18.6190  -31.7334  -47.3737 H         1 UNK         0.0716 
     75 H75        19.5119  -32.4871  -46.0750 H         1 UNK         0.0716 
     76 H76        21.1867  -31.0059  -44.3908 H         1 UNK         0.0695 
     77 H77        19.7861  -29.9982  -44.0912 H         1 UNK         0.0695 
     78 H78        22.6478  -29.1214  -44.6453 H         1 UNK         0.0983 
     79 H79        20.3507  -27.6342  -45.4186 H         1 UNK         0.3095 
     80 H80        21.5513  -24.4063  -44.9421 H         1 UNK         0.0454 
     81 H81        21.7760  -25.7769  -47.6776 H         1 UNK         0.0851 
     82 H82        23.0577  -24.8785  -46.8786 H         1 UNK         0.0851 
     83 H83        21.6060  -24.0426  -47.3983 H         1 UNK         0.0851 
     84 H84        19.5320  -25.3252  -46.7078 H         1 UNK         0.2976 
     85 H85        20.3184  -27.2552  -42.7768 H         1 UNK         0.3116 
     86 H86        20.5564  -28.6628  -40.2887 H         1 UNK         0.0646 
     87 H87        18.5911  -27.2304  -40.8659 H         1 UNK         0.0847 
     88 H88        19.6217  -25.7995  -40.8761 H         1 UNK         0.0847 
     89 H89        19.3525  -26.6822  -39.3805 H         1 UNK         0.0847 
     90 H90        21.8933  -28.3520  -38.6184 H         1 UNK         0.3040 
     91 H91        23.6273  -27.9122  -37.3631 H         1 UNK         0.1015 
     92 H92        23.6041  -25.0766  -38.5232 H         1 UNK         0.0786 
     93 H93        24.4248  -25.5908  -37.0590 H         1 UNK         0.0786 
     94 H94        22.6711  -25.6343  -37.1357 H         1 UNK         0.0786 
     95 H95        24.2811  -26.6750  -40.6328 H         1 UNK         0.3172 
     96 H96        27.1320  -26.8906  -40.5252 H         1 UNK         0.0595 
     97 H97        25.2480  -26.8220  -42.9424 H         1 UNK         0.0839 
     98 H98        26.9875  -26.5759  -43.0004 H         1 UNK         0.0839 
     99 H99        25.9703  -25.4249  -42.1490 H         1 UNK         0.0839 
    100 H100       24.6477  -29.0875  -41.9403 H         1 UNK         0.2998 
    101 H101       26.6574  -31.3125  -41.9991 H         1 UNK         0.0822 
    102 H102       25.6385  -30.7064  -44.2215 H         1 UNK         0.0787 
    103 H103       25.1968  -32.3237  -43.7006 H         1 UNK         0.0787 
    104 H104       24.0335  -31.0181  -43.5615 H         1 UNK         0.0787 
    105 H105       24.0635  -30.0532  -40.2512 H         1 UNK         0.3055 
    106 H106       22.5953  -30.7359  -38.7243 H         1 UNK         0.1106 
    107 H107       24.4260  -33.1599  -38.3130 H         1 UNK         0.0828 
    108 H108       23.2197  -32.5631  -37.1836 H         1 UNK         0.0828 
    109 H109       24.6335  -31.5867  -37.5446 H         1 UNK         0.0828 
    110 H110       21.9040  -31.2055  -41.3179 H         1 UNK         0.2931 
    111 H111       20.4495  -32.1475  -42.6427 H         1 UNK         0.0412 
    112 H112       23.2313  -33.7126  -41.8466 H         1 UNK         0.3472 
    113 H113       23.0378  -35.0624  -42.9344 H         1 UNK         0.3472 
    114 H114       19.4312  -33.7752  -40.2724 H         1 UNK         0.0970 
    115 H115       18.7376  -33.8851  -41.8506 H         1 UNK         0.0970 
    116 H116       15.9089  -31.7187  -41.2984 H         1 UNK         0.0612 
    117 H117       16.6060  -33.1737  -41.9411 H         1 UNK         0.0612 
@<TRIPOS>BOND
     1    1    2 1    
     2    1   62 1    
     3    1   63 1    
     4    1   64 1    
     5    2    3 2    
     6    2    4 am   BACKBONE|DICT|INTERRES
     7    4    5 1    
     8    4   65 1    
     9    5    6 1    
    10    5   25 1    
    11    5   66 1    
    12    6    7 1    
    13    6   67 1    
    14    6   68 1    
    15    7    8 1    
    16    8    9 1    
    17    8   69 1    
    18    8   70 1    
    19    9   10 ar   
    20    9   14 ar   
    21   10   11 ar   
    22   10   71 1    
    23   11   12 ar   
    24   11   61 1    
    25   12   13 ar   
    26   12   72 1    
    27   13   14 ar   
    28   13   15 1    
    29   14   73 1    
    30   15   16 1    
    31   15   74 1    
    32   15   75 1    
    33   16   17 1    
    34   17   18 1    
    35   17   76 1    
    36   17   77 1    
    37   18   19 1    
    38   18   27 1    
    39   18   78 1    
    40   19   20 am   BACKBONE|DICT|INTERRES
    41   19   79 1    
    42   20   21 2    
    43   20   22 1    
    44   22   23 1    
    45   22   24 1    
    46   22   80 1    
    47   23   81 1    
    48   23   82 1    
    49   23   83 1    
    50   24   25 am   BACKBONE|DICT|INTERRES
    51   24   84 1    
    52   25   26 2    
    53   27   28 2    
    54   27   29 am   BACKBONE|DICT|INTERRES
    55   29   30 1    
    56   29   85 1    
    57   30   31 1    
    58   30   32 1    
    59   30   86 1    
    60   31   87 1    
    61   31   88 1    
    62   31   89 1    
    63   32   33 2    
    64   32   34 am   BACKBONE|DICT|INTERRES
    65   34   35 1    
    66   34   90 1    
    67   35   36 1    
    68   35   37 1    
    69   35   91 1    
    70   36   92 1    
    71   36   93 1    
    72   36   94 1    
    73   37   38 2    
    74   37   39 am   BACKBONE|DICT|INTERRES
    75   39   40 1    
    76   39   95 1    
    77   40   41 1    
    78   40   42 1    
    79   40   96 1    
    80   41   97 1    
    81   41   98 1    
    82   41   99 1    
    83   42   43 2    
    84   42   44 am   BACKBONE|DICT|INTERRES
    85   44   45 1    
    86   44  100 1    
    87   45   46 1    
    88   45   47 1    
    89   45  101 1    
    90   46  102 1    
    91   46  103 1    
    92   46  104 1    
    93   47   48 2    
    94   47   49 am   BACKBONE|DICT|INTERRES
    95   49   50 1    
    96   49  105 1    
    97   50   51 1    
    98   50   52 1    
    99   50  106 1    
   100   51  107 1    
   101   51  108 1    
   102   51  109 1    
   103   52   53 2    
   104   52   54 am   BACKBONE|DICT|INTERRES
   105   54   55 1    
   106   54  110 1    
   107   55   56 1    
   108   55   59 1    
   109   55  111 1    
   110   56   57 am   BACKBONE|DICT|INTERRES
   111   56   58 2    
   112   57  112 1    
   113   57  113 1    
   114   59   60 1    
   115   59  114 1    
   116   59  115 1    
   117   60   61 1    
   118   61  116 1    
   119   61  117 1    
@<TRIPOS>SUBSTRUCTURE
     1 UNK         1 GROUP             0       ****    0 ROOT    
