@<TRIPOS>MOLECULE
3R8
117   119    1
SMALL
USER_CHARGES


@<TRIPOS>ATOM
      1 CA         17.6655  -23.6083  -48.9554 C.3       0 UNK        -0.2013 
      2 C          18.6260  -24.4988  -48.1812 C.2       0 UNK         0.4866 
      3 O          19.8037  -24.1627  -48.0525 O.2       0 UNK        -0.5176 
      4 N          18.1357  -25.6355  -47.6707 N.am      1 UNK        -0.4884 
      5 CA         18.8960  -26.5740  -46.8401 C.3       1 UNK         0.0853 
      6 C6         18.2001  -27.9563  -46.7886 C.3       10 UNK        -0.0849 
      7 S7         19.3702  -29.3229  -46.4972 S.3       10 UNK        -0.2776 
      8 C8         18.2423  -30.6169  -45.8911 C.3       10 UNK         0.0316 
      9 C9         18.0682  -30.5425  -44.3821 C.ar      10 UNK        -0.0863 
     10 C10        18.9699  -31.2013  -43.5425 C.ar      10 UNK        -0.1009 
     11 C11        18.8204  -31.1455  -42.1547 C.ar      10 UNK        -0.0712 
     12 C12        17.7551  -30.4305  -41.6031 C.ar      10 UNK        -0.0894 
     13 C13        16.8696  -29.7363  -42.4318 C.ar      10 UNK        -0.0745 
     14 C14        17.0172  -29.8122  -43.8201 C.ar      10 UNK        -0.0972 
     15 C15        15.7814  -28.8625  -41.8317 C.3       10 UNK         0.0209 
     16 S16        16.2972  -27.1153  -41.8085 S.3       10 UNK        -0.2568 
     17 C17        17.4760  -27.0713  -40.4137 C.3       10 UNK        -0.0983 
     18 CA         18.9664  -27.2218  -40.8220 C.3       3 UNK         0.0876 
     19 N          19.3597  -26.3051  -41.8978 N.am      3 UNK        -0.4424 
     20 C          20.5212  -26.3711  -42.5585 C.2       2 UNK         0.4918 
     21 O          21.4019  -27.1987  -42.3161 O.2       2 UNK        -0.4875 
     22 CA         20.7274  -25.3416  -43.6783 C.3       2 UNK         0.0481 
     23 CB         22.1809  -24.8434  -43.7394 C.3       2 UNK        -0.1831 
     24 N          20.3546  -25.9133  -44.9707 N.am      2 UNK        -0.4498 
     25 C          19.0993  -25.9744  -45.4329 C.2       1 UNK         0.5027 
     26 O          18.1199  -25.5588  -44.8078 O.2       1 UNK        -0.4969 
     27 C          19.8646  -27.1010  -39.5727 C.2       3 UNK         0.5005 
     28 O          20.1235  -28.1062  -38.9107 O.2       3 UNK        -0.5279 
     29 N          20.3103  -25.8729  -39.2719 N.am      4 UNK        -0.4463 
     30 CA         21.1002  -25.5347  -38.0848 C.3       4 UNK         0.0283 
     31 CB         20.7958  -24.0789  -37.6918 C.3       4 UNK        -0.1875 
     32 C          22.6169  -25.7309  -38.2630 C.2       4 UNK         0.4949 
     33 O          23.3382  -25.6674  -37.2672 O.2       4 UNK        -0.5039 
     34 N          23.0831  -25.9267  -39.5052 N.am      5 UNK        -0.4663 
     35 CA         24.4989  -26.0991  -39.8499 C.3       5 UNK         0.0242 
     36 CB         24.7035  -26.0435  -41.3735 C.3       5 UNK        -0.1982 
     37 C          25.1952  -27.3176  -39.1999 C.2       5 UNK         0.5017 
     38 O          26.2499  -27.1200  -38.5985 O.2       5 UNK        -0.5012 
     39 N          24.6606  -28.5478  -39.2513 N.am      6 UNK        -0.4439 
     40 CA         23.5757  -29.0521  -40.0947 C.3       6 UNK         0.0297 
     41 CB         22.8838  -30.2042  -39.3519 C.3       6 UNK        -0.2006 
     42 C          24.1403  -29.5436  -41.4366 C.2       6 UNK         0.4892 
     43 O          25.2728  -30.0290  -41.4749 O.2       6 UNK        -0.5089 
     44 N          23.3415  -29.3939  -42.5005 N.am      7 UNK        -0.4243 
     45 CA         23.6770  -29.7514  -43.8797 C.3       7 UNK         0.0196 
     46 CB         22.7519  -28.9623  -44.8286 C.3       7 UNK        -0.2007 
     47 C          23.6549  -31.2753  -44.1200 C.2       7 UNK         0.5020 
     48 O          24.5732  -31.9758  -43.6932 O.2       7 UNK        -0.5147 
     49 N          22.6267  -31.7723  -44.8245 N.am      8 UNK        -0.4734 
     50 CA         22.5225  -33.1592  -45.3064 C.3       8 UNK         0.0238 
     51 CB         21.3082  -33.2830  -46.2417 C.3       8 UNK        -0.1912 
     52 C          22.4656  -34.2387  -44.2078 C.2       8 UNK         0.5038 
     53 O          22.7167  -35.4073  -44.5053 O.2       8 UNK        -0.5046 
     54 N          22.1454  -33.8357  -42.9728 N.am      9 UNK        -0.4200 
     55 CA         22.1496  -34.6924  -41.7770 C.3       9 UNK         0.0839 
     56 C          23.5749  -35.0558  -41.2665 C.2       9 UNK         0.5513 
     57 N          24.6360  -34.3937  -41.7163 N.am      9 UNK        -0.7519 
     58 O          23.7178  -35.9586  -40.4463 O.2       9 UNK        -0.4960 
     59 C59        21.2914  -34.1021  -40.6249 C.3       10 UNK        -0.0876 
     60 S60        19.6169  -33.6043  -41.1584 S.3       10 UNK        -0.2414 
     61 C61        19.8503  -31.8053  -41.2581 C.3       10 UNK         0.0169 
     62 H62        18.0219  -23.4701  -49.9759 H         1 UNK         0.0903 
     63 H63        16.6624  -24.0320  -49.0013 H         1 UNK         0.0903 
     64 H64        17.5985  -22.6290  -48.4823 H         1 UNK         0.0903 
     65 H65        17.1520  -25.8406  -47.7759 H         1 UNK         0.3096 
     66 H66        19.8730  -26.6984  -47.3136 H         1 UNK         0.1121 
     67 H67        17.4014  -27.9690  -46.0456 H         1 UNK         0.0849 
     68 H68        17.7170  -28.1685  -47.7441 H         1 UNK         0.0849 
     69 H69        17.2771  -30.5408  -46.3947 H         1 UNK         0.0865 
     70 H70        18.6435  -31.5921  -46.1678 H         1 UNK         0.0865 
     71 H71        19.7962  -31.7522  -43.9661 H         1 UNK         0.1346 
     72 H72        17.6470  -30.3701  -40.5286 H         1 UNK         0.1412 
     73 H73        16.3250  -29.2810  -44.4583 H         1 UNK         0.1426 
     74 H74        15.5227  -29.1913  -40.8240 H         1 UNK         0.0716 
     75 H75        14.8710  -28.9540  -42.4259 H         1 UNK         0.0716 
     76 H76        17.3214  -26.1202  -39.9003 H         1 UNK         0.0695 
     77 H77        17.2000  -27.8445  -39.6941 H         1 UNK         0.0695 
     78 H78        19.1199  -28.2278  -41.2103 H         1 UNK         0.0983 
     79 H79        18.6536  -25.6536  -42.2125 H         1 UNK         0.3095 
     80 H80        20.0975  -24.4730  -43.4737 H         1 UNK         0.0454 
     81 H81        22.8866  -25.6491  -43.9409 H         1 UNK         0.0851 
     82 H82        22.3075  -24.0882  -44.5153 H         1 UNK         0.0851 
     83 H83        22.4694  -24.3829  -42.7943 H         1 UNK         0.0851 
     84 H84        21.1038  -26.2970  -45.5282 H         1 UNK         0.2976 
     85 H85        20.0454  -25.1078  -39.8760 H         1 UNK         0.3116 
     86 H86        20.7882  -26.1772  -37.2584 H         1 UNK         0.0646 
     87 H87        21.3304  -23.7985  -36.7831 H         1 UNK         0.0847 
     88 H88        19.7334  -23.9337  -37.4951 H         1 UNK         0.0847 
     89 H89        21.0933  -23.3776  -38.4724 H         1 UNK         0.0847 
     90 H90        22.4165  -25.9986  -40.2600 H         1 UNK         0.3040 
     91 H91        25.0132  -25.2249  -39.4436 H         1 UNK         0.1015 
     92 H92        24.5514  -25.0318  -41.7482 H         1 UNK         0.0786 
     93 H93        24.0203  -26.6994  -41.9089 H         1 UNK         0.0786 
     94 H94        25.7189  -26.3337  -41.6474 H         1 UNK         0.0786 
     95 H95        25.1944  -29.2773  -38.8026 H         1 UNK         0.3172 
     96 H96        22.8288  -28.2853  -40.2835 H         1 UNK         0.0595 
     97 H97        22.0338  -30.5727  -39.9210 H         1 UNK         0.0839 
     98 H98        22.4998  -29.8767  -38.3853 H         1 UNK         0.0839 
     99 H99        23.5565  -31.0461  -39.1822 H         1 UNK         0.0839 
    100 H100       22.4600  -28.9061  -42.3723 H         1 UNK         0.2998 
    101 H101       24.7008  -29.4251  -44.0753 H         1 UNK         0.0822 
    102 H102       22.9359  -27.8924  -44.7420 H         1 UNK         0.0787 
    103 H103       22.9241  -29.2273  -45.8729 H         1 UNK         0.0787 
    104 H104       21.6975  -29.1291  -44.6044 H         1 UNK         0.0787 
    105 H105       21.9231  -31.1256  -45.1521 H         1 UNK         0.3055 
    106 H106       23.4217  -33.3611  -45.8928 H         1 UNK         0.1106 
    107 H107       20.3682  -33.1820  -45.7005 H         1 UNK         0.0828 
    108 H108       21.3289  -32.5327  -47.0325 H         1 UNK         0.0828 
    109 H109       21.2926  -34.2600  -46.7268 H         1 UNK         0.0828 
    110 H110       21.9731  -32.8548  -42.8243 H         1 UNK         0.2931 
    111 H111       21.6843  -35.6372  -42.0654 H         1 UNK         0.0412 
    112 H112       24.5374  -33.6397  -42.3866 H         1 UNK         0.3472 
    113 H113       25.5512  -34.6431  -41.3765 H         1 UNK         0.3472 
    114 H114       21.1766  -34.8426  -39.8310 H         1 UNK         0.0970 
    115 H115       21.7971  -33.2524  -40.1621 H         1 UNK         0.0970 
    116 H116       19.8123  -31.3852  -40.2518 H         1 UNK         0.0612 
    117 H117       20.8417  -31.5819  -41.6534 H         1 UNK         0.0612 
@<TRIPOS>BOND
     1    1    2 1    
     2    1   62 1    
     3    1   63 1    
     4    1   64 1    
     5    2    3 2    
     6    2    4 am   BACKBONE|DICT|INTERRES
     7    4    5 1    
     8    4   65 1    
     9    5    6 1    
    10    5   25 1    
    11    5   66 1    
    12    6    7 1    
    13    6   67 1    
    14    6   68 1    
    15    7    8 1    
    16    8    9 1    
    17    8   69 1    
    18    8   70 1    
    19    9   10 ar   
    20    9   14 ar   
    21   10   11 ar   
    22   10   71 1    
    23   11   12 ar   
    24   11   61 1    
    25   12   13 ar   
    26   12   72 1    
    27   13   14 ar   
    28   13   15 1    
    29   14   73 1    
    30   15   16 1    
    31   15   74 1    
    32   15   75 1    
    33   16   17 1    
    34   17   18 1    
    35   17   76 1    
    36   17   77 1    
    37   18   19 1    
    38   18   27 1    
    39   18   78 1    
    40   19   20 am   BACKBONE|DICT|INTERRES
    41   19   79 1    
    42   20   21 2    
    43   20   22 1    
    44   22   23 1    
    45   22   24 1    
    46   22   80 1    
    47   23   81 1    
    48   23   82 1    
    49   23   83 1    
    50   24   25 am   BACKBONE|DICT|INTERRES
    51   24   84 1    
    52   25   26 2    
    53   27   28 2    
    54   27   29 am   BACKBONE|DICT|INTERRES
    55   29   30 1    
    56   29   85 1    
    57   30   31 1    
    58   30   32 1    
    59   30   86 1    
    60   31   87 1    
    61   31   88 1    
    62   31   89 1    
    63   32   33 2    
    64   32   34 am   BACKBONE|DICT|INTERRES
    65   34   35 1    
    66   34   90 1    
    67   35   36 1    
    68   35   37 1    
    69   35   91 1    
    70   36   92 1    
    71   36   93 1    
    72   36   94 1    
    73   37   38 2    
    74   37   39 am   BACKBONE|DICT|INTERRES
    75   39   40 1    
    76   39   95 1    
    77   40   41 1    
    78   40   42 1    
    79   40   96 1    
    80   41   97 1    
    81   41   98 1    
    82   41   99 1    
    83   42   43 2    
    84   42   44 am   BACKBONE|DICT|INTERRES
    85   44   45 1    
    86   44  100 1    
    87   45   46 1    
    88   45   47 1    
    89   45  101 1    
    90   46  102 1    
    91   46  103 1    
    92   46  104 1    
    93   47   48 2    
    94   47   49 am   BACKBONE|DICT|INTERRES
    95   49   50 1    
    96   49  105 1    
    97   50   51 1    
    98   50   52 1    
    99   50  106 1    
   100   51  107 1    
   101   51  108 1    
   102   51  109 1    
   103   52   53 2    
   104   52   54 am   BACKBONE|DICT|INTERRES
   105   54   55 1    
   106   54  110 1    
   107   55   56 1    
   108   55   59 1    
   109   55  111 1    
   110   56   57 am   BACKBONE|DICT|INTERRES
   111   56   58 2    
   112   57  112 1    
   113   57  113 1    
   114   59   60 1    
   115   59  114 1    
   116   59  115 1    
   117   60   61 1    
   118   61  116 1    
   119   61  117 1    
@<TRIPOS>SUBSTRUCTURE
     1 UNK         1 GROUP             0       ****    0 ROOT    
