@<TRIPOS>MOLECULE
3R8
117   119    1
SMALL
USER_CHARGES


@<TRIPOS>ATOM
      1 CA         13.4368  -25.1582  -48.4417 C.3       0 UNK        -0.2013 
      2 C          14.4475  -25.9280  -47.6048 C.2       0 UNK         0.4866 
      3 O          15.1704  -26.7700  -48.1389 O.2       0 UNK        -0.5176 
      4 N          14.4968  -25.6543  -46.2955 N.am      1 UNK        -0.4884 
      5 CA         15.4403  -26.2619  -45.3521 C.3       1 UNK         0.0853 
      6 C6         15.0103  -26.0320  -43.8832 C.3       10 UNK        -0.0849 
      7 S7         13.4451  -26.8552  -43.4256 S.3       10 UNK        -0.2776 
      8 C8         13.7760  -28.6319  -43.7260 C.3       10 UNK         0.0316 
      9 C9         15.1323  -29.1243  -43.2227 C.ar      10 UNK        -0.0863 
     10 C10        15.9244  -29.9354  -44.0445 C.ar      10 UNK        -0.1009 
     11 C11        17.1704  -30.3953  -43.6066 C.ar      10 UNK        -0.0712 
     12 C12        17.6190  -30.0370  -42.3325 C.ar      10 UNK        -0.0894 
     13 C13        16.8625  -29.1946  -41.5184 C.ar      10 UNK        -0.0745 
     14 C14        15.6041  -28.7705  -41.9531 C.ar      10 UNK        -0.0972 
     15 C15        17.4231  -28.7000  -40.1945 C.3       10 UNK         0.0209 
     16 S16        18.2259  -27.0763  -40.4118 S.3       10 UNK        -0.2568 
     17 C17        19.9988  -27.4953  -40.5731 C.3       10 UNK        -0.0983 
     18 CA         20.4510  -27.9074  -41.9986 C.3       3 UNK         0.0876 
     19 N          19.9703  -27.0014  -43.0503 N.am      3 UNK        -0.4424 
     20 C          19.9719  -27.2997  -44.3566 C.2       2 UNK         0.4918 
     21 O          20.4237  -28.3457  -44.8230 O.2       2 UNK        -0.4875 
     22 CA         19.2836  -26.2923  -45.2813 C.3       2 UNK         0.0481 
     23 CB         19.8114  -26.3565  -46.7286 C.3       2 UNK        -0.1831 
     24 N          17.8559  -26.5870  -45.2439 N.am      2 UNK        -0.4498 
     25 C          16.8743  -25.7367  -45.5622 C.2       1 UNK         0.5027 
     26 O          17.0614  -24.5811  -45.9531 O.2       1 UNK        -0.4969 
     27 C          21.9722  -28.1568  -42.0385 C.2       3 UNK         0.5005 
     28 O          22.4000  -29.2288  -41.6086 O.2       3 UNK        -0.5279 
     29 N          22.7280  -27.1827  -42.5725 N.am      4 UNK        -0.4463 
     30 CA         24.1882  -27.1170  -42.7212 C.3       4 UNK         0.0283 
     31 CB         24.7465  -28.3678  -43.4315 C.3       4 UNK        -0.1875 
     32 C          24.9210  -26.8648  -41.3927 C.2       4 UNK         0.4949 
     33 O          24.4179  -27.1969  -40.3188 O.2       4 UNK        -0.5039 
     34 N          26.1331  -26.3015  -41.4923 N.am      5 UNK        -0.4663 
     35 CA         27.0137  -26.0147  -40.3507 C.3       5 UNK         0.0242 
     36 CB         28.1895  -25.1431  -40.8205 C.3       5 UNK        -0.1982 
     37 C          27.5293  -27.2819  -39.6441 C.2       5 UNK         0.5017 
     38 O          27.7814  -27.2464  -38.4397 O.2       5 UNK        -0.5012 
     39 N          27.6472  -28.3796  -40.4030 N.am      6 UNK        -0.4439 
     40 CA         27.9835  -29.7168  -39.9096 C.3       6 UNK         0.0297 
     41 CB         28.5693  -30.5354  -41.0731 C.3       6 UNK        -0.2006 
     42 C          26.7845  -30.4580  -39.2819 C.2       6 UNK         0.4892 
     43 O          26.9948  -31.5238  -38.7006 O.2       6 UNK        -0.5089 
     44 N          25.5700  -29.8995  -39.4194 N.am      7 UNK        -0.4243 
     45 CA         24.2643  -30.4639  -39.0589 C.3       7 UNK         0.0196 
     46 CB         24.1894  -30.7818  -37.5485 C.3       7 UNK        -0.2007 
     47 C          23.8703  -31.6688  -39.9381 C.2       7 UNK         0.5020 
     48 O          24.6006  -32.0454  -40.8589 O.2       7 UNK        -0.5147 
     49 N          22.6888  -32.2359  -39.6501 N.am      8 UNK        -0.4734 
     50 CA         22.1077  -33.4399  -40.2650 C.3       8 UNK         0.0238 
     51 CB         22.8897  -34.6923  -39.8129 C.3       8 UNK        -0.1912 
     52 C          21.9507  -33.3644  -41.7992 C.2       8 UNK         0.5038 
     53 O          22.0733  -34.3893  -42.4730 O.2       8 UNK        -0.5046 
     54 N          21.6871  -32.1559  -42.3156 N.am      9 UNK        -0.4200 
     55 CA         21.5768  -31.8239  -43.7472 C.3       9 UNK         0.0839 
     56 C          22.9428  -31.8038  -44.4990 C.2       9 UNK         0.5513 
     57 N          24.0846  -31.8675  -43.8226 N.am      9 UNK        -0.7519 
     58 O          22.9729  -31.7072  -45.7232 O.2       9 UNK        -0.4960 
     59 C59        20.4904  -32.6412  -44.5155 C.3       10 UNK        -0.0876 
     60 S60        18.8516  -32.6287  -43.7085 S.3       10 UNK        -0.2414 
     61 C61        18.0613  -31.2105  -44.5378 C.3       10 UNK         0.0169 
     62 H62        12.7446  -25.8485  -48.9231 H         1 UNK         0.0903 
     63 H63        12.8553  -24.4602  -47.8395 H         1 UNK         0.0903 
     64 H64        13.9483  -24.5908  -49.2188 H         1 UNK         0.0903 
     65 H65        13.8884  -24.9463  -45.9097 H         1 UNK         0.3096 
     66 H66        15.4599  -27.3344  -45.5533 H         1 UNK         0.1121 
     67 H67        14.8955  -24.9638  -43.6883 H         1 UNK         0.0849 
     68 H68        15.7842  -26.3662  -43.1903 H         1 UNK         0.0849 
     69 H69        12.9932  -29.2174  -43.2422 H         1 UNK         0.0865 
     70 H70        13.6732  -28.8206  -44.7958 H         1 UNK         0.0865 
     71 H71        15.5751  -30.2035  -45.0326 H         1 UNK         0.1346 
     72 H72        18.5738  -30.3996  -41.9832 H         1 UNK         0.1412 
     73 H73        15.0098  -28.1266  -41.3189 H         1 UNK         0.1426 
     74 H74        16.6143  -28.5989  -39.4693 H         1 UNK         0.0716 
     75 H75        18.1234  -29.4219  -39.7719 H         1 UNK         0.0716 
     76 H76        20.2388  -28.2828  -39.8560 H         1 UNK         0.0695 
     77 H77        20.5607  -26.6182  -40.2462 H         1 UNK         0.0695 
     78 H78        20.0162  -28.8783  -42.2139 H         1 UNK         0.0983 
     79 H79        19.5337  -26.1461  -42.7370 H         1 UNK         0.3095 
     80 H80        19.4613  -25.2894  -44.8868 H         1 UNK         0.0454 
     81 H81        19.3603  -25.5845  -47.3519 H         1 UNK         0.0851 
     82 H82        19.6047  -27.3218  -47.1924 H         1 UNK         0.0851 
     83 H83        20.8911  -26.2047  -46.7566 H         1 UNK         0.0851 
     84 H84        17.6193  -27.5082  -44.8980 H         1 UNK         0.2976 
     85 H85        22.2369  -26.3506  -42.8672 H         1 UNK         0.3116 
     86 H86        24.3748  -26.2559  -43.3650 H         1 UNK         0.0646 
     87 H87        24.1824  -28.5991  -44.3352 H         1 UNK         0.0847 
     88 H88        25.7853  -28.2211  -43.7282 H         1 UNK         0.0847 
     89 H89        24.7191  -29.2478  -42.7876 H         1 UNK         0.0847 
     90 H90        26.4798  -26.0462  -42.4068 H         1 UNK         0.3040 
     91 H91        26.4378  -25.4471  -39.6159 H         1 UNK         0.1015 
     92 H92        28.7948  -25.6500  -41.5732 H         1 UNK         0.0786 
     93 H93        28.8480  -24.8944  -39.9868 H         1 UNK         0.0786 
     94 H94        27.8412  -24.2018  -41.2463 H         1 UNK         0.0786 
     95 H95        27.4273  -28.2989  -41.3850 H         1 UNK         0.3172 
     96 H96        28.7509  -29.6236  -39.1382 H         1 UNK         0.0595 
     97 H97        27.8393  -30.6828  -41.8704 H         1 UNK         0.0839 
     98 H98        28.8832  -31.5242  -40.7355 H         1 UNK         0.0839 
     99 H99        29.4459  -30.0494  -41.5019 H         1 UNK         0.0839 
    100 H100       25.5116  -29.0106  -39.9005 H         1 UNK         0.2998 
    101 H101       23.5405  -29.6751  -39.2675 H         1 UNK         0.0822 
    102 H102       23.1632  -30.9674  -37.2309 H         1 UNK         0.0787 
    103 H103       24.7725  -31.6660  -37.2889 H         1 UNK         0.0787 
    104 H104       24.5605  -29.9493  -36.9504 H         1 UNK         0.0787 
    105 H105       22.1417  -31.8256  -38.9056 H         1 UNK         0.3055 
    106 H106       21.0933  -33.5276  -39.8723 H         1 UNK         0.1106 
    107 H107       22.3978  -35.6068  -40.1467 H         1 UNK         0.0828 
    108 H108       23.9027  -34.7011  -40.2170 H         1 UNK         0.0828 
    109 H109       22.9619  -34.7454  -38.7266 H         1 UNK         0.0828 
    110 H110       21.7034  -31.3566  -41.6947 H         1 UNK         0.2931 
    111 H111       21.2487  -30.7846  -43.7594 H         1 UNK         0.0412 
    112 H112       24.9549  -31.8507  -44.3286 H         1 UNK         0.3472 
    113 H113       24.0923  -31.9387  -42.8102 H         1 UNK         0.3472 
    114 H114       20.8034  -33.6802  -44.6261 H         1 UNK         0.0970 
    115 H115       20.3798  -32.2646  -45.5340 H         1 UNK         0.0970 
    116 H116       18.8260  -30.5422  -44.9344 H         1 UNK         0.0612 
    117 H117       17.4963  -31.5810  -45.3945 H         1 UNK         0.0612 
@<TRIPOS>BOND
     1    1    2 1    
     2    1   62 1    
     3    1   63 1    
     4    1   64 1    
     5    2    3 2    
     6    2    4 am   BACKBONE|DICT|INTERRES
     7    4    5 1    
     8    4   65 1    
     9    5    6 1    
    10    5   25 1    
    11    5   66 1    
    12    6    7 1    
    13    6   67 1    
    14    6   68 1    
    15    7    8 1    
    16    8    9 1    
    17    8   69 1    
    18    8   70 1    
    19    9   10 ar   
    20    9   14 ar   
    21   10   11 ar   
    22   10   71 1    
    23   11   12 ar   
    24   11   61 1    
    25   12   13 ar   
    26   12   72 1    
    27   13   14 ar   
    28   13   15 1    
    29   14   73 1    
    30   15   16 1    
    31   15   74 1    
    32   15   75 1    
    33   16   17 1    
    34   17   18 1    
    35   17   76 1    
    36   17   77 1    
    37   18   19 1    
    38   18   27 1    
    39   18   78 1    
    40   19   20 am   BACKBONE|DICT|INTERRES
    41   19   79 1    
    42   20   21 2    
    43   20   22 1    
    44   22   23 1    
    45   22   24 1    
    46   22   80 1    
    47   23   81 1    
    48   23   82 1    
    49   23   83 1    
    50   24   25 am   BACKBONE|DICT|INTERRES
    51   24   84 1    
    52   25   26 2    
    53   27   28 2    
    54   27   29 am   BACKBONE|DICT|INTERRES
    55   29   30 1    
    56   29   85 1    
    57   30   31 1    
    58   30   32 1    
    59   30   86 1    
    60   31   87 1    
    61   31   88 1    
    62   31   89 1    
    63   32   33 2    
    64   32   34 am   BACKBONE|DICT|INTERRES
    65   34   35 1    
    66   34   90 1    
    67   35   36 1    
    68   35   37 1    
    69   35   91 1    
    70   36   92 1    
    71   36   93 1    
    72   36   94 1    
    73   37   38 2    
    74   37   39 am   BACKBONE|DICT|INTERRES
    75   39   40 1    
    76   39   95 1    
    77   40   41 1    
    78   40   42 1    
    79   40   96 1    
    80   41   97 1    
    81   41   98 1    
    82   41   99 1    
    83   42   43 2    
    84   42   44 am   BACKBONE|DICT|INTERRES
    85   44   45 1    
    86   44  100 1    
    87   45   46 1    
    88   45   47 1    
    89   45  101 1    
    90   46  102 1    
    91   46  103 1    
    92   46  104 1    
    93   47   48 2    
    94   47   49 am   BACKBONE|DICT|INTERRES
    95   49   50 1    
    96   49  105 1    
    97   50   51 1    
    98   50   52 1    
    99   50  106 1    
   100   51  107 1    
   101   51  108 1    
   102   51  109 1    
   103   52   53 2    
   104   52   54 am   BACKBONE|DICT|INTERRES
   105   54   55 1    
   106   54  110 1    
   107   55   56 1    
   108   55   59 1    
   109   55  111 1    
   110   56   57 am   BACKBONE|DICT|INTERRES
   111   56   58 2    
   112   57  112 1    
   113   57  113 1    
   114   59   60 1    
   115   59  114 1    
   116   59  115 1    
   117   60   61 1    
   118   61  116 1    
   119   61  117 1    
@<TRIPOS>SUBSTRUCTURE
     1 UNK         1 GROUP             0       ****    0 ROOT    
