@<TRIPOS>MOLECULE
3R8
117   119    1
SMALL
USER_CHARGES


@<TRIPOS>ATOM
      1 CA         16.8986  -25.0901  -48.1168 C.3       0 UNK        -0.2013 
      2 C          17.6860  -26.0147  -47.2002 C.2       0 UNK         0.4866 
      3 O          17.4883  -25.9725  -45.9865 O.2       0 UNK        -0.5176 
      4 N          18.5641  -26.8452  -47.7822 N.am      1 UNK        -0.4884 
      5 CA         19.4455  -27.8227  -47.1214 C.3       1 UNK         0.0853 
      6 C6         18.6778  -28.9146  -46.3212 C.3       10 UNK        -0.0849 
      7 S7         17.4204  -29.8360  -47.2766 S.3       10 UNK        -0.2776 
      8 C8         15.8475  -29.3752  -46.4645 C.3       10 UNK         0.0316 
      9 C9         15.9289  -29.4027  -44.9420 C.ar      10 UNK        -0.0863 
     10 C10        16.2108  -30.5899  -44.2594 C.ar      10 UNK        -0.1009 
     11 C11        16.3680  -30.5864  -42.8695 C.ar      10 UNK        -0.0712 
     12 C12        16.2017  -29.3933  -42.1598 C.ar      10 UNK        -0.0894 
     13 C13        15.9341  -28.1965  -42.8325 C.ar      10 UNK        -0.0745 
     14 C14        15.7836  -28.2143  -44.2206 C.ar      10 UNK        -0.0972 
     15 C15        15.8074  -26.8764  -42.0800 C.3       10 UNK         0.0209 
     16 S16        17.1573  -26.5782  -40.8896 S.3       10 UNK        -0.2568 
     17 C17        18.6552  -26.5127  -41.9421 C.3       10 UNK        -0.0983 
     18 CA         19.5591  -27.7702  -41.7935 C.3       3 UNK         0.0876 
     19 N          20.4675  -27.9303  -42.9394 N.am      3 UNK        -0.4424 
     20 C          21.6588  -27.3477  -43.1632 C.2       2 UNK         0.4918 
     21 O          22.2566  -26.6374  -42.3521 O.2       2 UNK        -0.4875 
     22 CA         22.3015  -27.6098  -44.5435 C.3       2 UNK         0.0481 
     23 CB         23.3632  -28.7136  -44.4525 C.3       2 UNK        -0.1831 
     24 N          21.3272  -28.0009  -45.5648 N.am      2 UNK        -0.4498 
     25 C          20.5284  -27.1571  -46.2338 C.2       1 UNK         0.5027 
     26 O          20.6328  -25.9299  -46.1624 O.2       1 UNK        -0.4969 
     27 C          20.2582  -27.8904  -40.4171 C.2       3 UNK         0.5005 
     28 O          20.0698  -27.0376  -39.5472 O.2       3 UNK        -0.5279 
     29 N          21.0915  -28.9301  -40.2544 N.am      4 UNK        -0.4463 
     30 CA         21.8628  -29.3094  -39.0578 C.3       4 UNK         0.0283 
     31 CB         20.9407  -29.5852  -37.8542 C.3       4 UNK        -0.1875 
     32 C          22.9989  -28.3403  -38.6744 C.2       4 UNK         0.4949 
     33 O          24.0378  -28.7987  -38.1997 O.2       4 UNK        -0.5039 
     34 N          22.7889  -27.0338  -38.8713 N.am      5 UNK        -0.4663 
     35 CA         23.7126  -25.9522  -38.5350 C.3       5 UNK         0.0242 
     36 CB         22.9937  -24.6021  -38.6897 C.3       5 UNK        -0.1982 
     37 C          25.0048  -25.9816  -39.3628 C.2       5 UNK         0.5017 
     38 O          26.0874  -25.8760  -38.7847 O.2       5 UNK        -0.5012 
     39 N          24.8742  -26.1222  -40.6900 N.am      6 UNK        -0.4439 
     40 CA         26.0198  -26.2080  -41.6014 C.3       6 UNK         0.0297 
     41 CB         25.6213  -25.6881  -42.9916 C.3       6 UNK        -0.2006 
     42 C          26.5912  -27.6335  -41.6831 C.2       6 UNK         0.4892 
     43 O          27.8061  -27.7892  -41.8092 O.2       6 UNK        -0.5089 
     44 N          25.7094  -28.6354  -41.6000 N.am      7 UNK        -0.4243 
     45 CA         25.9737  -30.0705  -41.6632 C.3       7 UNK         0.0196 
     46 CB         26.5505  -30.4757  -43.0365 C.3       7 UNK        -0.2007 
     47 C          24.6443  -30.7922  -41.4154 C.2       7 UNK         0.5020 
     48 O          23.5830  -30.1826  -41.5746 O.2       7 UNK        -0.5147 
     49 N          24.7166  -32.0771  -41.0476 N.am      8 UNK        -0.4734 
     50 CA         23.5541  -32.9414  -40.8256 C.3       8 UNK         0.0238 
     51 CB         24.0196  -34.2866  -40.2435 C.3       8 UNK        -0.1912 
     52 C          22.7491  -33.1514  -42.1205 C.2       8 UNK         0.5038 
     53 O          23.2991  -33.6640  -43.0983 O.2       8 UNK        -0.5046 
     54 N          21.4775  -32.7398  -42.1008 N.am      9 UNK        -0.4200 
     55 CA         20.5238  -32.9004  -43.2046 C.3       9 UNK         0.0839 
     56 C          19.9613  -34.3453  -43.3163 C.2       9 UNK         0.5513 
     57 N          19.3945  -34.6985  -44.4622 N.am      9 UNK        -0.7519 
     58 O          20.0152  -35.1404  -42.3796 O.2       9 UNK        -0.4960 
     59 C59        19.4093  -31.8229  -43.1406 C.3       10 UNK        -0.0876 
     60 S60        18.4888  -31.7845  -41.5598 S.3       10 UNK        -0.2414 
     61 C61        16.7597  -31.8584  -42.1322 C.3       10 UNK         0.0169 
     62 H62        15.8302  -25.2709  -48.0022 H         1 UNK         0.0903 
     63 H63        17.0978  -24.0501  -47.8596 H         1 UNK         0.0903 
     64 H64        17.1564  -25.2358  -49.1656 H         1 UNK         0.0903 
     65 H65        18.6754  -26.7963  -48.7854 H         1 UNK         0.3096 
     66 H66        19.9872  -28.3204  -47.9277 H         1 UNK         0.1121 
     67 H67        18.2399  -28.4647  -45.4320 H         1 UNK         0.0849 
     68 H68        19.3618  -29.6785  -45.9498 H         1 UNK         0.0849 
     69 H69        15.5562  -28.3843  -46.8164 H         1 UNK         0.0865 
     70 H70        15.0634  -30.0577  -46.7947 H         1 UNK         0.0865 
     71 H71        16.3464  -31.5063  -44.8176 H         1 UNK         0.1346 
     72 H72        16.3237  -29.3903  -41.0852 H         1 UNK         0.1412 
     73 H73        15.5834  -27.2907  -44.7467 H         1 UNK         0.1426 
     74 H74        14.8594  -26.8736  -41.5408 H         1 UNK         0.0716 
     75 H75        15.7696  -26.0353  -42.7744 H         1 UNK         0.0716 
     76 H76        19.2159  -25.6060  -41.7080 H         1 UNK         0.0695 
     77 H77        18.3369  -26.4031  -42.9807 H         1 UNK         0.0695 
     78 H78        18.9013  -28.6386  -41.8448 H         1 UNK         0.0983 
     79 H79        20.0987  -28.4923  -43.6892 H         1 UNK         0.3095 
     80 H80        22.7948  -26.6884  -44.8596 H         1 UNK         0.0454 
     81 H81        24.1278  -28.4557  -43.7247 H         1 UNK         0.0851 
     82 H82        23.8690  -28.8603  -45.4068 H         1 UNK         0.0851 
     83 H83        22.9346  -29.6693  -44.1482 H         1 UNK         0.0851 
     84 H84        21.2397  -28.9917  -45.7393 H         1 UNK         0.2976 
     85 H85        21.2865  -29.4997  -41.0672 H         1 UNK         0.3116 
     86 H86        22.3407  -30.2565  -39.3051 H         1 UNK         0.0646 
     87 H87        20.4395  -28.6819  -37.5058 H         1 UNK         0.0847 
     88 H88        20.1749  -30.3205  -38.1012 H         1 UNK         0.0847 
     89 H89        21.5107  -29.9809  -37.0126 H         1 UNK         0.0847 
     90 H90        21.8707  -26.7706  -39.2228 H         1 UNK         0.3040 
     91 H91        23.9925  -26.0714  -37.4858 H         1 UNK         0.1015 
     92 H92        23.6586  -23.7736  -38.4412 H         1 UNK         0.0786 
     93 H93        22.1314  -24.5352  -38.0259 H         1 UNK         0.0786 
     94 H94        22.6415  -24.4454  -39.7103 H         1 UNK         0.0786 
     95 H95        23.9451  -26.2077  -41.0907 H         1 UNK         0.3172 
     96 H96        26.8169  -25.5587  -41.2322 H         1 UNK         0.0595 
     97 H97        24.7943  -26.2519  -43.4182 H         1 UNK         0.0839 
     98 H98        26.4575  -25.7568  -43.6888 H         1 UNK         0.0839 
     99 H99        25.3212  -24.6410  -42.9493 H         1 UNK         0.0839 
    100 H100       24.7279  -28.4218  -41.4677 H         1 UNK         0.2998 
    101 H101       26.6745  -30.3319  -40.8680 H         1 UNK         0.0822 
    102 H102       26.6984  -31.5545  -43.0976 H         1 UNK         0.0787 
    103 H103       25.8854  -30.1944  -43.8531 H         1 UNK         0.0787 
    104 H104       27.5201  -30.0144  -43.2220 H         1 UNK         0.0787 
    105 H105       25.6245  -32.5132  -40.9739 H         1 UNK         0.3055 
    106 H106       22.9144  -32.4588  -40.0842 H         1 UNK         0.1106 
    107 H107       24.5354  -34.1520  -39.2926 H         1 UNK         0.0828 
    108 H108       23.1698  -34.9456  -40.0596 H         1 UNK         0.0828 
    109 H109       24.6950  -34.8095  -40.9220 H         1 UNK         0.0828 
    110 H110       21.0867  -32.3716  -41.2467 H         1 UNK         0.2931 
    111 H111       21.0773  -32.7199  -44.1288 H         1 UNK         0.0412 
    112 H112       19.0169  -35.6290  -44.5534 H         1 UNK         0.3472 
    113 H113       19.3479  -34.0627  -45.2431 H         1 UNK         0.3472 
    114 H114       18.7183  -31.9476  -43.9753 H         1 UNK         0.0970 
    115 H115       19.8545  -30.8387  -43.2837 H         1 UNK         0.0970 
    116 H116       16.1063  -31.9918  -41.2690 H         1 UNK         0.0612 
    117 H117       16.6225  -32.7383  -42.7630 H         1 UNK         0.0612 
@<TRIPOS>BOND
     1    1    2 1    
     2    1   62 1    
     3    1   63 1    
     4    1   64 1    
     5    2    3 2    
     6    2    4 am   BACKBONE|DICT|INTERRES
     7    4    5 1    
     8    4   65 1    
     9    5    6 1    
    10    5   25 1    
    11    5   66 1    
    12    6    7 1    
    13    6   67 1    
    14    6   68 1    
    15    7    8 1    
    16    8    9 1    
    17    8   69 1    
    18    8   70 1    
    19    9   10 ar   
    20    9   14 ar   
    21   10   11 ar   
    22   10   71 1    
    23   11   12 ar   
    24   11   61 1    
    25   12   13 ar   
    26   12   72 1    
    27   13   14 ar   
    28   13   15 1    
    29   14   73 1    
    30   15   16 1    
    31   15   74 1    
    32   15   75 1    
    33   16   17 1    
    34   17   18 1    
    35   17   76 1    
    36   17   77 1    
    37   18   19 1    
    38   18   27 1    
    39   18   78 1    
    40   19   20 am   BACKBONE|DICT|INTERRES
    41   19   79 1    
    42   20   21 2    
    43   20   22 1    
    44   22   23 1    
    45   22   24 1    
    46   22   80 1    
    47   23   81 1    
    48   23   82 1    
    49   23   83 1    
    50   24   25 am   BACKBONE|DICT|INTERRES
    51   24   84 1    
    52   25   26 2    
    53   27   28 2    
    54   27   29 am   BACKBONE|DICT|INTERRES
    55   29   30 1    
    56   29   85 1    
    57   30   31 1    
    58   30   32 1    
    59   30   86 1    
    60   31   87 1    
    61   31   88 1    
    62   31   89 1    
    63   32   33 2    
    64   32   34 am   BACKBONE|DICT|INTERRES
    65   34   35 1    
    66   34   90 1    
    67   35   36 1    
    68   35   37 1    
    69   35   91 1    
    70   36   92 1    
    71   36   93 1    
    72   36   94 1    
    73   37   38 2    
    74   37   39 am   BACKBONE|DICT|INTERRES
    75   39   40 1    
    76   39   95 1    
    77   40   41 1    
    78   40   42 1    
    79   40   96 1    
    80   41   97 1    
    81   41   98 1    
    82   41   99 1    
    83   42   43 2    
    84   42   44 am   BACKBONE|DICT|INTERRES
    85   44   45 1    
    86   44  100 1    
    87   45   46 1    
    88   45   47 1    
    89   45  101 1    
    90   46  102 1    
    91   46  103 1    
    92   46  104 1    
    93   47   48 2    
    94   47   49 am   BACKBONE|DICT|INTERRES
    95   49   50 1    
    96   49  105 1    
    97   50   51 1    
    98   50   52 1    
    99   50  106 1    
   100   51  107 1    
   101   51  108 1    
   102   51  109 1    
   103   52   53 2    
   104   52   54 am   BACKBONE|DICT|INTERRES
   105   54   55 1    
   106   54  110 1    
   107   55   56 1    
   108   55   59 1    
   109   55  111 1    
   110   56   57 am   BACKBONE|DICT|INTERRES
   111   56   58 2    
   112   57  112 1    
   113   57  113 1    
   114   59   60 1    
   115   59  114 1    
   116   59  115 1    
   117   60   61 1    
   118   61  116 1    
   119   61  117 1    
@<TRIPOS>SUBSTRUCTURE
     1 UNK         1 GROUP             0       ****    0 ROOT    
