@<TRIPOS>MOLECULE
3R8
117   119    1
SMALL
USER_CHARGES


@<TRIPOS>ATOM
      1 CA         12.8928  -25.3608  -42.3986 C.3       0 UNK        -0.2013 
      2 C          13.8824  -26.2464  -43.1400 C.2       0 UNK         0.4866 
      3 O          14.1232  -27.3781  -42.7198 O.2       0 UNK        -0.5176 
      4 N          14.4726  -25.7346  -44.2292 N.am      1 UNK        -0.4884 
      5 CA         15.4400  -26.3855  -45.1303 C.3       1 UNK         0.0853 
      6 C6         14.9056  -27.7047  -45.7542 C.3       10 UNK        -0.0849 
      7 S7         15.6182  -28.0388  -47.4014 S.3       10 UNK        -0.2776 
      8 C8         16.2844  -29.7247  -47.2080 C.3       10 UNK         0.0316 
      9 C9         17.5615  -29.7704  -46.3776 C.ar      10 UNK        -0.0863 
     10 C10        17.5645  -30.3727  -45.1160 C.ar      10 UNK        -0.1009 
     11 C11        18.7479  -30.4683  -44.3768 C.ar      10 UNK        -0.0712 
     12 C12        19.9355  -29.9518  -44.9044 C.ar      10 UNK        -0.0894 
     13 C13        19.9446  -29.3409  -46.1618 C.ar      10 UNK        -0.0745 
     14 C14        18.7550  -29.2545  -46.8927 C.ar      10 UNK        -0.0972 
     15 C15        21.2407  -28.8080  -46.7559 C.3       10 UNK         0.0209 
     16 S16        21.4820  -27.0368  -46.4054 S.3       10 UNK        -0.2568 
     17 C17        22.3356  -27.0629  -44.7931 C.3       10 UNK        -0.0983 
     18 CA         21.5486  -26.3190  -43.6868 C.3       3 UNK         0.0876 
     19 N          20.2708  -26.9681  -43.4000 N.am      3 UNK        -0.4424 
     20 C          19.3018  -26.4735  -42.6212 C.2       2 UNK         0.4918 
     21 O          19.3424  -25.3715  -42.0700 O.2       2 UNK        -0.4875 
     22 CA         18.0678  -27.3750  -42.4460 C.3       2 UNK         0.0481 
     23 CB         17.6525  -27.4693  -40.9684 C.3       2 UNK        -0.1831 
     24 N          16.9004  -26.9964  -43.2475 N.am      2 UNK        -0.4498 
     25 C          16.8466  -26.5680  -44.5183 C.2       1 UNK         0.5027 
     26 O          17.8287  -26.3078  -45.2123 O.2       1 UNK        -0.4969 
     27 C          22.4064  -26.2067  -42.4113 C.2       3 UNK         0.5005 
     28 O          22.5438  -27.1887  -41.6775 O.2       3 UNK        -0.5279 
     29 N          23.0010  -25.0257  -42.1948 N.am      4 UNK        -0.4463 
     30 CA         23.8787  -24.7336  -41.0564 C.3       4 UNK         0.0283 
     31 CB         23.9967  -23.2096  -40.8908 C.3       4 UNK        -0.1875 
     32 C          25.2772  -25.3672  -41.1744 C.2       4 UNK         0.4949 
     33 O          25.9817  -25.4570  -40.1686 O.2       4 UNK        -0.5039 
     34 N          25.6627  -25.7988  -42.3836 N.am      5 UNK        -0.4663 
     35 CA         26.9619  -26.3870  -42.7296 C.3       5 UNK         0.0242 
     36 CB         27.1606  -26.2670  -44.2529 C.3       5 UNK        -0.1982 
     37 C          27.1481  -27.8341  -42.2199 C.2       5 UNK         0.5017 
     38 O          27.5487  -28.7084  -42.9902 O.2       5 UNK        -0.5012 
     39 N          26.8629  -28.0519  -40.9284 N.am      6 UNK        -0.4439 
     40 CA         27.0237  -29.2941  -40.1621 C.3       6 UNK         0.0297 
     41 CB         28.5220  -29.5908  -39.9376 C.3       6 UNK        -0.2006 
     42 C          26.2583  -30.5009  -40.7448 C.2       6 UNK         0.4892 
     43 O          26.7771  -31.6196  -40.7309 O.2       6 UNK        -0.5089 
     44 N          25.0368  -30.2613  -41.2434 N.am      7 UNK        -0.4243 
     45 CA         24.1393  -31.3047  -41.7428 C.3       7 UNK         0.0196 
     46 CB         22.9855  -30.6576  -42.5250 C.3       7 UNK        -0.2007 
     47 C          23.5918  -32.1571  -40.5879 C.2       7 UNK         0.5020 
     48 O          23.1995  -31.6035  -39.5585 O.2       7 UNK        -0.5147 
     49 N          23.5328  -33.4806  -40.7887 N.am      8 UNK        -0.4734 
     50 CA         23.0387  -34.4499  -39.7997 C.3       8 UNK         0.0238 
     51 CB         23.3063  -35.8771  -40.3048 C.3       8 UNK        -0.1912 
     52 C          21.5502  -34.2718  -39.4497 C.2       8 UNK         0.5038 
     53 O          21.1541  -34.5601  -38.3198 O.2       8 UNK        -0.5046 
     54 N          20.7699  -33.7811  -40.4189 N.am      9 UNK        -0.4200 
     55 CA         19.3713  -33.3646  -40.2621 C.3       9 UNK         0.0839 
     56 C          19.1816  -31.9507  -39.6351 C.2       9 UNK         0.5513 
     57 N          20.2321  -31.2014  -39.3198 N.am      9 UNK        -0.7519 
     58 O          18.0495  -31.5264  -39.4198 O.2       9 UNK        -0.4960 
     59 C59        18.5723  -33.5474  -41.5816 C.3       10 UNK        -0.0876 
     60 S60        19.3559  -32.8220  -43.0665 S.3       10 UNK        -0.2414 
     61 C61        18.7346  -31.1165  -43.0014 C.3       10 UNK         0.0169 
     62 H62        12.7771  -24.3878  -42.8756 H         1 UNK         0.0903 
     63 H63        11.9146  -25.8398  -42.3647 H         1 UNK         0.0903 
     64 H64        13.2285  -25.1991  -41.3746 H         1 UNK         0.0903 
     65 H65        14.2470  -24.7828  -44.4869 H         1 UNK         0.3096 
     66 H66        15.5639  -25.6663  -45.9424 H         1 UNK         0.1121 
     67 H67        15.0629  -28.5527  -45.0850 H         1 UNK         0.0849 
     68 H68        13.8253  -27.6385  -45.8925 H         1 UNK         0.0849 
     69 H69        15.5157  -30.3713  -46.7817 H         1 UNK         0.0865 
     70 H70        16.4975  -30.1286  -48.1989 H         1 UNK         0.0865 
     71 H71        16.6472  -30.7788  -44.7119 H         1 UNK         0.1346 
     72 H72        20.8532  -30.0363  -44.3404 H         1 UNK         0.1412 
     73 H73        18.7576  -28.7894  -47.8692 H         1 UNK         0.1426 
     74 H74        21.2229  -28.9432  -47.8384 H         1 UNK         0.0716 
     75 H75        22.0960  -29.3849  -46.4008 H         1 UNK         0.0716 
     76 H76        23.3119  -26.5987  -44.9456 H         1 UNK         0.0695 
     77 H77        22.5373  -28.0921  -44.4932 H         1 UNK         0.0695 
     78 H78        21.3230  -25.3110  -44.0422 H         1 UNK         0.0983 
     79 H79        20.1103  -27.8464  -43.8702 H         1 UNK         0.3095 
     80 H80        18.3424  -28.3777  -42.7614 H         1 UNK         0.0454 
     81 H81        18.4978  -27.7586  -40.3423 H         1 UNK         0.0851 
     82 H82        16.8729  -28.2170  -40.8211 H         1 UNK         0.0851 
     83 H83        17.2789  -26.5156  -40.5936 H         1 UNK         0.0851 
     84 H84        15.9961  -27.1710  -42.8171 H         1 UNK         0.2976 
     85 H85        22.8387  -24.2679  -42.8437 H         1 UNK         0.3116 
     86 H86        23.4154  -25.1377  -40.1536 H         1 UNK         0.0646 
     87 H87        24.4515  -22.7406  -41.7643 H         1 UNK         0.0847 
     88 H88        23.0212  -22.7500  -40.7305 H         1 UNK         0.0847 
     89 H89        24.6153  -22.9572  -40.0282 H         1 UNK         0.0847 
     90 H90        25.0036  -25.7024  -43.1412 H         1 UNK         0.3040 
     91 H91        27.7408  -25.7905  -42.2491 H         1 UNK         0.1015 
     92 H92        28.1468  -26.6264  -44.5503 H         1 UNK         0.0786 
     93 H93        27.0864  -25.2308  -44.5836 H         1 UNK         0.0786 
     94 H94        26.4208  -26.8500  -44.8032 H         1 UNK         0.0786 
     95 H95        26.5321  -27.2440  -40.4045 H         1 UNK         0.3172 
     96 H96        26.5783  -29.1038  -39.1846 H         1 UNK         0.0595 
     97 H97        29.0293  -29.8334  -40.8721 H         1 UNK         0.0839 
     98 H98        28.6585  -30.4378  -39.2639 H         1 UNK         0.0839 
     99 H99        29.0334  -28.7389  -39.4895 H         1 UNK         0.0839 
    100 H100       24.6643  -29.3238  -41.1925 H         1 UNK         0.2998 
    101 H101       24.7040  -31.9444  -42.4247 H         1 UNK         0.0822 
    102 H102       22.3136  -31.4174  -42.9263 H         1 UNK         0.0787 
    103 H103       23.3592  -30.0761  -43.3675 H         1 UNK         0.0787 
    104 H104       22.3900  -29.9946  -41.8953 H         1 UNK         0.0787 
    105 H105       23.8721  -33.8577  -41.6628 H         1 UNK         0.3055 
    106 H106       23.6046  -34.3003  -38.8772 H         1 UNK         0.1106 
    107 H107       24.3706  -36.0485  -40.4673 H         1 UNK         0.0828 
    108 H108       22.9693  -36.6176  -39.5778 H         1 UNK         0.0828 
    109 H109       22.7851  -36.0802  -41.2412 H         1 UNK         0.0828 
    110 H110       21.1880  -33.5703  -41.3129 H         1 UNK         0.2931 
    111 H111       18.9151  -34.0439  -39.5393 H         1 UNK         0.0412 
    112 H112       21.1817  -31.5275  -39.4578 H         1 UNK         0.3472 
    113 H113       20.0760  -30.2962  -38.9070 H         1 UNK         0.3472 
    114 H114       17.5491  -33.1804  -41.4817 H         1 UNK         0.0970 
    115 H115       18.4658  -34.6157  -41.7756 H         1 UNK         0.0970 
    116 H116       17.7231  -31.1016  -42.5924 H         1 UNK         0.0612 
    117 H117       19.3543  -30.5404  -42.3127 H         1 UNK         0.0612 
@<TRIPOS>BOND
     1    1    2 1    
     2    1   62 1    
     3    1   63 1    
     4    1   64 1    
     5    2    3 2    
     6    2    4 am   BACKBONE|DICT|INTERRES
     7    4    5 1    
     8    4   65 1    
     9    5    6 1    
    10    5   25 1    
    11    5   66 1    
    12    6    7 1    
    13    6   67 1    
    14    6   68 1    
    15    7    8 1    
    16    8    9 1    
    17    8   69 1    
    18    8   70 1    
    19    9   10 ar   
    20    9   14 ar   
    21   10   11 ar   
    22   10   71 1    
    23   11   12 ar   
    24   11   61 1    
    25   12   13 ar   
    26   12   72 1    
    27   13   14 ar   
    28   13   15 1    
    29   14   73 1    
    30   15   16 1    
    31   15   74 1    
    32   15   75 1    
    33   16   17 1    
    34   17   18 1    
    35   17   76 1    
    36   17   77 1    
    37   18   19 1    
    38   18   27 1    
    39   18   78 1    
    40   19   20 am   BACKBONE|DICT|INTERRES
    41   19   79 1    
    42   20   21 2    
    43   20   22 1    
    44   22   23 1    
    45   22   24 1    
    46   22   80 1    
    47   23   81 1    
    48   23   82 1    
    49   23   83 1    
    50   24   25 am   BACKBONE|DICT|INTERRES
    51   24   84 1    
    52   25   26 2    
    53   27   28 2    
    54   27   29 am   BACKBONE|DICT|INTERRES
    55   29   30 1    
    56   29   85 1    
    57   30   31 1    
    58   30   32 1    
    59   30   86 1    
    60   31   87 1    
    61   31   88 1    
    62   31   89 1    
    63   32   33 2    
    64   32   34 am   BACKBONE|DICT|INTERRES
    65   34   35 1    
    66   34   90 1    
    67   35   36 1    
    68   35   37 1    
    69   35   91 1    
    70   36   92 1    
    71   36   93 1    
    72   36   94 1    
    73   37   38 2    
    74   37   39 am   BACKBONE|DICT|INTERRES
    75   39   40 1    
    76   39   95 1    
    77   40   41 1    
    78   40   42 1    
    79   40   96 1    
    80   41   97 1    
    81   41   98 1    
    82   41   99 1    
    83   42   43 2    
    84   42   44 am   BACKBONE|DICT|INTERRES
    85   44   45 1    
    86   44  100 1    
    87   45   46 1    
    88   45   47 1    
    89   45  101 1    
    90   46  102 1    
    91   46  103 1    
    92   46  104 1    
    93   47   48 2    
    94   47   49 am   BACKBONE|DICT|INTERRES
    95   49   50 1    
    96   49  105 1    
    97   50   51 1    
    98   50   52 1    
    99   50  106 1    
   100   51  107 1    
   101   51  108 1    
   102   51  109 1    
   103   52   53 2    
   104   52   54 am   BACKBONE|DICT|INTERRES
   105   54   55 1    
   106   54  110 1    
   107   55   56 1    
   108   55   59 1    
   109   55  111 1    
   110   56   57 am   BACKBONE|DICT|INTERRES
   111   56   58 2    
   112   57  112 1    
   113   57  113 1    
   114   59   60 1    
   115   59  114 1    
   116   59  115 1    
   117   60   61 1    
   118   61  116 1    
   119   61  117 1    
@<TRIPOS>SUBSTRUCTURE
     1 UNK         1 GROUP             0       ****    0 ROOT    
