@<TRIPOS>MOLECULE
3R8
117   119    1
SMALL
USER_CHARGES


@<TRIPOS>ATOM
      1 CA         14.2421  -23.8723  -47.6986 C.3       0 UNK        -0.2013 
      2 C          15.2650  -24.6946  -46.9300 C.2       0 UNK         0.4866 
      3 O          16.1554  -25.2914  -47.5373 O.2       0 UNK        -0.5176 
      4 N          15.1549  -24.7301  -45.5953 N.am      1 UNK        -0.4884 
      5 CA         16.0614  -25.4461  -44.6921 C.3       1 UNK         0.0853 
      6 C6         15.3373  -25.8477  -43.3804 C.3       10 UNK        -0.0849 
      7 S7         16.2253  -27.1584  -42.4761 S.3       10 UNK        -0.2776 
      8 C8         15.6251  -28.6557  -43.3207 C.3       10 UNK         0.0316 
      9 C9         16.7553  -29.6614  -43.4563 C.ar      10 UNK        -0.0863 
     10 C10        16.9538  -30.6391  -42.4768 C.ar      10 UNK        -0.1009 
     11 C11        18.0254  -31.5306  -42.5776 C.ar      10 UNK        -0.0712 
     12 C12        18.9030  -31.4359  -43.6619 C.ar      10 UNK        -0.0894 
     13 C13        18.7203  -30.4566  -44.6421 C.ar      10 UNK        -0.0745 
     14 C14        17.6295  -29.5865  -44.5453 C.ar      10 UNK        -0.0972 
     15 C15        19.7232  -30.3276  -45.7831 C.3       10 UNK         0.0209 
     16 S16        20.4130  -28.6453  -45.9558 S.3       10 UNK        -0.2568 
     17 C17        20.9774  -28.2649  -44.2583 C.3       10 UNK        -0.0983 
     18 CA         21.4455  -26.7937  -44.0958 C.3       3 UNK         0.0876 
     19 N          20.4303  -25.8485  -44.5839 N.am      3 UNK        -0.4424 
     20 C          20.6330  -24.5847  -44.9796 C.2       2 UNK         0.4918 
     21 O          21.7235  -24.0183  -44.8919 O.2       2 UNK        -0.4875 
     22 CA         19.4420  -23.8182  -45.5871 C.3       2 UNK         0.0481 
     23 CB         19.7343  -23.4473  -47.0505 C.3       2 UNK        -0.1831 
     24 N          18.1744  -24.5521  -45.5377 N.am      2 UNK        -0.4498 
     25 C          17.3609  -24.6359  -44.4773 C.2       1 UNK         0.5027 
     26 O          17.5903  -24.0858  -43.3989 O.2       1 UNK        -0.4969 
     27 C          21.8979  -26.4802  -42.6471 C.2       3 UNK         0.5005 
     28 O          21.9144  -27.3689  -41.7918 O.2       3 UNK        -0.5279 
     29 N          22.2727  -25.2179  -42.3943 N.am      4 UNK        -0.4463 
     30 CA         22.6473  -24.6498  -41.0927 C.3       4 UNK         0.0283 
     31 CB         22.8662  -23.1370  -41.2563 C.3       4 UNK        -0.1875 
     32 C          23.8709  -25.3003  -40.4203 C.2       4 UNK         0.4949 
     33 O          24.0519  -25.1332  -39.2141 O.2       4 UNK        -0.5039 
     34 N          24.6741  -26.0427  -41.1947 N.am      5 UNK        -0.4663 
     35 CA         25.7829  -26.8678  -40.7111 C.3       5 UNK         0.0242 
     36 CB         26.6076  -27.3521  -41.9152 C.3       5 UNK        -0.1982 
     37 C          25.3345  -28.0689  -39.8563 C.2       5 UNK         0.5017 
     38 O          26.1581  -28.5993  -39.1112 O.2       5 UNK        -0.5012 
     39 N          24.0676  -28.4974  -39.9934 N.am      6 UNK        -0.4439 
     40 CA         23.3694  -29.5739  -39.2690 C.3       6 UNK         0.0297 
     41 CB         23.2982  -29.2707  -37.7602 C.3       6 UNK        -0.2006 
     42 C          23.8890  -31.0048  -39.5149 C.2       6 UNK         0.4892 
     43 O          23.1040  -31.9464  -39.4075 O.2       6 UNK        -0.5089 
     44 N          25.1715  -31.1595  -39.8714 N.am      7 UNK        -0.4243 
     45 CA         25.8419  -32.4281  -40.1834 C.3       7 UNK         0.0196 
     46 CB         27.3227  -32.1507  -40.4863 C.3       7 UNK        -0.2007 
     47 C          25.1960  -33.2159  -41.3379 C.2       7 UNK         0.5020 
     48 O          25.2929  -34.4432  -41.3621 O.2       7 UNK        -0.5147 
     49 N          24.5071  -32.5063  -42.2434 N.am      8 UNK        -0.4734 
     50 CA         23.6948  -33.0667  -43.3274 C.3       8 UNK         0.0238 
     51 CB         23.1688  -31.9176  -44.2031 C.3       8 UNK        -0.1912 
     52 C          22.5230  -33.9437  -42.8443 C.2       8 UNK         0.5038 
     53 O          22.0625  -34.7911  -43.6102 O.2       8 UNK        -0.5046 
     54 N          22.0689  -33.7371  -41.6002 N.am      9 UNK        -0.4200 
     55 CA         21.0348  -34.5486  -40.9423 C.3       9 UNK         0.0839 
     56 C          21.5633  -35.8923  -40.3604 C.2       9 UNK         0.5513 
     57 N          22.8624  -36.1722  -40.3802 N.am      9 UNK        -0.7519 
     58 O          20.7731  -36.7055  -39.8881 O.2       9 UNK        -0.4960 
     59 C59        20.2436  -33.7450  -39.8715 C.3       10 UNK        -0.0876 
     60 S60        19.6628  -32.1148  -40.4528 S.3       10 UNK        -0.2414 
     61 C61        18.2606  -32.5853  -41.5099 C.3       10 UNK         0.0169 
     62 H62        13.5132  -23.4051  -47.0368 H         1 UNK         0.0903 
     63 H63        14.7417  -23.0855  -48.2630 H         1 UNK         0.0903 
     64 H64        13.7036  -24.5069  -48.4019 H         1 UNK         0.0903 
     65 H65        14.4252  -24.1930  -45.1469 H         1 UNK         0.3096 
     66 H66        16.3536  -26.3729  -45.1915 H         1 UNK         0.1121 
     67 H67        15.2019  -24.9872  -42.7224 H         1 UNK         0.0849 
     68 H68        14.3315  -26.2116  -43.5979 H         1 UNK         0.0849 
     69 H69        14.7929  -29.0814  -42.7578 H         1 UNK         0.0865 
     70 H70        15.2326  -28.4118  -44.3091 H         1 UNK         0.0865 
     71 H71        16.2860  -30.6936  -41.6277 H         1 UNK         0.1346 
     72 H72        19.7433  -32.1143  -43.7240 H         1 UNK         0.1412 
     73 H73        17.4874  -28.8236  -45.2984 H         1 UNK         0.1426 
     74 H74        20.5507  -31.0254  -45.6505 H         1 UNK         0.0716 
     75 H75        19.2339  -30.6054  -46.7174 H         1 UNK         0.0716 
     76 H76        20.1656  -28.4723  -43.5589 H         1 UNK         0.0695 
     77 H77        21.7854  -28.9535  -44.0066 H         1 UNK         0.0695 
     78 H78        22.3326  -26.6701  -44.7211 H         1 UNK         0.0983 
     79 H79        19.5022  -26.2285  -44.6878 H         1 UNK         0.3095 
     80 H80        19.3317  -22.8916  -45.0202 H         1 UNK         0.0454 
     81 H81        19.8660  -24.3333  -47.6729 H         1 UNK         0.0851 
     82 H82        18.9265  -22.8536  -47.4787 H         1 UNK         0.0851 
     83 H83        20.6461  -22.8538  -47.1315 H         1 UNK         0.0851 
     84 H84        17.8564  -24.9775  -46.4031 H         1 UNK         0.2976 
     85 H85        22.2318  -24.5702  -43.1781 H         1 UNK         0.3116 
     86 H86        21.8003  -24.8010  -40.4206 H         1 UNK         0.0646 
     87 H87        23.1114  -22.6703  -40.3010 H         1 UNK         0.0847 
     88 H88        21.9704  -22.6437  -41.6339 H         1 UNK         0.0847 
     89 H89        23.6845  -22.9205  -41.9443 H         1 UNK         0.0847 
     90 H90        24.4533  -26.1042  -42.1777 H         1 UNK         0.3040 
     91 H91        26.4209  -26.2433  -40.0816 H         1 UNK         0.1015 
     92 H92        27.0002  -26.5136  -42.4908 H         1 UNK         0.0786 
     93 H93        26.0159  -27.9749  -42.5874 H         1 UNK         0.0786 
     94 H94        27.4631  -27.9461  -41.5897 H         1 UNK         0.0786 
     95 H95        23.4806  -28.0023  -40.6604 H         1 UNK         0.3172 
     96 H96        22.3476  -29.5567  -39.6522 H         1 UNK         0.0595 
     97 H97        22.6829  -30.0092  -37.2444 H         1 UNK         0.0839 
     98 H98        22.8551  -28.2925  -37.5732 H         1 UNK         0.0839 
     99 H99        24.2833  -29.2883  -37.2931 H         1 UNK         0.0839 
    100 H100       25.7516  -30.3268  -39.8455 H         1 UNK         0.2998 
    101 H101       25.7823  -33.0555  -39.2918 H         1 UNK         0.0822 
    102 H102       27.8188  -31.6755  -39.6396 H         1 UNK         0.0787 
    103 H103       27.8593  -33.0771  -40.6965 H         1 UNK         0.0787 
    104 H104       27.4417  -31.4998  -41.3535 H         1 UNK         0.0787 
    105 H105       24.4874  -31.5030  -42.1335 H         1 UNK         0.3055 
    106 H106       24.3443  -33.7006  -43.9352 H         1 UNK         0.1106 
    107 H107       23.9827  -31.3109  -44.6004 H         1 UNK         0.0828 
    108 H108       22.6111  -32.3050  -45.0568 H         1 UNK         0.0828 
    109 H109       22.4983  -31.2624  -43.6457 H         1 UNK         0.0828 
    110 H110       22.5041  -33.0299  -41.0172 H         1 UNK         0.2931 
    111 H111       20.3177  -34.8397  -41.7110 H         1 UNK         0.0412 
    112 H112       23.1811  -37.0504  -40.0021 H         1 UNK         0.3472 
    113 H113       23.5324  -35.5196  -40.7679 H         1 UNK         0.3472 
    114 H114       20.8710  -33.5733  -38.9948 H         1 UNK         0.0970 
    115 H115       19.3833  -34.3171  -39.5190 H         1 UNK         0.0970 
    116 H116       17.3733  -32.7242  -40.8904 H         1 UNK         0.0612 
    117 H117       18.4521  -33.5417  -41.9962 H         1 UNK         0.0612 
@<TRIPOS>BOND
     1    1    2 1    
     2    1   62 1    
     3    1   63 1    
     4    1   64 1    
     5    2    3 2    
     6    2    4 am   BACKBONE|DICT|INTERRES
     7    4    5 1    
     8    4   65 1    
     9    5    6 1    
    10    5   25 1    
    11    5   66 1    
    12    6    7 1    
    13    6   67 1    
    14    6   68 1    
    15    7    8 1    
    16    8    9 1    
    17    8   69 1    
    18    8   70 1    
    19    9   10 ar   
    20    9   14 ar   
    21   10   11 ar   
    22   10   71 1    
    23   11   12 ar   
    24   11   61 1    
    25   12   13 ar   
    26   12   72 1    
    27   13   14 ar   
    28   13   15 1    
    29   14   73 1    
    30   15   16 1    
    31   15   74 1    
    32   15   75 1    
    33   16   17 1    
    34   17   18 1    
    35   17   76 1    
    36   17   77 1    
    37   18   19 1    
    38   18   27 1    
    39   18   78 1    
    40   19   20 am   BACKBONE|DICT|INTERRES
    41   19   79 1    
    42   20   21 2    
    43   20   22 1    
    44   22   23 1    
    45   22   24 1    
    46   22   80 1    
    47   23   81 1    
    48   23   82 1    
    49   23   83 1    
    50   24   25 am   BACKBONE|DICT|INTERRES
    51   24   84 1    
    52   25   26 2    
    53   27   28 2    
    54   27   29 am   BACKBONE|DICT|INTERRES
    55   29   30 1    
    56   29   85 1    
    57   30   31 1    
    58   30   32 1    
    59   30   86 1    
    60   31   87 1    
    61   31   88 1    
    62   31   89 1    
    63   32   33 2    
    64   32   34 am   BACKBONE|DICT|INTERRES
    65   34   35 1    
    66   34   90 1    
    67   35   36 1    
    68   35   37 1    
    69   35   91 1    
    70   36   92 1    
    71   36   93 1    
    72   36   94 1    
    73   37   38 2    
    74   37   39 am   BACKBONE|DICT|INTERRES
    75   39   40 1    
    76   39   95 1    
    77   40   41 1    
    78   40   42 1    
    79   40   96 1    
    80   41   97 1    
    81   41   98 1    
    82   41   99 1    
    83   42   43 2    
    84   42   44 am   BACKBONE|DICT|INTERRES
    85   44   45 1    
    86   44  100 1    
    87   45   46 1    
    88   45   47 1    
    89   45  101 1    
    90   46  102 1    
    91   46  103 1    
    92   46  104 1    
    93   47   48 2    
    94   47   49 am   BACKBONE|DICT|INTERRES
    95   49   50 1    
    96   49  105 1    
    97   50   51 1    
    98   50   52 1    
    99   50  106 1    
   100   51  107 1    
   101   51  108 1    
   102   51  109 1    
   103   52   53 2    
   104   52   54 am   BACKBONE|DICT|INTERRES
   105   54   55 1    
   106   54  110 1    
   107   55   56 1    
   108   55   59 1    
   109   55  111 1    
   110   56   57 am   BACKBONE|DICT|INTERRES
   111   56   58 2    
   112   57  112 1    
   113   57  113 1    
   114   59   60 1    
   115   59  114 1    
   116   59  115 1    
   117   60   61 1    
   118   61  116 1    
   119   61  117 1    
@<TRIPOS>SUBSTRUCTURE
     1 UNK         1 GROUP             0       ****    0 ROOT    
