@<TRIPOS>MOLECULE
3R8
117   119    1
SMALL
USER_CHARGES


@<TRIPOS>ATOM
      1 CA         13.6838  -24.7719  -43.1397 C.3       0 UNK        -0.2013 
      2 C          15.0670  -25.2478  -43.5558 C.2       0 UNK         0.4866 
      3 O          15.6372  -24.7202  -44.5121 O.2       0 UNK        -0.5176 
      4 N          15.6213  -26.2365  -42.8431 N.am      1 UNK        -0.4884 
      5 CA         16.9358  -26.8385  -43.0984 C.3       1 UNK         0.0853 
      6 C6         17.0386  -28.2767  -42.5219 C.3       10 UNK        -0.0849 
      7 S7         15.7442  -29.4214  -43.1153 S.3       10 UNK        -0.2776 
      8 C8         16.1294  -29.6012  -44.8903 C.3       10 UNK         0.0316 
      9 C9         17.5853  -29.9659  -45.1498 C.ar      10 UNK        -0.0863 
     10 C10        18.0992  -31.1857  -44.7027 C.ar      10 UNK        -0.1009 
     11 C11        19.4353  -31.5199  -44.9375 C.ar      10 UNK        -0.0712 
     12 C12        20.2557  -30.6250  -45.6307 C.ar      10 UNK        -0.0894 
     13 C13        19.7605  -29.3983  -46.0849 C.ar      10 UNK        -0.0745 
     14 C14        18.4157  -29.0841  -45.8479 C.ar      10 UNK        -0.0972 
     15 C15        20.6888  -28.4622  -46.8621 C.3       10 UNK         0.0209 
     16 S16        20.2689  -26.6916  -46.6994 S.3       10 UNK        -0.2568 
     17 C17        21.8656  -25.9041  -46.2713 C.3       10 UNK        -0.0983 
     18 CA         21.9857  -25.4759  -44.7831 C.3       3 UNK         0.0876 
     19 N          20.7509  -24.8630  -44.2859 N.am      3 UNK        -0.4424 
     20 C          20.6274  -24.1393  -43.1665 C.2       2 UNK         0.4918 
     21 O          21.5719  -23.8145  -42.4471 O.2       2 UNK        -0.4875 
     22 CA         19.1974  -23.7154  -42.7829 C.3       2 UNK         0.0481 
     23 CB         18.8394  -22.3714  -43.4361 C.3       2 UNK        -0.1831 
     24 N          18.1810  -24.7144  -43.1347 N.am      2 UNK        -0.4498 
     25 C          18.0766  -25.9318  -42.5833 C.2       1 UNK         0.5027 
     26 O          18.8284  -26.3345  -41.6958 O.2       1 UNK        -0.4969 
     27 C          22.4563  -26.6363  -43.8837 C.2       3 UNK         0.5005 
     28 O          23.6504  -26.7338  -43.5914 O.2       3 UNK        -0.5279 
     29 N          21.5106  -27.4949  -43.4663 N.am      4 UNK        -0.4463 
     30 CA         21.6581  -28.5991  -42.5037 C.3       4 UNK         0.0283 
     31 CB         21.9068  -28.0170  -41.0960 C.3       4 UNK        -0.1875 
     32 C          22.7316  -29.6480  -42.8637 C.2       4 UNK         0.4949 
     33 O          23.1882  -30.3677  -41.9760 O.2       4 UNK        -0.5039 
     34 N          23.1758  -29.6700  -44.1310 N.am      5 UNK        -0.4663 
     35 CA         24.3326  -30.4114  -44.6604 C.3       5 UNK         0.0242 
     36 CB         24.0463  -31.9287  -44.6683 C.3       5 UNK        -0.1982 
     37 C          25.6588  -30.0766  -43.9388 C.2       5 UNK         0.5017 
     38 O          26.5768  -30.8981  -43.9477 O.2       5 UNK        -0.5012 
     39 N          25.7174  -28.8988  -43.2919 N.am      6 UNK        -0.4439 
     40 CA         26.7342  -28.4648  -42.3247 C.3       6 UNK         0.0297 
     41 CB         28.0899  -28.2236  -43.0222 C.3       6 UNK        -0.2006 
     42 C          26.8517  -29.3920  -41.0905 C.2       6 UNK         0.4892 
     43 O          27.9161  -29.4413  -40.4709 O.2       6 UNK        -0.5089 
     44 N          25.7682  -30.1072  -40.7563 N.am      7 UNK        -0.4243 
     45 CA         25.6841  -31.0806  -39.6734 C.3       7 UNK         0.0196 
     46 CB         25.5438  -32.4944  -40.2736 C.3       7 UNK        -0.2007 
     47 C          24.5221  -30.6958  -38.7485 C.2       7 UNK         0.5020 
     48 O          24.7476  -29.9705  -37.7791 O.2       7 UNK        -0.5147 
     49 N          23.3089  -31.1737  -39.0539 N.am      8 UNK        -0.4734 
     50 CA         22.0883  -30.9144  -38.2880 C.3       8 UNK         0.0238 
     51 CB         22.1004  -31.6639  -36.9392 C.3       8 UNK        -0.1912 
     52 C          20.8422  -31.2782  -39.1033 C.2       8 UNK         0.5038 
     53 O          19.9545  -30.4381  -39.2478 O.2       8 UNK        -0.5046 
     54 N          20.7955  -32.5229  -39.6024 N.am      9 UNK        -0.4200 
     55 CA         19.6568  -33.1190  -40.3314 C.3       9 UNK         0.0839 
     56 C          18.3518  -33.2695  -39.4870 C.2       9 UNK         0.5513 
     57 N          18.4209  -33.2660  -38.1607 N.am      9 UNK        -0.7519 
     58 O          17.2635  -33.4306  -40.0336 O.2       9 UNK        -0.4960 
     59 C59        19.4093  -32.4612  -41.7206 C.3       10 UNK        -0.0876 
     60 S60        20.8196  -32.7087  -42.8496 S.3       10 UNK        -0.2414 
     61 C61        19.9893  -32.8552  -44.4617 C.3       10 UNK         0.0169 
     62 H62        13.3002  -25.3299  -42.2857 H         1 UNK         0.0903 
     63 H63        13.7158  -23.7168  -42.8696 H         1 UNK         0.0903 
     64 H64        12.9827  -24.8915  -43.9653 H         1 UNK         0.0903 
     65 H65        15.1136  -26.6280  -42.0620 H         1 UNK         0.3096 
     66 H66        17.0730  -26.9099  -44.1790 H         1 UNK         0.1121 
     67 H67        16.9716  -28.2516  -41.4324 H         1 UNK         0.0849 
     68 H68        18.0144  -28.7133  -42.7440 H         1 UNK         0.0849 
     69 H69        15.4887  -30.3772  -45.3116 H         1 UNK         0.0865 
     70 H70        15.8597  -28.6780  -45.4055 H         1 UNK         0.0865 
     71 H71        17.4560  -31.8718  -44.1690 H         1 UNK         0.1346 
     72 H72        21.2843  -30.8923  -45.8241 H         1 UNK         0.1412 
     73 H73        18.0055  -28.1539  -46.2143 H         1 UNK         0.1426 
     74 H74        20.6472  -28.7307  -47.9184 H         1 UNK         0.0716 
     75 H75        21.7197  -28.6234  -46.5475 H         1 UNK         0.0716 
     76 H76        21.9428  -25.0113  -46.8937 H         1 UNK         0.0695 
     77 H77        22.7029  -26.5332  -46.5793 H         1 UNK         0.0695 
     78 H78        22.7678  -24.7151  -44.7260 H         1 UNK         0.0983 
     79 H79        19.9214  -25.0576  -44.8280 H         1 UNK         0.3095 
     80 H80        19.1725  -23.5826  -41.6993 H         1 UNK         0.0454 
     81 H81        19.5672  -21.6029  -43.1718 H         1 UNK         0.0851 
     82 H82        17.8628  -22.0174  -43.1055 H         1 UNK         0.0851 
     83 H83        18.8200  -22.4418  -44.5243 H         1 UNK         0.0851 
     84 H84        17.4765  -24.4499  -43.8178 H         1 UNK         0.2976 
     85 H85        20.5693  -27.3360  -43.7956 H         1 UNK         0.3116 
     86 H86        20.7053  -29.1309  -42.4883 H         1 UNK         0.0646 
     87 H87        21.9021  -28.7981  -40.3385 H         1 UNK         0.0847 
     88 H88        22.8709  -27.5119  -41.0310 H         1 UNK         0.0847 
     89 H89        21.1348  -27.3008  -40.8176 H         1 UNK         0.0847 
     90 H90        22.7555  -29.0063  -44.7637 H         1 UNK         0.3040 
     91 H91        24.4636  -30.0902  -45.6948 H         1 UNK         0.1015 
     92 H92        24.8439  -32.4777  -45.1700 H         1 UNK         0.0786 
     93 H93        23.1213  -32.1610  -45.1934 H         1 UNK         0.0786 
     94 H94        23.9641  -32.3289  -43.6572 H         1 UNK         0.0786 
     95 H95        24.9191  -28.2741  -43.3817 H         1 UNK         0.3172 
     96 H96        26.3865  -27.5039  -41.9427 H         1 UNK         0.0595 
     97 H97        28.5387  -29.1548  -43.3690 H         1 UNK         0.0839 
     98 H98        28.8023  -27.7548  -42.3423 H         1 UNK         0.0839 
     99 H99        27.9822  -27.5618  -43.8815 H         1 UNK         0.0839 
    100 H100       24.9176  -30.0055  -41.3055 H         1 UNK         0.2998 
    101 H101       26.5915  -31.0611  -39.0660 H         1 UNK         0.0822 
    102 H102       25.3819  -33.2395  -39.4935 H         1 UNK         0.0787 
    103 H103       24.7161  -32.5646  -40.9806 H         1 UNK         0.0787 
    104 H104       26.4504  -32.7787  -40.8081 H         1 UNK         0.0787 
    105 H105       23.1897  -31.6398  -39.9454 H         1 UNK         0.3055 
    106 H106       22.0366  -29.8426  -38.0829 H         1 UNK         0.1106 
    107 H107       22.2492  -32.7361  -37.0699 H         1 UNK         0.0828 
    108 H108       22.8913  -31.2975  -36.2849 H         1 UNK         0.0828 
    109 H109       21.1590  -31.5247  -36.4058 H         1 UNK         0.0828 
    110 H110       21.5619  -33.1508  -39.4104 H         1 UNK         0.2931 
    111 H111       19.9559  -34.1504  -40.5223 H         1 UNK         0.0412 
    112 H112       17.5751  -33.3767  -37.6234 H         1 UNK         0.3472 
    113 H113       19.3056  -33.1573  -37.6926 H         1 UNK         0.3472 
    114 H114       18.5252  -32.8926  -42.1915 H         1 UNK         0.0970 
    115 H115       19.2082  -31.3932  -41.6251 H         1 UNK         0.0970 
    116 H116       19.1979  -33.6040  -44.4031 H         1 UNK         0.0612 
    117 H117       20.7085  -33.2324  -45.1901 H         1 UNK         0.0612 
@<TRIPOS>BOND
     1    1    2 1    
     2    1   62 1    
     3    1   63 1    
     4    1   64 1    
     5    2    3 2    
     6    2    4 am   BACKBONE|DICT|INTERRES
     7    4    5 1    
     8    4   65 1    
     9    5    6 1    
    10    5   25 1    
    11    5   66 1    
    12    6    7 1    
    13    6   67 1    
    14    6   68 1    
    15    7    8 1    
    16    8    9 1    
    17    8   69 1    
    18    8   70 1    
    19    9   10 ar   
    20    9   14 ar   
    21   10   11 ar   
    22   10   71 1    
    23   11   12 ar   
    24   11   61 1    
    25   12   13 ar   
    26   12   72 1    
    27   13   14 ar   
    28   13   15 1    
    29   14   73 1    
    30   15   16 1    
    31   15   74 1    
    32   15   75 1    
    33   16   17 1    
    34   17   18 1    
    35   17   76 1    
    36   17   77 1    
    37   18   19 1    
    38   18   27 1    
    39   18   78 1    
    40   19   20 am   BACKBONE|DICT|INTERRES
    41   19   79 1    
    42   20   21 2    
    43   20   22 1    
    44   22   23 1    
    45   22   24 1    
    46   22   80 1    
    47   23   81 1    
    48   23   82 1    
    49   23   83 1    
    50   24   25 am   BACKBONE|DICT|INTERRES
    51   24   84 1    
    52   25   26 2    
    53   27   28 2    
    54   27   29 am   BACKBONE|DICT|INTERRES
    55   29   30 1    
    56   29   85 1    
    57   30   31 1    
    58   30   32 1    
    59   30   86 1    
    60   31   87 1    
    61   31   88 1    
    62   31   89 1    
    63   32   33 2    
    64   32   34 am   BACKBONE|DICT|INTERRES
    65   34   35 1    
    66   34   90 1    
    67   35   36 1    
    68   35   37 1    
    69   35   91 1    
    70   36   92 1    
    71   36   93 1    
    72   36   94 1    
    73   37   38 2    
    74   37   39 am   BACKBONE|DICT|INTERRES
    75   39   40 1    
    76   39   95 1    
    77   40   41 1    
    78   40   42 1    
    79   40   96 1    
    80   41   97 1    
    81   41   98 1    
    82   41   99 1    
    83   42   43 2    
    84   42   44 am   BACKBONE|DICT|INTERRES
    85   44   45 1    
    86   44  100 1    
    87   45   46 1    
    88   45   47 1    
    89   45  101 1    
    90   46  102 1    
    91   46  103 1    
    92   46  104 1    
    93   47   48 2    
    94   47   49 am   BACKBONE|DICT|INTERRES
    95   49   50 1    
    96   49  105 1    
    97   50   51 1    
    98   50   52 1    
    99   50  106 1    
   100   51  107 1    
   101   51  108 1    
   102   51  109 1    
   103   52   53 2    
   104   52   54 am   BACKBONE|DICT|INTERRES
   105   54   55 1    
   106   54  110 1    
   107   55   56 1    
   108   55   59 1    
   109   55  111 1    
   110   56   57 am   BACKBONE|DICT|INTERRES
   111   56   58 2    
   112   57  112 1    
   113   57  113 1    
   114   59   60 1    
   115   59  114 1    
   116   59  115 1    
   117   60   61 1    
   118   61  116 1    
   119   61  117 1    
@<TRIPOS>SUBSTRUCTURE
     1 UNK         1 GROUP             0       ****    0 ROOT    
