@<TRIPOS>MOLECULE
3R8
117   119    1
SMALL
USER_CHARGES


@<TRIPOS>ATOM
      1 CA         17.2735  -25.1793  -48.9559 C.3       0 UNK        -0.2013 
      2 C          18.4774  -24.9310  -48.0593 C.2       0 UNK         0.4866 
      3 O          18.8965  -23.7837  -47.9009 O.2       0 UNK        -0.5176 
      4 N          19.0429  -25.9986  -47.4807 N.am      1 UNK        -0.4884 
      5 CA         20.1642  -25.9441  -46.5352 C.3       1 UNK         0.0853 
      6 C6         20.9046  -27.3177  -46.4631 C.3       10 UNK        -0.0849 
      7 S7         20.4217  -28.4902  -45.1421 S.3       10 UNK        -0.2776 
      8 C8         18.8278  -29.1140  -45.7627 C.3       10 UNK         0.0316 
      9 C9         18.1271  -29.9506  -44.7036 C.ar      10 UNK        -0.0863 
     10 C10        18.0863  -31.3457  -44.8035 C.ar      10 UNK        -0.1009 
     11 C11        17.4503  -32.1061  -43.8160 C.ar      10 UNK        -0.0712 
     12 C12        16.8862  -31.4642  -42.7098 C.ar      10 UNK        -0.0894 
     13 C13        16.9293  -30.0726  -42.5952 C.ar      10 UNK        -0.0745 
     14 C14        17.5199  -29.3195  -43.6133 C.ar      10 UNK        -0.0972 
     15 C15        16.3486  -29.3927  -41.3642 C.3       10 UNK         0.0209 
     16 S16        17.6180  -29.1562  -40.0750 S.3       10 UNK        -0.2568 
     17 C17        18.4093  -27.5998  -40.6025 C.3       10 UNK        -0.0983 
     18 CA         19.7100  -27.8151  -41.4290 C.3       3 UNK         0.0876 
     19 N          19.9922  -26.6780  -42.3066 N.am      3 UNK        -0.4424 
     20 C          20.2863  -25.4287  -41.9204 C.2       2 UNK         0.4918 
     21 O          20.4112  -25.1029  -40.7387 O.2       2 UNK        -0.4875 
     22 CA         20.4712  -24.3562  -43.0192 C.3       2 UNK         0.0481 
     23 CB         21.6181  -23.3886  -42.6755 C.3       2 UNK        -0.1831 
     24 N          20.6771  -24.8938  -44.3718 N.am      2 UNK        -0.4498 
     25 C          19.7134  -25.3851  -45.1638 C.2       1 UNK         0.5027 
     26 O          18.5295  -25.4595  -44.8232 O.2       1 UNK        -0.4969 
     27 C          20.9692  -28.1952  -40.6293 C.2       3 UNK         0.5005 
     28 O          22.0106  -28.4239  -41.2484 O.2       3 UNK        -0.5279 
     29 N          20.8820  -28.2408  -39.2930 N.am      4 UNK        -0.4463 
     30 CA         21.9845  -28.5521  -38.3750 C.3       4 UNK         0.0283 
     31 CB         21.4473  -28.5840  -36.9358 C.3       4 UNK        -0.1875 
     32 C          23.1939  -27.6021  -38.4767 C.2       4 UNK         0.4949 
     33 O          24.3009  -28.0039  -38.1197 O.2       4 UNK        -0.5039 
     34 N          22.9744  -26.3772  -38.9750 N.am      5 UNK        -0.4663 
     35 CA         24.0258  -25.3979  -39.2604 C.3       5 UNK         0.0242 
     36 CB         23.4274  -23.9845  -39.1617 C.3       5 UNK        -0.1982 
     37 C          24.7084  -25.6152  -40.6267 C.2       5 UNK         0.5017 
     38 O          25.6786  -24.9136  -40.9164 O.2       5 UNK        -0.5012 
     39 N          24.2034  -26.5516  -41.4417 N.am      6 UNK        -0.4439 
     40 CA         24.7332  -26.9109  -42.7533 C.3       6 UNK         0.0297 
     41 CB         23.7936  -26.3771  -43.8538 C.3       6 UNK        -0.2006 
     42 C          24.9589  -28.4299  -42.8000 C.2       6 UNK         0.4892 
     43 O          25.8438  -28.9240  -42.1001 O.2       6 UNK        -0.5089 
     44 N          24.1932  -29.1368  -43.6423 N.am      7 UNK        -0.4243 
     45 CA         24.3651  -30.5587  -43.9397 C.3       7 UNK         0.0196 
     46 CB         23.5841  -30.8964  -45.2209 C.3       7 UNK        -0.2007 
     47 C          23.9417  -31.5042  -42.8054 C.2       7 UNK         0.5020 
     48 O          24.4293  -32.6343  -42.7720 O.2       7 UNK        -0.5147 
     49 N          23.0144  -31.0682  -41.9390 N.am      8 UNK        -0.4734 
     50 CA         22.3764  -31.7908  -40.8223 C.3       8 UNK         0.0238 
     51 CB         23.4125  -32.1711  -39.7469 C.3       8 UNK        -0.1912 
     52 C          21.5110  -33.0089  -41.2112 C.2       8 UNK         0.5038 
     53 O          20.5218  -33.2680  -40.5281 O.2       8 UNK        -0.5046 
     54 N          21.9033  -33.7216  -42.2731 N.am      9 UNK        -0.4200 
     55 CA         21.2726  -34.8916  -42.9046 C.3       9 UNK         0.0839 
     56 C          21.1773  -36.1880  -42.0430 C.2       9 UNK         0.5513 
     57 N          21.7669  -36.2436  -40.8552 N.am      9 UNK        -0.7519 
     58 O          20.6063  -37.1829  -42.4832 O.2       9 UNK        -0.4960 
     59 C59        19.9891  -34.5367  -43.7143 C.3       10 UNK        -0.0876 
     60 S60        18.4262  -34.4857  -42.7719 S.3       10 UNK        -0.2414 
     61 C61        17.3395  -33.6184  -43.9439 C.3       10 UNK         0.0169 
     62 H62        17.4761  -24.8203  -49.9646 H         1 UNK         0.0903 
     63 H63        17.0206  -26.2376  -49.0172 H         1 UNK         0.0903 
     64 H64        16.4046  -24.6452  -48.5722 H         1 UNK         0.0903 
     65 H65        18.6423  -26.9112  -47.6370 H         1 UNK         0.3096 
     66 H66        20.8732  -25.2203  -46.9454 H         1 UNK         0.1121 
     67 H67        20.8596  -27.8329  -47.4243 H         1 UNK         0.0849 
     68 H68        21.9673  -27.1239  -46.3112 H         1 UNK         0.0849 
     69 H69        18.1829  -28.2772  -46.0324 H         1 UNK         0.0865 
     70 H70        18.9915  -29.6924  -46.6733 H         1 UNK         0.0865 
     71 H71        18.5406  -31.8386  -45.6522 H         1 UNK         0.1346 
     72 H72        16.4174  -32.0536  -41.9334 H         1 UNK         0.1412 
     73 H73        17.5468  -28.2406  -43.5375 H         1 UNK         0.1426 
     74 H74        15.8894  -28.4398  -41.6311 H         1 UNK         0.0716 
     75 H75        15.5457  -30.0047  -40.9503 H         1 UNK         0.0716 
     76 H76        18.5827  -26.9678  -39.7300 H         1 UNK         0.0695 
     77 H77        17.6847  -27.0461  -41.2013 H         1 UNK         0.0695 
     78 H78        19.5567  -28.6625  -42.0951 H         1 UNK         0.0983 
     79 H79        19.9465  -26.8726  -43.2970 H         1 UNK         0.3095 
     80 H80        19.5501  -23.7700  -43.0328 H         1 UNK         0.0454 
     81 H81        21.7841  -22.6621  -43.4709 H         1 UNK         0.0851 
     82 H82        21.3875  -22.8215  -41.7728 H         1 UNK         0.0851 
     83 H83        22.5552  -23.9134  -42.4928 H         1 UNK         0.0851 
     84 H84        21.6257  -24.8778  -44.7165 H         1 UNK         0.2976 
     85 H85        19.9830  -28.0507  -38.8724 H         1 UNK         0.3116 
     86 H86        22.3442  -29.5514  -38.6232 H         1 UNK         0.0646 
     87 H87        20.6583  -29.3276  -36.8213 H         1 UNK         0.0847 
     88 H88        22.2375  -28.8435  -36.2296 H         1 UNK         0.0847 
     89 H89        21.0459  -27.6161  -36.6330 H         1 UNK         0.0847 
     90 H90        22.0344  -26.1272  -39.2562 H         1 UNK         0.3040 
     91 H91        24.8064  -25.4841  -38.5010 H         1 UNK         0.1015 
     92 H92        22.6361  -23.8288  -39.8937 H         1 UNK         0.0786 
     93 H93        24.1877  -23.2220  -39.3362 H         1 UNK         0.0786 
     94 H94        23.0084  -23.8004  -38.1723 H         1 UNK         0.0786 
     95 H95        23.4343  -27.1318  -41.1149 H         1 UNK         0.3172 
     96 H96        25.7152  -26.4586  -42.9057 H         1 UNK         0.0595 
     97 H97        22.7695  -26.7242  -43.7142 H         1 UNK         0.0839 
     98 H98        24.1271  -26.6842  -44.8461 H         1 UNK         0.0839 
     99 H99        23.7864  -25.2884  -43.8559 H         1 UNK         0.0839 
    100 H100       23.4650  -28.6553  -44.1490 H         1 UNK         0.2998 
    101 H101       25.4259  -30.7360  -44.1302 H         1 UNK         0.0822 
    102 H102       23.7364  -31.9377  -45.5083 H         1 UNK         0.0787 
    103 H103       22.5111  -30.7500  -45.0900 H         1 UNK         0.0787 
    104 H104       23.9077  -30.2803  -46.0601 H         1 UNK         0.0787 
    105 H105       22.6995  -30.1068  -42.0422 H         1 UNK         0.3055 
    106 H106       21.6859  -31.0778  -40.3717 H         1 UNK         0.1106 
    107 H107       22.9238  -32.5926  -38.8675 H         1 UNK         0.0828 
    108 H108       24.1238  -32.9135  -40.1096 H         1 UNK         0.0828 
    109 H109       23.9787  -31.2999  -39.4171 H         1 UNK         0.0828 
    110 H110       22.7958  -33.4463  -42.6749 H         1 UNK         0.2931 
    111 H111       22.0121  -35.1645  -43.6584 H         1 UNK         0.0412 
    112 H112       21.7153  -37.0935  -40.3156 H         1 UNK         0.3472 
    113 H113       22.2341  -35.4332  -40.4820 H         1 UNK         0.3472 
    114 H114       20.1277  -33.5803  -44.2209 H         1 UNK         0.0970 
    115 H115       19.8570  -35.2705  -44.5112 H         1 UNK         0.0970 
    116 H116       17.5576  -33.9445  -44.9621 H         1 UNK         0.0612 
    117 H117       16.3088  -33.9154  -43.7451 H         1 UNK         0.0612 
@<TRIPOS>BOND
     1    1    2 1    
     2    1   62 1    
     3    1   63 1    
     4    1   64 1    
     5    2    3 2    
     6    2    4 am   BACKBONE|DICT|INTERRES
     7    4    5 1    
     8    4   65 1    
     9    5    6 1    
    10    5   25 1    
    11    5   66 1    
    12    6    7 1    
    13    6   67 1    
    14    6   68 1    
    15    7    8 1    
    16    8    9 1    
    17    8   69 1    
    18    8   70 1    
    19    9   10 ar   
    20    9   14 ar   
    21   10   11 ar   
    22   10   71 1    
    23   11   12 ar   
    24   11   61 1    
    25   12   13 ar   
    26   12   72 1    
    27   13   14 ar   
    28   13   15 1    
    29   14   73 1    
    30   15   16 1    
    31   15   74 1    
    32   15   75 1    
    33   16   17 1    
    34   17   18 1    
    35   17   76 1    
    36   17   77 1    
    37   18   19 1    
    38   18   27 1    
    39   18   78 1    
    40   19   20 am   BACKBONE|DICT|INTERRES
    41   19   79 1    
    42   20   21 2    
    43   20   22 1    
    44   22   23 1    
    45   22   24 1    
    46   22   80 1    
    47   23   81 1    
    48   23   82 1    
    49   23   83 1    
    50   24   25 am   BACKBONE|DICT|INTERRES
    51   24   84 1    
    52   25   26 2    
    53   27   28 2    
    54   27   29 am   BACKBONE|DICT|INTERRES
    55   29   30 1    
    56   29   85 1    
    57   30   31 1    
    58   30   32 1    
    59   30   86 1    
    60   31   87 1    
    61   31   88 1    
    62   31   89 1    
    63   32   33 2    
    64   32   34 am   BACKBONE|DICT|INTERRES
    65   34   35 1    
    66   34   90 1    
    67   35   36 1    
    68   35   37 1    
    69   35   91 1    
    70   36   92 1    
    71   36   93 1    
    72   36   94 1    
    73   37   38 2    
    74   37   39 am   BACKBONE|DICT|INTERRES
    75   39   40 1    
    76   39   95 1    
    77   40   41 1    
    78   40   42 1    
    79   40   96 1    
    80   41   97 1    
    81   41   98 1    
    82   41   99 1    
    83   42   43 2    
    84   42   44 am   BACKBONE|DICT|INTERRES
    85   44   45 1    
    86   44  100 1    
    87   45   46 1    
    88   45   47 1    
    89   45  101 1    
    90   46  102 1    
    91   46  103 1    
    92   46  104 1    
    93   47   48 2    
    94   47   49 am   BACKBONE|DICT|INTERRES
    95   49   50 1    
    96   49  105 1    
    97   50   51 1    
    98   50   52 1    
    99   50  106 1    
   100   51  107 1    
   101   51  108 1    
   102   51  109 1    
   103   52   53 2    
   104   52   54 am   BACKBONE|DICT|INTERRES
   105   54   55 1    
   106   54  110 1    
   107   55   56 1    
   108   55   59 1    
   109   55  111 1    
   110   56   57 am   BACKBONE|DICT|INTERRES
   111   56   58 2    
   112   57  112 1    
   113   57  113 1    
   114   59   60 1    
   115   59  114 1    
   116   59  115 1    
   117   60   61 1    
   118   61  116 1    
   119   61  117 1    
@<TRIPOS>SUBSTRUCTURE
     1 UNK         1 GROUP             0       ****    0 ROOT    
