@<TRIPOS>MOLECULE
3R8
117   119    1
SMALL
USER_CHARGES


@<TRIPOS>ATOM
      1 CA         13.9487  -23.8486  -42.5055 C.3       0 UNK        -0.2013 
      2 C          14.7675  -24.1731  -43.7457 C.2       0 UNK         0.4866 
      3 O          15.4263  -23.2899  -44.2941 O.2       0 UNK        -0.5176 
      4 N          14.7372  -25.4359  -44.1899 N.am      1 UNK        -0.4884 
      5 CA         15.4668  -25.9340  -45.3649 C.3       1 UNK         0.0853 
      6 C6         14.7656  -27.1644  -45.9962 C.3       10 UNK        -0.0849 
      7 S7         14.5183  -28.5638  -44.8448 S.3       10 UNK        -0.2776 
      8 C8         15.4936  -29.8962  -45.6253 C.3       10 UNK         0.0316 
      9 C9         16.9589  -29.9102  -45.1998 C.ar      10 UNK        -0.0863 
     10 C10        17.2930  -30.0238  -43.8469 C.ar      10 UNK        -0.1009 
     11 C11        18.6274  -30.1376  -43.4502 C.ar      10 UNK        -0.0712 
     12 C12        19.6351  -30.1435  -44.4176 C.ar      10 UNK        -0.0894 
     13 C13        19.3227  -30.0178  -45.7756 C.ar      10 UNK        -0.0745 
     14 C14        17.9806  -29.8955  -46.1578 C.ar      10 UNK        -0.0972 
     15 C15        20.4163  -30.1119  -46.8384 C.3       10 UNK         0.0209 
     16 S16        21.9271  -29.1586  -46.4508 S.3       10 UNK        -0.2568 
     17 C17        21.5193  -27.4896  -47.0769 C.3       10 UNK        -0.0983 
     18 CA         21.4445  -26.3954  -45.9833 C.3       3 UNK         0.0876 
     19 N          20.4464  -26.7277  -44.9676 N.am      3 UNK        -0.4424 
     20 C          19.8747  -25.8537  -44.1328 C.2       2 UNK         0.4918 
     21 O          20.1860  -24.6646  -44.0467 O.2       2 UNK        -0.4875 
     22 CA         18.7211  -26.4126  -43.2838 C.3       2 UNK         0.0481 
     23 CB         18.8004  -25.9116  -41.8319 C.3       2 UNK        -0.1831 
     24 N          17.3881  -26.1201  -43.8241 N.am      2 UNK        -0.4498 
     25 C          16.9618  -26.2118  -45.0969 C.2       1 UNK         0.5027 
     26 O          17.6741  -26.5159  -46.0540 O.2       1 UNK        -0.4969 
     27 C          22.8292  -26.0474  -45.3963 C.2       3 UNK         0.5005 
     28 O          23.5813  -25.3041  -46.0298 O.2       3 UNK        -0.5279 
     29 N          23.1355  -26.5643  -44.2008 N.am      4 UNK        -0.4463 
     30 CA         24.3509  -26.3023  -43.4399 C.3       4 UNK         0.0283 
     31 CB         25.5215  -27.1315  -44.0029 C.3       4 UNK        -0.1875 
     32 C          24.0875  -26.6692  -41.9779 C.2       4 UNK         0.4949 
     33 O          23.2508  -27.5333  -41.7081 O.2       4 UNK        -0.5039 
     34 N          24.8406  -26.0494  -41.0613 N.am      5 UNK        -0.4663 
     35 CA         24.8221  -26.3769  -39.6295 C.3       5 UNK         0.0242 
     36 CB         25.4862  -25.2373  -38.8400 C.3       5 UNK        -0.1982 
     37 C          25.5066  -27.7212  -39.3157 C.2       5 UNK         0.5017 
     38 O          25.1802  -28.3475  -38.3082 O.2       5 UNK        -0.5012 
     39 N          26.4301  -28.1390  -40.1922 N.am      6 UNK        -0.4439 
     40 CA         27.1681  -29.4025  -40.1274 C.3       6 UNK         0.0297 
     41 CB         28.5676  -29.1800  -40.7296 C.3       6 UNK        -0.2006 
     42 C          26.4442  -30.5702  -40.8303 C.2       6 UNK         0.4892 
     43 O          27.0362  -31.6436  -40.9579 O.2       6 UNK        -0.5089 
     44 N          25.2051  -30.3534  -41.2974 N.am      7 UNK        -0.4243 
     45 CA         24.3688  -31.3621  -41.9523 C.3       7 UNK         0.0196 
     46 CB         23.1502  -30.6682  -42.5847 C.3       7 UNK        -0.2007 
     47 C          23.9135  -32.4760  -40.9918 C.2       7 UNK         0.5020 
     48 O          23.9523  -32.3093  -39.7697 O.2       7 UNK        -0.5147 
     49 N          23.4304  -33.5809  -41.5773 N.am      8 UNK        -0.4734 
     50 CA         22.9506  -34.7881  -40.8876 C.3       8 UNK         0.0238 
     51 CB         22.5943  -35.8525  -41.9392 C.3       8 UNK        -0.1912 
     52 C          21.7693  -34.5740  -39.9195 C.2       8 UNK         0.5038 
     53 O          21.5112  -35.4493  -39.0919 O.2       8 UNK        -0.5046 
     54 N          21.0882  -33.4260  -40.0262 N.am      9 UNK        -0.4200 
     55 CA         20.0571  -32.9586  -39.0882 C.3       9 UNK         0.0839 
     56 C          20.5852  -32.6726  -37.6510 C.2       9 UNK         0.5513 
     57 N          21.8796  -32.4456  -37.4527 N.am      9 UNK        -0.7519 
     58 O          19.8033  -32.6536  -36.7041 O.2       9 UNK        -0.4960 
     59 C59        19.2995  -31.7153  -39.6251 C.3       10 UNK        -0.0876 
     60 S60        18.6815  -31.9120  -41.3314 S.3       10 UNK        -0.2414 
     61 C61        18.9792  -30.2385  -41.9757 C.3       10 UNK         0.0169 
     62 H62        13.4205  -24.7226  -42.1246 H         1 UNK         0.0903 
     63 H63        14.5975  -23.4730  -41.7146 H         1 UNK         0.0903 
     64 H64        13.2107  -23.0802  -42.7342 H         1 UNK         0.0903 
     65 H65        14.1820  -26.1296  -43.7063 H         1 UNK         0.3096 
     66 H66        15.4542  -25.1442  -46.1201 H         1 UNK         0.1121 
     67 H67        13.7813  -26.8650  -46.3596 H         1 UNK         0.0849 
     68 H68        15.3051  -27.4991  -46.8843 H         1 UNK         0.0849 
     69 H69        15.3963  -29.8400  -46.7105 H         1 UNK         0.0865 
     70 H70        15.0521  -30.8516  -45.3385 H         1 UNK         0.0865 
     71 H71        16.5106  -30.0410  -43.1003 H         1 UNK         0.1346 
     72 H72        20.6655  -30.2576  -44.1134 H         1 UNK         0.1412 
     73 H73        17.7282  -29.8264  -47.2072 H         1 UNK         0.1426 
     74 H74        20.0393  -29.8119  -47.8173 H         1 UNK         0.0716 
     75 H75        20.6965  -31.1616  -46.9338 H         1 UNK         0.0716 
     76 H76        20.5654  -27.5284  -47.6052 H         1 UNK         0.0695 
     77 H77        22.2573  -27.2195  -47.8345 H         1 UNK         0.0695 
     78 H78        21.0973  -25.4834  -46.4746 H         1 UNK         0.0983 
     79 H79        20.0839  -27.6706  -45.0073 H         1 UNK         0.3095 
     80 H80        18.8206  -27.4952  -43.2560 H         1 UNK         0.0454 
     81 H81        18.0668  -26.4096  -41.1980 H         1 UNK         0.0851 
     82 H82        18.6285  -24.8365  -41.7658 H         1 UNK         0.0851 
     83 H83        19.7839  -26.1114  -41.4037 H         1 UNK         0.0851 
     84 H84        16.6926  -25.8455  -43.1468 H         1 UNK         0.2976 
     85 H85        22.4613  -27.1488  -43.7216 H         1 UNK         0.3116 
     86 H86        24.5866  -25.2375  -43.4990 H         1 UNK         0.0646 
     87 H87        26.4412  -26.9445  -43.4480 H         1 UNK         0.0847 
     88 H88        25.7221  -26.8827  -45.0449 H         1 UNK         0.0847 
     89 H89        25.3183  -28.2020  -43.9504 H         1 UNK         0.0847 
     90 H90        25.4932  -25.3371  -41.3591 H         1 UNK         0.3040 
     91 H91        23.7814  -26.4579  -39.3060 H         1 UNK         0.1015 
     92 H92        24.9688  -24.2908  -38.9982 H         1 UNK         0.0786 
     93 H93        26.5308  -25.1020  -39.1236 H         1 UNK         0.0786 
     94 H94        25.4637  -25.4409  -37.7683 H         1 UNK         0.0786 
     95 H95        26.6222  -27.5465  -40.9862 H         1 UNK         0.3172 
     96 H96        27.2937  -29.6889  -39.0812 H         1 UNK         0.0595 
     97 H97        28.5165  -28.9288  -41.7898 H         1 UNK         0.0839 
     98 H98        29.1829  -30.0760  -40.6373 H         1 UNK         0.0839 
     99 H99        29.0973  -28.3761  -40.2181 H         1 UNK         0.0839 
    100 H100       24.7734  -29.4574  -41.1206 H         1 UNK         0.2998 
    101 H101       24.9608  -31.8215  -42.7470 H         1 UNK         0.0822 
    102 H102       22.5243  -30.1908  -41.8298 H         1 UNK         0.0787 
    103 H103       23.4538  -29.9032  -43.2998 H         1 UNK         0.0787 
    104 H104       22.5263  -31.3803  -43.1257 H         1 UNK         0.0787 
    105 H105       23.4180  -33.6170  -42.5870 H         1 UNK         0.3055 
    106 H106       23.7789  -35.1661  -40.2843 H         1 UNK         0.1106 
    107 H107       23.4530  -36.0995  -42.5637 H         1 UNK         0.0828 
    108 H108       22.2676  -36.7790  -41.4644 H         1 UNK         0.0828 
    109 H109       21.7861  -35.5195  -42.5919 H         1 UNK         0.0828 
    110 H110       21.3632  -32.7751  -40.7451 H         1 UNK         0.2931 
    111 H111       19.3310  -33.7687  -38.9961 H         1 UNK         0.0412 
    112 H112       22.2113  -32.2619  -36.5191 H         1 UNK         0.3472 
    113 H113       22.5317  -32.4447  -38.2293 H         1 UNK         0.3472 
    114 H114       19.9487  -30.8386  -39.5787 H         1 UNK         0.0970 
    115 H115       18.4445  -31.4888  -38.9848 H         1 UNK         0.0970 
    116 H116       18.3845  -29.5217  -41.4071 H         1 UNK         0.0612 
    117 H117       20.0242  -29.9672  -41.8187 H         1 UNK         0.0612 
@<TRIPOS>BOND
     1    1    2 1    
     2    1   62 1    
     3    1   63 1    
     4    1   64 1    
     5    2    3 2    
     6    2    4 am   BACKBONE|DICT|INTERRES
     7    4    5 1    
     8    4   65 1    
     9    5    6 1    
    10    5   25 1    
    11    5   66 1    
    12    6    7 1    
    13    6   67 1    
    14    6   68 1    
    15    7    8 1    
    16    8    9 1    
    17    8   69 1    
    18    8   70 1    
    19    9   10 ar   
    20    9   14 ar   
    21   10   11 ar   
    22   10   71 1    
    23   11   12 ar   
    24   11   61 1    
    25   12   13 ar   
    26   12   72 1    
    27   13   14 ar   
    28   13   15 1    
    29   14   73 1    
    30   15   16 1    
    31   15   74 1    
    32   15   75 1    
    33   16   17 1    
    34   17   18 1    
    35   17   76 1    
    36   17   77 1    
    37   18   19 1    
    38   18   27 1    
    39   18   78 1    
    40   19   20 am   BACKBONE|DICT|INTERRES
    41   19   79 1    
    42   20   21 2    
    43   20   22 1    
    44   22   23 1    
    45   22   24 1    
    46   22   80 1    
    47   23   81 1    
    48   23   82 1    
    49   23   83 1    
    50   24   25 am   BACKBONE|DICT|INTERRES
    51   24   84 1    
    52   25   26 2    
    53   27   28 2    
    54   27   29 am   BACKBONE|DICT|INTERRES
    55   29   30 1    
    56   29   85 1    
    57   30   31 1    
    58   30   32 1    
    59   30   86 1    
    60   31   87 1    
    61   31   88 1    
    62   31   89 1    
    63   32   33 2    
    64   32   34 am   BACKBONE|DICT|INTERRES
    65   34   35 1    
    66   34   90 1    
    67   35   36 1    
    68   35   37 1    
    69   35   91 1    
    70   36   92 1    
    71   36   93 1    
    72   36   94 1    
    73   37   38 2    
    74   37   39 am   BACKBONE|DICT|INTERRES
    75   39   40 1    
    76   39   95 1    
    77   40   41 1    
    78   40   42 1    
    79   40   96 1    
    80   41   97 1    
    81   41   98 1    
    82   41   99 1    
    83   42   43 2    
    84   42   44 am   BACKBONE|DICT|INTERRES
    85   44   45 1    
    86   44  100 1    
    87   45   46 1    
    88   45   47 1    
    89   45  101 1    
    90   46  102 1    
    91   46  103 1    
    92   46  104 1    
    93   47   48 2    
    94   47   49 am   BACKBONE|DICT|INTERRES
    95   49   50 1    
    96   49  105 1    
    97   50   51 1    
    98   50   52 1    
    99   50  106 1    
   100   51  107 1    
   101   51  108 1    
   102   51  109 1    
   103   52   53 2    
   104   52   54 am   BACKBONE|DICT|INTERRES
   105   54   55 1    
   106   54  110 1    
   107   55   56 1    
   108   55   59 1    
   109   55  111 1    
   110   56   57 am   BACKBONE|DICT|INTERRES
   111   56   58 2    
   112   57  112 1    
   113   57  113 1    
   114   59   60 1    
   115   59  114 1    
   116   59  115 1    
   117   60   61 1    
   118   61  116 1    
   119   61  117 1    
@<TRIPOS>SUBSTRUCTURE
     1 UNK         1 GROUP             0       ****    0 ROOT    
