@<TRIPOS>MOLECULE
3R8
117   119    1
SMALL
USER_CHARGES


@<TRIPOS>ATOM
      1 CA         12.1649  -23.9260  -48.3555 C.3       0 UNK        -0.2013 
      2 C          13.0891  -25.0114  -47.8240 C.2       0 UNK         0.4866 
      3 O          13.0512  -26.1416  -48.3113 O.2       0 UNK        -0.5176 
      4 N          13.9189  -24.6789  -46.8310 N.am      1 UNK        -0.4884 
      5 CA         14.9009  -25.5651  -46.2101 C.3       1 UNK         0.0853 
      6 C6         14.2500  -26.4908  -45.1468 C.3       10 UNK        -0.0849 
      7 S7         15.3182  -27.8920  -44.6684 S.3       10 UNK        -0.2776 
      8 C8         15.6970  -27.4682  -42.9297 C.3       10 UNK         0.0316 
      9 C9         16.7783  -28.3220  -42.2607 C.ar      10 UNK        -0.0863 
     10 C10        17.1971  -29.5592  -42.7726 C.ar      10 UNK        -0.1009 
     11 C11        18.2006  -30.2941  -42.1347 C.ar      10 UNK        -0.0712 
     12 C12        18.7766  -29.8001  -40.9638 C.ar      10 UNK        -0.0894 
     13 C13        18.3790  -28.5676  -40.4425 C.ar      10 UNK        -0.0745 
     14 C14        17.3734  -27.8406  -41.0881 C.ar      10 UNK        -0.0972 
     15 C15        19.0763  -28.0081  -39.2107 C.3       10 UNK         0.0209 
     16 S16        20.7856  -27.4906  -39.5848 S.3       10 UNK        -0.2568 
     17 C17        20.5157  -26.0833  -40.7130 C.3       10 UNK        -0.0983 
     18 CA         20.4811  -26.5010  -42.2063 C.3       3 UNK         0.0876 
     19 N          19.7254  -25.5308  -42.9990 N.am      3 UNK        -0.4424 
     20 C          19.1662  -25.7988  -44.1827 C.2       2 UNK         0.4918 
     21 O          19.2390  -26.8887  -44.7557 O.2       2 UNK        -0.4875 
     22 CA         18.3770  -24.6600  -44.8354 C.3       2 UNK         0.0481 
     23 CB         19.2343  -23.8998  -45.8611 C.3       2 UNK        -0.1831 
     24 N          17.2161  -25.2521  -45.4887 N.am      2 UNK        -0.4498 
     25 C          16.0160  -24.6815  -45.6226 C.2       1 UNK         0.5027 
     26 O          15.7642  -23.5188  -45.2904 O.2       1 UNK        -0.4969 
     27 C          21.8890  -26.7201  -42.7937 C.2       3 UNK         0.5005 
     28 O          22.5035  -25.7700  -43.2881 O.2       3 UNK        -0.5279 
     29 N          22.3712  -27.9668  -42.7230 N.am      4 UNK        -0.4463 
     30 CA         23.7084  -28.3708  -43.1559 C.3       4 UNK         0.0283 
     31 CB         23.7448  -29.9031  -43.2766 C.3       4 UNK        -0.1875 
     32 C          24.7882  -27.8922  -42.1735 C.2       4 UNK         0.4949 
     33 O          24.5181  -27.7597  -40.9786 O.2       4 UNK        -0.5039 
     34 N          26.0171  -27.7126  -42.6765 N.am      5 UNK        -0.4663 
     35 CA         27.1932  -27.3312  -41.8800 C.3       5 UNK         0.0242 
     36 CB         28.3686  -27.0262  -42.8225 C.3       5 UNK        -0.1982 
     37 C          27.6000  -28.3875  -40.8341 C.2       5 UNK         0.5017 
     38 O          28.1524  -28.0309  -39.7936 O.2       5 UNK        -0.5012 
     39 N          27.2877  -29.6584  -41.1196 N.am      6 UNK        -0.4439 
     40 CA         27.4576  -30.8022  -40.2210 C.3       6 UNK         0.0297 
     41 CB         27.7485  -32.0506  -41.0736 C.3       6 UNK        -0.2006 
     42 C          26.2359  -31.0404  -39.3087 C.2       6 UNK         0.4892 
     43 O          26.2111  -32.0553  -38.6107 O.2       6 UNK        -0.5089 
     44 N          25.2318  -30.1486  -39.3528 N.am      7 UNK        -0.4243 
     45 CA         23.9141  -30.2019  -38.7024 C.3       7 UNK         0.0196 
     46 CB         24.0183  -30.3078  -37.1682 C.3       7 UNK        -0.2007 
     47 C          22.9928  -31.2834  -39.2895 C.2       7 UNK         0.5020 
     48 O          21.8636  -30.9753  -39.6649 O.2       7 UNK        -0.5147 
     49 N          23.4867  -32.5216  -39.3899 N.am      8 UNK        -0.4734 
     50 CA         22.8283  -33.6181  -40.0957 C.3       8 UNK         0.0238 
     51 CB         23.4325  -34.9528  -39.6305 C.3       8 UNK        -0.1912 
     52 C          22.9985  -33.4432  -41.6129 C.2       8 UNK         0.5038 
     53 O          24.1184  -33.1995  -42.0690 O.2       8 UNK        -0.5046 
     54 N          21.8983  -33.5904  -42.3594 N.am      9 UNK        -0.4200 
     55 CA         21.8762  -33.5158  -43.8308 C.3       9 UNK         0.0839 
     56 C          22.3084  -34.8321  -44.5415 C.2       9 UNK         0.5513 
     57 N          22.5243  -35.9359  -43.8354 N.am      9 UNK        -0.7519 
     58 O          22.4592  -34.8495  -45.7604 O.2       9 UNK        -0.4960 
     59 C59        20.5073  -33.0138  -44.3622 C.3       10 UNK        -0.0876 
     60 S60        20.1228  -31.3189  -43.8062 S.3       10 UNK        -0.2414 
     61 C61        18.6904  -31.6061  -42.7243 C.3       10 UNK         0.0169 
     62 H62        12.3025  -22.9805  -47.8310 H         1 UNK         0.0903 
     63 H63        12.3549  -23.7568  -49.4151 H         1 UNK         0.0903 
     64 H64        11.1247  -24.2292  -48.2397 H         1 UNK         0.0903 
     65 H65        13.9577  -23.7280  -46.4813 H         1 UNK         0.3096 
     66 H66        15.3450  -26.1783  -46.9984 H         1 UNK         0.1121 
     67 H67        13.9409  -25.9223  -44.2674 H         1 UNK         0.0849 
     68 H68        13.3336  -26.9255  -45.5488 H         1 UNK         0.0849 
     69 H69        16.0052  -26.4220  -42.8929 H         1 UNK         0.0865 
     70 H70        14.7805  -27.5438  -42.3428 H         1 UNK         0.0865 
     71 H71        16.7613  -29.9558  -43.6782 H         1 UNK         0.1346 
     72 H72        19.5626  -30.3587  -40.4760 H         1 UNK         0.1412 
     73 H73        17.0684  -26.8832  -40.6874 H         1 UNK         0.1426 
     74 H74        18.5220  -27.1664  -38.7926 H         1 UNK         0.0716 
     75 H75        19.1032  -28.7744  -38.4346 H         1 UNK         0.0716 
     76 H76        19.5740  -25.6108  -40.4286 H         1 UNK         0.0695 
     77 H77        21.2869  -25.3320  -40.5319 H         1 UNK         0.0695 
     78 H78        19.9487  -27.4494  -42.2932 H         1 UNK         0.0983 
     79 H79        19.6649  -24.5957  -42.6241 H         1 UNK         0.3095 
     80 H80        18.0466  -23.9702  -44.0555 H         1 UNK         0.0454 
     81 H81        19.5822  -24.5561  -46.6598 H         1 UNK         0.0851 
     82 H82        18.6751  -23.0833  -46.3179 H         1 UNK         0.0851 
     83 H83        20.1157  -23.4652  -45.3880 H         1 UNK         0.0851 
     84 H84        17.3323  -26.2314  -45.7237 H         1 UNK         0.2976 
     85 H85        21.8229  -28.6692  -42.2464 H         1 UNK         0.3116 
     86 H86        23.9042  -27.9337  -44.1375 H         1 UNK         0.0646 
     87 H87        24.7228  -30.2547  -43.6071 H         1 UNK         0.0847 
     88 H88        23.0158  -30.2590  -44.0043 H         1 UNK         0.0847 
     89 H89        23.5294  -30.3891  -42.3240 H         1 UNK         0.0847 
     90 H90        26.1634  -27.8424  -43.6682 H         1 UNK         0.3040 
     91 H91        26.9442  -26.4179  -41.3346 H         1 UNK         0.1015 
     92 H92        28.1262  -26.2163  -43.5110 H         1 UNK         0.0786 
     93 H93        28.6509  -27.8983  -43.4138 H         1 UNK         0.0786 
     94 H94        29.2499  -26.7158  -42.2591 H         1 UNK         0.0786 
     95 H95        26.8397  -29.8431  -42.0055 H         1 UNK         0.3172 
     96 H96        28.3177  -30.6270  -39.5716 H         1 UNK         0.0595 
     97 H97        27.9605  -32.9161  -40.4443 H         1 UNK         0.0839 
     98 H98        28.6174  -31.9018  -41.7149 H         1 UNK         0.0839 
     99 H99        26.9006  -32.3123  -41.7087 H         1 UNK         0.0839 
    100 H100       25.3412  -29.3512  -39.9703 H         1 UNK         0.2998 
    101 H101       23.4438  -29.2426  -38.9258 H         1 UNK         0.0822 
    102 H102       24.6372  -29.5099  -36.7581 H         1 UNK         0.0787 
    103 H103       23.0324  -30.2223  -36.7096 H         1 UNK         0.0787 
    104 H104       24.4406  -31.2600  -36.8467 H         1 UNK         0.0787 
    105 H105       24.4501  -32.6632  -39.0987 H         1 UNK         0.3055 
    106 H106       21.7651  -33.6100  -39.8441 H         1 UNK         0.1106 
    107 H107       22.9473  -35.7957  -40.1239 H         1 UNK         0.0828 
    108 H108       24.4988  -35.0128  -39.8538 H         1 UNK         0.0828 
    109 H109       23.3076  -35.0914  -38.5564 H         1 UNK         0.0828 
    110 H110       21.0183  -33.7982  -41.9124 H         1 UNK         0.2931 
    111 H111       22.6195  -32.7756  -44.1340 H         1 UNK         0.0412 
    112 H112       22.8081  -36.7781  -44.3115 H         1 UNK         0.3472 
    113 H113       22.4096  -35.9364  -42.8352 H         1 UNK         0.3472 
    114 H114       19.7075  -33.6979  -44.0735 H         1 UNK         0.0970 
    115 H115       20.5043  -32.9955  -45.4539 H         1 UNK         0.0970 
    116 H116       18.9685  -32.2956  -41.9257 H         1 UNK         0.0612 
    117 H117       17.8932  -32.0871  -43.2931 H         1 UNK         0.0612 
@<TRIPOS>BOND
     1    1    2 1    
     2    1   62 1    
     3    1   63 1    
     4    1   64 1    
     5    2    3 2    
     6    2    4 am   BACKBONE|DICT|INTERRES
     7    4    5 1    
     8    4   65 1    
     9    5    6 1    
    10    5   25 1    
    11    5   66 1    
    12    6    7 1    
    13    6   67 1    
    14    6   68 1    
    15    7    8 1    
    16    8    9 1    
    17    8   69 1    
    18    8   70 1    
    19    9   10 ar   
    20    9   14 ar   
    21   10   11 ar   
    22   10   71 1    
    23   11   12 ar   
    24   11   61 1    
    25   12   13 ar   
    26   12   72 1    
    27   13   14 ar   
    28   13   15 1    
    29   14   73 1    
    30   15   16 1    
    31   15   74 1    
    32   15   75 1    
    33   16   17 1    
    34   17   18 1    
    35   17   76 1    
    36   17   77 1    
    37   18   19 1    
    38   18   27 1    
    39   18   78 1    
    40   19   20 am   BACKBONE|DICT|INTERRES
    41   19   79 1    
    42   20   21 2    
    43   20   22 1    
    44   22   23 1    
    45   22   24 1    
    46   22   80 1    
    47   23   81 1    
    48   23   82 1    
    49   23   83 1    
    50   24   25 am   BACKBONE|DICT|INTERRES
    51   24   84 1    
    52   25   26 2    
    53   27   28 2    
    54   27   29 am   BACKBONE|DICT|INTERRES
    55   29   30 1    
    56   29   85 1    
    57   30   31 1    
    58   30   32 1    
    59   30   86 1    
    60   31   87 1    
    61   31   88 1    
    62   31   89 1    
    63   32   33 2    
    64   32   34 am   BACKBONE|DICT|INTERRES
    65   34   35 1    
    66   34   90 1    
    67   35   36 1    
    68   35   37 1    
    69   35   91 1    
    70   36   92 1    
    71   36   93 1    
    72   36   94 1    
    73   37   38 2    
    74   37   39 am   BACKBONE|DICT|INTERRES
    75   39   40 1    
    76   39   95 1    
    77   40   41 1    
    78   40   42 1    
    79   40   96 1    
    80   41   97 1    
    81   41   98 1    
    82   41   99 1    
    83   42   43 2    
    84   42   44 am   BACKBONE|DICT|INTERRES
    85   44   45 1    
    86   44  100 1    
    87   45   46 1    
    88   45   47 1    
    89   45  101 1    
    90   46  102 1    
    91   46  103 1    
    92   46  104 1    
    93   47   48 2    
    94   47   49 am   BACKBONE|DICT|INTERRES
    95   49   50 1    
    96   49  105 1    
    97   50   51 1    
    98   50   52 1    
    99   50  106 1    
   100   51  107 1    
   101   51  108 1    
   102   51  109 1    
   103   52   53 2    
   104   52   54 am   BACKBONE|DICT|INTERRES
   105   54   55 1    
   106   54  110 1    
   107   55   56 1    
   108   55   59 1    
   109   55  111 1    
   110   56   57 am   BACKBONE|DICT|INTERRES
   111   56   58 2    
   112   57  112 1    
   113   57  113 1    
   114   59   60 1    
   115   59  114 1    
   116   59  115 1    
   117   60   61 1    
   118   61  116 1    
   119   61  117 1    
@<TRIPOS>SUBSTRUCTURE
     1 UNK         1 GROUP             0       ****    0 ROOT    
