@<TRIPOS>MOLECULE
3R8
117   119    1
SMALL
USER_CHARGES


@<TRIPOS>ATOM
      1 CA         16.8826  -28.1111  -41.6825 C.3       0 UNK        -0.2013 
      2 C          17.2329  -27.5203  -43.0381 C.2       0 UNK         0.4866 
      3 O          18.4036  -27.4921  -43.4118 O.2       0 UNK        -0.5176 
      4 N          16.2221  -27.0118  -43.7585 N.am      1 UNK        -0.4884 
      5 CA         16.2791  -26.5208  -45.1500 C.3       1 UNK         0.0853 
      6 C6         16.4926  -27.6577  -46.1878 C.3       10 UNK        -0.0849 
      7 S7         15.3637  -29.0804  -45.9609 S.3       10 UNK        -0.2776 
      8 C8         16.3767  -30.4831  -46.5411 C.3       10 UNK         0.0316 
      9 C9         17.6211  -30.6994  -45.6894 C.ar      10 UNK        -0.0863 
     10 C10        17.5393  -31.3653  -44.4629 C.ar      10 UNK        -0.1009 
     11 C11        18.6853  -31.5571  -43.6833 C.ar      10 UNK        -0.0712 
     12 C12        19.9137  -31.0513  -44.1231 C.ar      10 UNK        -0.0894 
     13 C13        20.0068  -30.3883  -45.3510 C.ar      10 UNK        -0.0745 
     14 C14        18.8621  -30.2393  -46.1373 C.ar      10 UNK        -0.0972 
     15 C15        21.3376  -29.8460  -45.8526 C.3       10 UNK         0.0209 
     16 S16        21.3192  -28.0296  -46.0036 S.3       10 UNK        -0.2568 
     17 C17        21.6855  -27.5379  -44.2913 C.3       10 UNK        -0.0983 
     18 CA         21.6895  -25.9963  -44.1223 C.3       3 UNK         0.0876 
     19 N          20.3435  -25.4158  -44.1488 N.am      3 UNK        -0.4424 
     20 C          20.0899  -24.1183  -44.3850 C.2       2 UNK         0.4918 
     21 O          20.9653  -23.3177  -44.7207 O.2       2 UNK        -0.4875 
     22 CA         18.6468  -23.6044  -44.1777 C.3       2 UNK         0.0481 
     23 CB         18.3126  -22.3877  -45.0676 C.3       2 UNK        -0.1831 
     24 N          17.6169  -24.6426  -44.2837 N.am      2 UNK        -0.4498 
     25 C          17.2858  -25.3620  -45.3672 C.2       1 UNK         0.5027 
     26 O          17.7486  -25.1546  -46.4905 O.2       1 UNK        -0.4969 
     27 C          22.3900  -25.5865  -42.8136 C.2       3 UNK         0.5005 
     28 O          22.2178  -26.2543  -41.7924 O.2       3 UNK        -0.5279 
     29 N          23.1853  -24.5076  -42.8644 N.am      4 UNK        -0.4463 
     30 CA         23.9725  -23.9830  -41.7392 C.3       4 UNK         0.0283 
     31 CB         24.6345  -22.6601  -42.1561 C.3       4 UNK        -0.1875 
     32 C          25.0295  -24.9673  -41.2005 C.2       4 UNK         0.4949 
     33 O          25.4044  -24.8746  -40.0320 O.2       4 UNK        -0.5039 
     34 N          25.4654  -25.9073  -42.0505 N.am      5 UNK        -0.4663 
     35 CA         26.3454  -27.0237  -41.6990 C.3       5 UNK         0.0242 
     36 CB         26.9664  -27.5842  -42.9900 C.3       5 UNK        -0.1982 
     37 C          25.6398  -28.1482  -40.9143 C.2       5 UNK         0.5017 
     38 O          26.3293  -29.0467  -40.4298 O.2       5 UNK        -0.5012 
     39 N          24.2992  -28.1127  -40.8270 N.am      6 UNK        -0.4439 
     40 CA         23.3872  -29.0630  -40.1721 C.3       6 UNK         0.0297 
     41 CB         23.7034  -29.2021  -38.6709 C.3       6 UNK        -0.2006 
     42 C          23.2925  -30.4352  -40.8663 C.2       6 UNK         0.4892 
     43 O          22.1830  -30.9265  -41.0744 O.2       6 UNK        -0.5089 
     44 N          24.4432  -31.0123  -41.2389 N.am      7 UNK        -0.4243 
     45 CA         24.6196  -32.2689  -41.9716 C.3       7 UNK         0.0196 
     46 CB         24.2104  -32.0800  -43.4511 C.3       7 UNK        -0.2007 
     47 C          23.9222  -33.4504  -41.2688 C.2       7 UNK         0.5020 
     48 O          24.3658  -33.8583  -40.1951 O.2       7 UNK        -0.5147 
     49 N          22.8533  -33.9767  -41.8791 N.am      8 UNK        -0.4734 
     50 CA         22.0571  -35.0964  -41.3716 C.3       8 UNK         0.0238 
     51 CB         21.3244  -35.7527  -42.5554 C.3       8 UNK        -0.1912 
     52 C          21.0608  -34.7156  -40.2581 C.2       8 UNK         0.5038 
     53 O          20.4448  -35.6202  -39.6918 O.2       8 UNK        -0.5046 
     54 N          20.8942  -33.4188  -39.9718 N.am      9 UNK        -0.4200 
     55 CA         19.9586  -32.8882  -38.9735 C.3       9 UNK         0.0839 
     56 C          20.6466  -31.8106  -38.0938 C.2       9 UNK         0.5513 
     57 N          20.0070  -30.6821  -37.8163 N.am      9 UNK        -0.7519 
     58 O          21.7481  -32.0280  -37.5944 O.2       9 UNK        -0.4960 
     59 C59        18.5788  -32.5166  -39.5918 C.3       10 UNK        -0.0876 
     60 S60        18.6503  -31.2679  -40.9245 S.3       10 UNK        -0.2414 
     61 C61        18.6058  -32.3459  -42.3863 C.3       10 UNK         0.0169 
     62 H62        16.0167  -27.6190  -41.2407 H         1 UNK         0.0903 
     63 H63        16.6594  -29.1720  -41.7899 H         1 UNK         0.0903 
     64 H64        17.7203  -28.0079  -40.9930 H         1 UNK         0.0903 
     65 H65        15.2901  -27.0510  -43.3688 H         1 UNK         0.3096 
     66 H66        15.2987  -26.0849  -45.3489 H         1 UNK         0.1121 
     67 H67        16.3498  -27.2826  -47.2029 H         1 UNK         0.0849 
     68 H68        17.5270  -27.9916  -46.1351 H         1 UNK         0.0849 
     69 H69        15.7667  -31.3876  -46.5268 H         1 UNK         0.0865 
     70 H70        16.6488  -30.3203  -47.5852 H         1 UNK         0.0865 
     71 H71        16.5842  -31.7388  -44.1199 H         1 UNK         0.1346 
     72 H72        20.7932  -31.1801  -43.5071 H         1 UNK         0.1412 
     73 H73        18.9366  -29.7317  -47.0895 H         1 UNK         0.1426 
     74 H74        21.5444  -30.2761  -46.8335 H         1 UNK         0.0716 
     75 H75        22.1597  -30.1530  -45.2046 H         1 UNK         0.0716 
     76 H76        22.6625  -27.9569  -44.0411 H         1 UNK         0.0695 
     77 H77        20.9710  -28.0094  -43.6140 H         1 UNK         0.0695 
     78 H78        22.2649  -25.5778  -44.9514 H         1 UNK         0.0983 
     79 H79        19.5871  -26.0427  -43.8827 H         1 UNK         0.3095 
     80 H80        18.6074  -23.2635  -43.1423 H         1 UNK         0.0454 
     81 H81        18.9770  -21.5504  -44.8510 H         1 UNK         0.0851 
     82 H82        18.4203  -22.6170  -46.1280 H         1 UNK         0.0851 
     83 H83        17.2934  -22.0399  -44.9003 H         1 UNK         0.0851 
     84 H84        17.1830  -24.9161  -43.4126 H         1 UNK         0.2976 
     85 H85        23.2252  -23.9824  -43.7282 H         1 UNK         0.3116 
     86 H86        23.2784  -23.7752  -40.9221 H         1 UNK         0.0646 
     87 H87        25.2018  -22.2300  -41.3293 H         1 UNK         0.0847 
     88 H88        23.8918  -21.9200  -42.4549 H         1 UNK         0.0847 
     89 H89        25.3265  -22.7983  -42.9879 H         1 UNK         0.0847 
     90 H90        25.1176  -25.8852  -42.9980 H         1 UNK         0.3040 
     91 H91        27.1502  -26.6452  -41.0646 H         1 UNK         0.1015 
     92 H92        27.5211  -26.8166  -43.5301 H         1 UNK         0.0786 
     93 H93        26.2077  -27.9879  -43.6619 H         1 UNK         0.0786 
     94 H94        27.6675  -28.3906  -42.7697 H         1 UNK         0.0786 
     95 H95        23.8193  -27.3342  -41.2696 H         1 UNK         0.3172 
     96 H96        22.3980  -28.6088  -40.2512 H         1 UNK         0.0595 
     97 H97        23.7699  -28.2276  -38.1872 H         1 UNK         0.0839 
     98 H98        24.6403  -29.7308  -38.4939 H         1 UNK         0.0839 
     99 H99        22.9188  -29.7592  -38.1619 H         1 UNK         0.0839 
    100 H100       25.2957  -30.5237  -40.9762 H         1 UNK         0.2998 
    101 H101       25.6876  -32.4912  -41.9513 H         1 UNK         0.0822 
    102 H102       24.8073  -31.2984  -43.9215 H         1 UNK         0.0787 
    103 H103       24.3728  -32.9926  -44.0264 H         1 UNK         0.0787 
    104 H104       23.1634  -31.7973  -43.5588 H         1 UNK         0.0787 
    105 H105       22.5490  -33.5586  -42.7462 H         1 UNK         0.3055 
    106 H106       22.7369  -35.8362  -40.9424 H         1 UNK         0.1106 
    107 H107       20.6329  -35.0624  -43.0392 H         1 UNK         0.0828 
    108 H108       22.0275  -36.1069  -43.3095 H         1 UNK         0.0828 
    109 H109       20.7449  -36.6173  -42.2285 H         1 UNK         0.0828 
    110 H110       21.4517  -32.7178  -40.4514 H         1 UNK         0.2931 
    111 H111       19.7513  -33.6809  -38.2523 H         1 UNK         0.0412 
    112 H112       20.4446  -30.0012  -37.2165 H         1 UNK         0.3472 
    113 H113       19.1152  -30.4816  -38.2409 H         1 UNK         0.3472 
    114 H114       17.8986  -32.1591  -38.8173 H         1 UNK         0.0970 
    115 H115       18.1066  -33.4207  -39.9787 H         1 UNK         0.0970 
    116 H116       19.4397  -33.0458  -42.3434 H         1 UNK         0.0612 
    117 H117       17.6957  -32.9472  -42.3619 H         1 UNK         0.0612 
@<TRIPOS>BOND
     1    1    2 1    
     2    1   62 1    
     3    1   63 1    
     4    1   64 1    
     5    2    3 2    
     6    2    4 am   BACKBONE|DICT|INTERRES
     7    4    5 1    
     8    4   65 1    
     9    5    6 1    
    10    5   25 1    
    11    5   66 1    
    12    6    7 1    
    13    6   67 1    
    14    6   68 1    
    15    7    8 1    
    16    8    9 1    
    17    8   69 1    
    18    8   70 1    
    19    9   10 ar   
    20    9   14 ar   
    21   10   11 ar   
    22   10   71 1    
    23   11   12 ar   
    24   11   61 1    
    25   12   13 ar   
    26   12   72 1    
    27   13   14 ar   
    28   13   15 1    
    29   14   73 1    
    30   15   16 1    
    31   15   74 1    
    32   15   75 1    
    33   16   17 1    
    34   17   18 1    
    35   17   76 1    
    36   17   77 1    
    37   18   19 1    
    38   18   27 1    
    39   18   78 1    
    40   19   20 am   BACKBONE|DICT|INTERRES
    41   19   79 1    
    42   20   21 2    
    43   20   22 1    
    44   22   23 1    
    45   22   24 1    
    46   22   80 1    
    47   23   81 1    
    48   23   82 1    
    49   23   83 1    
    50   24   25 am   BACKBONE|DICT|INTERRES
    51   24   84 1    
    52   25   26 2    
    53   27   28 2    
    54   27   29 am   BACKBONE|DICT|INTERRES
    55   29   30 1    
    56   29   85 1    
    57   30   31 1    
    58   30   32 1    
    59   30   86 1    
    60   31   87 1    
    61   31   88 1    
    62   31   89 1    
    63   32   33 2    
    64   32   34 am   BACKBONE|DICT|INTERRES
    65   34   35 1    
    66   34   90 1    
    67   35   36 1    
    68   35   37 1    
    69   35   91 1    
    70   36   92 1    
    71   36   93 1    
    72   36   94 1    
    73   37   38 2    
    74   37   39 am   BACKBONE|DICT|INTERRES
    75   39   40 1    
    76   39   95 1    
    77   40   41 1    
    78   40   42 1    
    79   40   96 1    
    80   41   97 1    
    81   41   98 1    
    82   41   99 1    
    83   42   43 2    
    84   42   44 am   BACKBONE|DICT|INTERRES
    85   44   45 1    
    86   44  100 1    
    87   45   46 1    
    88   45   47 1    
    89   45  101 1    
    90   46  102 1    
    91   46  103 1    
    92   46  104 1    
    93   47   48 2    
    94   47   49 am   BACKBONE|DICT|INTERRES
    95   49   50 1    
    96   49  105 1    
    97   50   51 1    
    98   50   52 1    
    99   50  106 1    
   100   51  107 1    
   101   51  108 1    
   102   51  109 1    
   103   52   53 2    
   104   52   54 am   BACKBONE|DICT|INTERRES
   105   54   55 1    
   106   54  110 1    
   107   55   56 1    
   108   55   59 1    
   109   55  111 1    
   110   56   57 am   BACKBONE|DICT|INTERRES
   111   56   58 2    
   112   57  112 1    
   113   57  113 1    
   114   59   60 1    
   115   59  114 1    
   116   59  115 1    
   117   60   61 1    
   118   61  116 1    
   119   61  117 1    
@<TRIPOS>SUBSTRUCTURE
     1 UNK         1 GROUP             0       ****    0 ROOT    
