@<TRIPOS>MOLECULE
3R8
117   119    1
SMALL
USER_CHARGES


@<TRIPOS>ATOM
      1 CA         19.8193  -26.3800  -50.8480 C.3       0 UNK        -0.2013 
      2 C          20.3781  -26.8070  -49.4989 C.2       0 UNK         0.4866 
      3 O          21.3531  -27.5575  -49.4485 O.2       0 UNK        -0.5176 
      4 N          19.7730  -26.3324  -48.4071 N.am      1 UNK        -0.4884 
      5 CA         20.1623  -26.6184  -47.0273 C.3       1 UNK         0.0853 
      6 C6         19.7213  -28.0333  -46.5496 C.3       10 UNK        -0.0849 
      7 S7         17.9198  -28.3280  -46.6429 S.3       10 UNK        -0.2776 
      8 C8         17.7819  -29.9731  -45.8771 C.3       10 UNK         0.0316 
      9 C9         17.8513  -29.9234  -44.3556 C.ar      10 UNK        -0.0863 
     10 C10        18.9507  -30.4590  -43.6776 C.ar      10 UNK        -0.1009 
     11 C11        18.9699  -30.5042  -42.2794 C.ar      10 UNK        -0.0712 
     12 C12        17.8880  -29.9889  -41.5595 C.ar      10 UNK        -0.0894 
     13 C13        16.8067  -29.4030  -42.2237 C.ar      10 UNK        -0.0745 
     14 C14        16.7881  -29.3868  -43.6220 C.ar      10 UNK        -0.0972 
     15 C15        15.6514  -28.7988  -41.4365 C.3       10 UNK         0.0209 
     16 S16        15.7306  -26.9771  -41.4043 S.3       10 UNK        -0.2568 
     17 C17        16.9741  -26.6453  -40.1064 C.3       10 UNK        -0.0983 
     18 CA         18.4220  -26.5779  -40.6494 C.3       3 UNK         0.0876 
     19 N          18.5739  -25.6446  -41.7681 N.am      3 UNK        -0.4424 
     20 C          19.6566  -25.5982  -42.5510 C.2       2 UNK         0.4918 
     21 O          20.6737  -26.2733  -42.3645 O.2       2 UNK        -0.4875 
     22 CA         19.5871  -24.6835  -43.7747 C.3       2 UNK         0.0481 
     23 CB         20.4167  -23.4047  -43.5806 C.3       2 UNK        -0.1831 
     24 N          20.1177  -25.4637  -44.8834 N.am      2 UNK        -0.4498 
     25 C          19.6199  -25.4992  -46.1211 C.2       1 UNK         0.5027 
     26 O          18.7575  -24.7217  -46.5432 O.2       1 UNK        -0.4969 
     27 C          19.4404  -26.2899  -39.5297 C.2       3 UNK         0.5005 
     28 O          19.7667  -25.1261  -39.2811 O.2       3 UNK        -0.5279 
     29 N          19.9623  -27.3633  -38.9180 N.am      4 UNK        -0.4463 
     30 CA         21.0785  -27.4216  -37.9613 C.3       4 UNK         0.0283 
     31 CB         20.8155  -26.5757  -36.7000 C.3       4 UNK        -0.1875 
     32 C          22.4468  -27.0898  -38.5865 C.2       4 UNK         0.4949 
     33 O          23.4062  -27.8205  -38.3431 O.2       4 UNK        -0.5039 
     34 N          22.5151  -26.0341  -39.4085 N.am      5 UNK        -0.4663 
     35 CA         23.7086  -25.5971  -40.1417 C.3       5 UNK         0.0242 
     36 CB         23.4119  -24.2646  -40.8451 C.3       5 UNK        -0.1982 
     37 C          24.2268  -26.6417  -41.1466 C.2       5 UNK         0.5017 
     38 O          25.4402  -26.7857  -41.2952 O.2       5 UNK        -0.5012 
     39 N          23.3036  -27.3810  -41.7783 N.am      6 UNK        -0.4439 
     40 CA         23.5844  -28.5210  -42.6577 C.3       6 UNK         0.0297 
     41 CB         22.3712  -28.7637  -43.5724 C.3       6 UNK        -0.2006 
     42 C          24.0255  -29.8075  -41.9225 C.2       6 UNK         0.4892 
     43 O          24.3053  -30.8014  -42.5951 O.2       6 UNK        -0.5089 
     44 N          24.1041  -29.7717  -40.5815 N.am      7 UNK        -0.4243 
     45 CA         24.6800  -30.7786  -39.6825 C.3       7 UNK         0.0196 
     46 CB         26.2208  -30.7734  -39.8026 C.3       7 UNK        -0.2007 
     47 C          24.0563  -32.1759  -39.8478 C.2       7 UNK         0.5020 
     48 O          22.9800  -32.4221  -39.3053 O.2       7 UNK        -0.5147 
     49 N          24.7439  -33.0616  -40.5818 N.am      8 UNK        -0.4734 
     50 CA         24.3181  -34.4312  -40.8858 C.3       8 UNK         0.0238 
     51 CB         25.5336  -35.2277  -41.3897 C.3       8 UNK        -0.1912 
     52 C          23.1565  -34.5207  -41.8945 C.2       8 UNK         0.5038 
     53 O          22.5816  -35.6008  -42.0373 O.2       8 UNK        -0.5046 
     54 N          22.8375  -33.4074  -42.5699 N.am      9 UNK        -0.4200 
     55 CA         21.7328  -33.2560  -43.5327 C.3       9 UNK         0.0839 
     56 C          21.9727  -33.9454  -44.9088 C.2       9 UNK         0.5513 
     57 N          23.1877  -34.3702  -45.2344 N.am      9 UNK        -0.7519 
     58 O          21.0504  -34.0698  -45.7104 O.2       9 UNK        -0.4960 
     59 C59        20.3243  -33.5871  -42.9426 C.3       10 UNK        -0.0876 
     60 S60        19.9695  -32.8933  -41.2861 S.3       10 UNK        -0.2414 
     61 C61        20.1562  -31.1032  -41.5383 C.3       10 UNK         0.0169 
     62 H62        18.9590  -25.7192  -50.7420 H         1 UNK         0.0903 
     63 H63        20.5824  -25.8544  -51.4214 H         1 UNK         0.0903 
     64 H64        19.5063  -27.2546  -51.4177 H         1 UNK         0.0903 
     65 H65        18.9957  -25.6860  -48.4778 H         1 UNK         0.3096 
     66 H66        21.2521  -26.5599  -46.9721 H         1 UNK         0.1121 
     67 H67        20.0491  -28.2123  -45.5244 H         1 UNK         0.0849 
     68 H68        20.2211  -28.7932  -47.1521 H         1 UNK         0.0849 
     69 H69        16.8271  -30.4127  -46.1694 H         1 UNK         0.0865 
     70 H70        18.5512  -30.6312  -46.2844 H         1 UNK         0.0865 
     71 H71        19.7802  -30.8644  -44.2392 H         1 UNK         0.1346 
     72 H72        17.8960  -30.0283  -40.4789 H         1 UNK         0.1412 
     73 H73        15.9425  -28.9565  -44.1417 H         1 UNK         0.1426 
     74 H74        15.6228  -29.1883  -40.4178 H         1 UNK         0.0716 
     75 H75        14.7100  -29.0978  -41.8999 H         1 UNK         0.0716 
     76 H76        16.8878  -27.4091  -39.3314 H         1 UNK         0.0695 
     77 H77        16.7081  -25.7003  -39.6288 H         1 UNK         0.0695 
     78 H78        18.6732  -27.5560  -41.0557 H         1 UNK         0.0983 
     79 H79        17.7773  -25.0609  -41.9752 H         1 UNK         0.3095 
     80 H80        18.5441  -24.4168  -43.9598 H         1 UNK         0.0454 
     81 H81        21.4785  -23.6246  -43.4712 H         1 UNK         0.0851 
     82 H82        20.0979  -22.8607  -42.6907 H         1 UNK         0.0851 
     83 H83        20.3044  -22.7325  -44.4312 H         1 UNK         0.0851 
     84 H84        20.8008  -26.1531  -44.5974 H         1 UNK         0.2976 
     85 H85        19.6224  -28.2701  -39.2058 H         1 UNK         0.3116 
     86 H86        21.1300  -28.4641  -37.6423 H         1 UNK         0.0646 
     87 H87        20.8013  -25.5069  -36.9142 H         1 UNK         0.0847 
     88 H88        21.5949  -26.7418  -35.9553 H         1 UNK         0.0847 
     89 H89        19.8644  -26.8381  -36.2370 H         1 UNK         0.0847 
     90 H90        21.6633  -25.4949  -39.5399 H         1 UNK         0.3040 
     91 H91        24.5023  -25.4302  -39.4102 H         1 UNK         0.1015 
     92 H92        22.5870  -24.3622  -41.5499 H         1 UNK         0.0786 
     93 H93        24.2810  -23.9120  -41.4024 H         1 UNK         0.0786 
     94 H94        23.1490  -23.4870  -40.1277 H         1 UNK         0.0786 
     95 H95        22.3272  -27.1222  -41.6665 H         1 UNK         0.3172 
     96 H96        24.4230  -28.2478  -43.3013 H         1 UNK         0.0595 
     97 H97        21.4456  -28.8499  -43.0049 H         1 UNK         0.0839 
     98 H98        22.4857  -29.6714  -44.1663 H         1 UNK         0.0839 
     99 H99        22.2487  -27.9388  -44.2732 H         1 UNK         0.0839 
    100 H100       23.8135  -28.9197  -40.1161 H         1 UNK         0.2998 
    101 H101       24.4336  -30.4574  -38.6691 H         1 UNK         0.0822 
    102 H102       26.6271  -29.8030  -39.5163 H         1 UNK         0.0787 
    103 H103       26.6712  -31.5152  -39.1413 H         1 UNK         0.0787 
    104 H104       26.5608  -30.9808  -40.8178 H         1 UNK         0.0787 
    105 H105       25.6025  -32.7478  -41.0118 H         1 UNK         0.3055 
    106 H106       23.9661  -34.8898  -39.9589 H         1 UNK         0.1106 
    107 H107       25.2650  -36.2653  -41.5934 H         1 UNK         0.0828 
    108 H108       25.9374  -34.8091  -42.3123 H         1 UNK         0.0828 
    109 H109       26.3332  -35.2437  -40.6487 H         1 UNK         0.0828 
    110 H110       23.4000  -32.5757  -42.4190 H         1 UNK         0.2931 
    111 H111       21.7370  -32.1954  -43.7798 H         1 UNK         0.0412 
    112 H112       23.3361  -34.8052  -46.1316 H         1 UNK         0.3472 
    113 H113       23.9556  -34.2591  -44.5921 H         1 UNK         0.3472 
    114 H114       20.2007  -34.6688  -42.8689 H         1 UNK         0.0970 
    115 H115       19.5395  -33.2551  -43.6236 H         1 UNK         0.0970 
    116 H116       21.0894  -30.8995  -42.0586 H         1 UNK         0.0612 
    117 H117       20.2584  -30.6300  -40.5608 H         1 UNK         0.0612 
@<TRIPOS>BOND
     1    1    2 1    
     2    1   62 1    
     3    1   63 1    
     4    1   64 1    
     5    2    3 2    
     6    2    4 am   BACKBONE|DICT|INTERRES
     7    4    5 1    
     8    4   65 1    
     9    5    6 1    
    10    5   25 1    
    11    5   66 1    
    12    6    7 1    
    13    6   67 1    
    14    6   68 1    
    15    7    8 1    
    16    8    9 1    
    17    8   69 1    
    18    8   70 1    
    19    9   10 ar   
    20    9   14 ar   
    21   10   11 ar   
    22   10   71 1    
    23   11   12 ar   
    24   11   61 1    
    25   12   13 ar   
    26   12   72 1    
    27   13   14 ar   
    28   13   15 1    
    29   14   73 1    
    30   15   16 1    
    31   15   74 1    
    32   15   75 1    
    33   16   17 1    
    34   17   18 1    
    35   17   76 1    
    36   17   77 1    
    37   18   19 1    
    38   18   27 1    
    39   18   78 1    
    40   19   20 am   BACKBONE|DICT|INTERRES
    41   19   79 1    
    42   20   21 2    
    43   20   22 1    
    44   22   23 1    
    45   22   24 1    
    46   22   80 1    
    47   23   81 1    
    48   23   82 1    
    49   23   83 1    
    50   24   25 am   BACKBONE|DICT|INTERRES
    51   24   84 1    
    52   25   26 2    
    53   27   28 2    
    54   27   29 am   BACKBONE|DICT|INTERRES
    55   29   30 1    
    56   29   85 1    
    57   30   31 1    
    58   30   32 1    
    59   30   86 1    
    60   31   87 1    
    61   31   88 1    
    62   31   89 1    
    63   32   33 2    
    64   32   34 am   BACKBONE|DICT|INTERRES
    65   34   35 1    
    66   34   90 1    
    67   35   36 1    
    68   35   37 1    
    69   35   91 1    
    70   36   92 1    
    71   36   93 1    
    72   36   94 1    
    73   37   38 2    
    74   37   39 am   BACKBONE|DICT|INTERRES
    75   39   40 1    
    76   39   95 1    
    77   40   41 1    
    78   40   42 1    
    79   40   96 1    
    80   41   97 1    
    81   41   98 1    
    82   41   99 1    
    83   42   43 2    
    84   42   44 am   BACKBONE|DICT|INTERRES
    85   44   45 1    
    86   44  100 1    
    87   45   46 1    
    88   45   47 1    
    89   45  101 1    
    90   46  102 1    
    91   46  103 1    
    92   46  104 1    
    93   47   48 2    
    94   47   49 am   BACKBONE|DICT|INTERRES
    95   49   50 1    
    96   49  105 1    
    97   50   51 1    
    98   50   52 1    
    99   50  106 1    
   100   51  107 1    
   101   51  108 1    
   102   51  109 1    
   103   52   53 2    
   104   52   54 am   BACKBONE|DICT|INTERRES
   105   54   55 1    
   106   54  110 1    
   107   55   56 1    
   108   55   59 1    
   109   55  111 1    
   110   56   57 am   BACKBONE|DICT|INTERRES
   111   56   58 2    
   112   57  112 1    
   113   57  113 1    
   114   59   60 1    
   115   59  114 1    
   116   59  115 1    
   117   60   61 1    
   118   61  116 1    
   119   61  117 1    
@<TRIPOS>SUBSTRUCTURE
     1 UNK         1 GROUP             0       ****    0 ROOT    
