@<TRIPOS>MOLECULE
3R8
117   119    1
SMALL
USER_CHARGES


@<TRIPOS>ATOM
      1 CA         19.5633  -23.4354  -40.3996 C.3       0 UNK        -0.2013 
      2 C          18.9804  -24.0602  -41.6585 C.2       0 UNK         0.4866 
      3 O          18.4009  -23.3525  -42.4831 O.2       0 UNK        -0.5176 
      4 N          19.1262  -25.3809  -41.8111 N.am      1 UNK        -0.4884 
      5 CA         18.7053  -26.1388  -42.9924 C.3       1 UNK         0.0853 
      6 C6         18.6711  -27.6552  -42.6936 C.3       10 UNK        -0.0849 
      7 S7         17.1833  -28.1336  -41.7505 S.3       10 UNK        -0.2776 
      8 C8         16.0330  -28.7335  -43.0377 C.3       10 UNK         0.0316 
      9 C9         16.6416  -29.7944  -43.9487 C.ar      10 UNK        -0.0863 
     10 C10        16.7909  -31.1164  -43.5145 C.ar      10 UNK        -0.1009 
     11 C11        17.3567  -32.0790  -44.3580 C.ar      10 UNK        -0.0712 
     12 C12        17.7717  -31.7100  -45.6415 C.ar      10 UNK        -0.0894 
     13 C13        17.6381  -30.3894  -46.0845 C.ar      10 UNK        -0.0745 
     14 C14        17.0538  -29.4444  -45.2382 C.ar      10 UNK        -0.0972 
     15 C15        18.0992  -29.9615  -47.4754 C.3       10 UNK         0.0209 
     16 S16        19.6968  -30.6713  -48.0041 S.3       10 UNK        -0.2568 
     17 C17        20.8359  -30.2618  -46.6375 C.3       10 UNK        -0.0983 
     18 CA         21.5600  -28.9085  -46.8448 C.3       3 UNK         0.0876 
     19 N          20.6756  -27.7765  -46.5708 N.am      3 UNK        -0.4424 
     20 C          20.8775  -26.5282  -47.0106 C.2       2 UNK         0.4918 
     21 O          21.8429  -26.1894  -47.6954 O.2       2 UNK        -0.4875 
     22 CA         19.8172  -25.4745  -46.6323 C.3       2 UNK         0.0481 
     23 CB         18.8147  -25.2956  -47.7838 C.3       2 UNK        -0.1831 
     24 N          19.0815  -25.7590  -45.3927 N.am      2 UNK        -0.4498 
     25 C          19.6443  -25.8532  -44.1798 C.2       1 UNK         0.5027 
     26 O          20.8596  -25.7831  -43.9925 O.2       1 UNK        -0.4969 
     27 C          22.8608  -28.8666  -46.0167 C.2       3 UNK         0.5005 
     28 O          23.9107  -29.2195  -46.5580 O.2       3 UNK        -0.5279 
     29 N          22.7830  -28.4990  -44.7269 N.am      4 UNK        -0.4463 
     30 CA         23.8820  -28.7206  -43.7761 C.3       4 UNK         0.0283 
     31 CB         23.8562  -30.1914  -43.3069 C.3       4 UNK        -0.1875 
     32 C          23.9050  -27.7670  -42.5705 C.2       4 UNK         0.4949 
     33 O          24.6752  -28.0249  -41.6449 O.2       4 UNK        -0.5039 
     34 N          23.0834  -26.7066  -42.5592 N.am      5 UNK        -0.4663 
     35 CA         22.8763  -25.7713  -41.4440 C.3       5 UNK         0.0242 
     36 CB         24.1387  -24.9228  -41.1686 C.3       5 UNK        -0.1982 
     37 C          22.3324  -26.5011  -40.2030 C.2       5 UNK         0.5017 
     38 O          21.1173  -26.6715  -40.0945 O.2       5 UNK        -0.5012 
     39 N          23.2393  -26.9379  -39.3224 N.am      6 UNK        -0.4439 
     40 CA         22.9656  -27.7885  -38.1649 C.3       6 UNK         0.0297 
     41 CB         22.8224  -26.9088  -36.9085 C.3       6 UNK        -0.2006 
     42 C          24.0370  -28.8852  -37.9930 C.2       6 UNK         0.4892 
     43 O          24.1109  -29.4819  -36.9179 O.2       6 UNK        -0.5089 
     44 N          24.8564  -29.1393  -39.0278 N.am      7 UNK        -0.4243 
     45 CA         25.9092  -30.1638  -39.0163 C.3       7 UNK         0.0196 
     46 CB         26.9893  -29.7934  -40.0463 C.3       7 UNK        -0.2007 
     47 C          25.3742  -31.5822  -39.2866 C.2       7 UNK         0.5020 
     48 O          26.0632  -32.5546  -38.9765 O.2       7 UNK        -0.5147 
     49 N          24.1666  -31.6786  -39.8513 N.am      8 UNK        -0.4734 
     50 CA         23.4216  -32.9154  -40.0746 C.3       8 UNK         0.0238 
     51 CB         23.6924  -33.4515  -41.4967 C.3       8 UNK        -0.1912 
     52 C          21.9438  -32.6285  -39.7662 C.2       8 UNK         0.5038 
     53 O          21.6676  -31.9306  -38.7872 O.2       8 UNK        -0.5046 
     54 N          21.0209  -33.1520  -40.5833 N.am      9 UNK        -0.4200 
     55 CA         19.5859  -32.8454  -40.5024 C.3       9 UNK         0.0839 
     56 C          19.2587  -31.3571  -40.8038 C.2       9 UNK         0.5513 
     57 N          18.1622  -30.8554  -40.2540 N.am      9 UNK        -0.7519 
     58 O          19.9689  -30.6726  -41.5378 O.2       9 UNK        -0.4960 
     59 C59        18.7292  -33.8208  -41.3520 C.3       10 UNK        -0.0876 
     60 S60        19.1273  -33.8462  -43.1382 S.3       10 UNK        -0.2414 
     61 C61        17.5042  -33.5255  -43.9067 C.3       10 UNK         0.0169 
     62 H62        19.9250  -24.1894  -39.7007 H         1 UNK         0.0903 
     63 H63        20.3959  -22.7811  -40.6565 H         1 UNK         0.0903 
     64 H64        18.8059  -22.8405  -39.8898 H         1 UNK         0.0903 
     65 H65        19.6541  -25.9084  -41.1200 H         1 UNK         0.3096 
     66 H66        17.7022  -25.8072  -43.2709 H         1 UNK         0.1121 
     67 H67        19.5485  -27.9481  -42.1129 H         1 UNK         0.0849 
     68 H68        18.7369  -28.2505  -43.6018 H         1 UNK         0.0849 
     69 H69        15.1468  -29.1433  -42.5510 H         1 UNK         0.0865 
     70 H70        15.6842  -27.8811  -43.6226 H         1 UNK         0.0865 
     71 H71        16.4723  -31.3931  -42.5190 H         1 UNK         0.1346 
     72 H72        18.2092  -32.4531  -46.2940 H         1 UNK         0.1412 
     73 H73        16.9301  -28.4257  -45.5790 H         1 UNK         0.1426 
     74 H74        17.3359  -30.2557  -48.1968 H         1 UNK         0.0716 
     75 H75        18.1731  -28.8752  -47.5387 H         1 UNK         0.0716 
     76 H76        21.5567  -31.0817  -46.6023 H         1 UNK         0.0695 
     77 H77        20.3191  -30.2894  -45.6770 H         1 UNK         0.0695 
     78 H78        21.8651  -28.8472  -47.8925 H         1 UNK         0.0983 
     79 H79        19.8478  -27.9690  -46.0300 H         1 UNK         0.3095 
     80 H80        20.3415  -24.5272  -46.4898 H         1 UNK         0.0454 
     81 H81        18.2325  -26.2009  -47.9594 H         1 UNK         0.0851 
     82 H82        19.3290  -25.0548  -48.7155 H         1 UNK         0.0851 
     83 H83        18.1190  -24.4807  -47.5834 H         1 UNK         0.0851 
     84 H84        18.0767  -25.8226  -45.4731 H         1 UNK         0.2976 
     85 H85        21.8964  -28.1978  -44.3482 H         1 UNK         0.3116 
     86 H86        24.8309  -28.5440  -44.2869 H         1 UNK         0.0646 
     87 H87        23.9344  -30.8835  -44.1452 H         1 UNK         0.0847 
     88 H88        22.9342  -30.4183  -42.7698 H         1 UNK         0.0847 
     89 H89        24.6886  -30.4154  -42.6387 H         1 UNK         0.0847 
     90 H90        22.4648  -26.5400  -43.3482 H         1 UNK         0.3040 
     91 H91        22.0931  -25.0802  -41.7581 H         1 UNK         0.1015 
     92 H92        25.0146  -25.5248  -40.9276 H         1 UNK         0.0786 
     93 H93        23.9730  -24.2366  -40.3369 H         1 UNK         0.0786 
     94 H94        24.3920  -24.3154  -42.0375 H         1 UNK         0.0786 
     95 H95        24.2132  -26.7588  -39.5268 H         1 UNK         0.3172 
     96 H96        22.0236  -28.3185  -38.3216 H         1 UNK         0.0595 
     97 H97        23.7485  -26.3795  -36.6817 H         1 UNK         0.0839 
     98 H98        22.5640  -27.5075  -36.0341 H         1 UNK         0.0839 
     99 H99        22.0334  -26.1669  -37.0328 H         1 UNK         0.0839 
    100 H100       24.7254  -28.6505  -39.9118 H         1 UNK         0.2998 
    101 H101       26.3764  -30.1741  -38.0291 H         1 UNK         0.0822 
    102 H102       27.3936  -28.7986  -39.8586 H         1 UNK         0.0787 
    103 H103       27.8232  -30.4954  -40.0056 H         1 UNK         0.0787 
    104 H104       26.6007  -29.8107  -41.0649 H         1 UNK         0.0787 
    105 H105       23.6463  -30.8255  -40.0023 H         1 UNK         0.3055 
    106 H106       23.7446  -33.6683  -39.3519 H         1 UNK         0.1106 
    107 H107       23.2836  -32.7975  -42.2665 H         1 UNK         0.0828 
    108 H108       23.2568  -34.4416  -41.6356 H         1 UNK         0.0828 
    109 H109       24.7622  -33.5503  -41.6818 H         1 UNK         0.0828 
    110 H110       21.3151  -33.6802  -41.3910 H         1 UNK         0.2931 
    111 H111       19.3044  -33.0173  -39.4610 H         1 UNK         0.0412 
    112 H112       17.9133  -29.9009  -40.4730 H         1 UNK         0.3472 
    113 H113       17.5792  -31.4023  -39.6409 H         1 UNK         0.3472 
    114 H114       17.6705  -33.6021  -41.2060 H         1 UNK         0.0970 
    115 H115       18.8624  -34.8354  -40.9740 H         1 UNK         0.0970 
    116 H116       16.6917  -33.8000  -43.2329 H         1 UNK         0.0612 
    117 H117       17.4021  -34.1851  -44.7698 H         1 UNK         0.0612 
@<TRIPOS>BOND
     1    1    2 1    
     2    1   62 1    
     3    1   63 1    
     4    1   64 1    
     5    2    3 2    
     6    2    4 am   BACKBONE|DICT|INTERRES
     7    4    5 1    
     8    4   65 1    
     9    5    6 1    
    10    5   25 1    
    11    5   66 1    
    12    6    7 1    
    13    6   67 1    
    14    6   68 1    
    15    7    8 1    
    16    8    9 1    
    17    8   69 1    
    18    8   70 1    
    19    9   10 ar   
    20    9   14 ar   
    21   10   11 ar   
    22   10   71 1    
    23   11   12 ar   
    24   11   61 1    
    25   12   13 ar   
    26   12   72 1    
    27   13   14 ar   
    28   13   15 1    
    29   14   73 1    
    30   15   16 1    
    31   15   74 1    
    32   15   75 1    
    33   16   17 1    
    34   17   18 1    
    35   17   76 1    
    36   17   77 1    
    37   18   19 1    
    38   18   27 1    
    39   18   78 1    
    40   19   20 am   BACKBONE|DICT|INTERRES
    41   19   79 1    
    42   20   21 2    
    43   20   22 1    
    44   22   23 1    
    45   22   24 1    
    46   22   80 1    
    47   23   81 1    
    48   23   82 1    
    49   23   83 1    
    50   24   25 am   BACKBONE|DICT|INTERRES
    51   24   84 1    
    52   25   26 2    
    53   27   28 2    
    54   27   29 am   BACKBONE|DICT|INTERRES
    55   29   30 1    
    56   29   85 1    
    57   30   31 1    
    58   30   32 1    
    59   30   86 1    
    60   31   87 1    
    61   31   88 1    
    62   31   89 1    
    63   32   33 2    
    64   32   34 am   BACKBONE|DICT|INTERRES
    65   34   35 1    
    66   34   90 1    
    67   35   36 1    
    68   35   37 1    
    69   35   91 1    
    70   36   92 1    
    71   36   93 1    
    72   36   94 1    
    73   37   38 2    
    74   37   39 am   BACKBONE|DICT|INTERRES
    75   39   40 1    
    76   39   95 1    
    77   40   41 1    
    78   40   42 1    
    79   40   96 1    
    80   41   97 1    
    81   41   98 1    
    82   41   99 1    
    83   42   43 2    
    84   42   44 am   BACKBONE|DICT|INTERRES
    85   44   45 1    
    86   44  100 1    
    87   45   46 1    
    88   45   47 1    
    89   45  101 1    
    90   46  102 1    
    91   46  103 1    
    92   46  104 1    
    93   47   48 2    
    94   47   49 am   BACKBONE|DICT|INTERRES
    95   49   50 1    
    96   49  105 1    
    97   50   51 1    
    98   50   52 1    
    99   50  106 1    
   100   51  107 1    
   101   51  108 1    
   102   51  109 1    
   103   52   53 2    
   104   52   54 am   BACKBONE|DICT|INTERRES
   105   54   55 1    
   106   54  110 1    
   107   55   56 1    
   108   55   59 1    
   109   55  111 1    
   110   56   57 am   BACKBONE|DICT|INTERRES
   111   56   58 2    
   112   57  112 1    
   113   57  113 1    
   114   59   60 1    
   115   59  114 1    
   116   59  115 1    
   117   60   61 1    
   118   61  116 1    
   119   61  117 1    
@<TRIPOS>SUBSTRUCTURE
     1 UNK         1 GROUP             0       ****    0 ROOT    
