@<TRIPOS>MOLECULE
3R8
117   119    1
SMALL
USER_CHARGES


@<TRIPOS>ATOM
      1 CA         14.6613  -26.0572  -43.8863 C.3       0 UNK        -0.2013 
      2 C          15.6340  -25.2573  -44.7390 C.2       0 UNK         0.4866 
      3 O          15.6942  -24.0350  -44.6055 O.2       0 UNK        -0.5176 
      4 N          16.3750  -25.9292  -45.6318 N.am      1 UNK        -0.4884 
      5 CA         17.2808  -25.2972  -46.5975 C.3       1 UNK         0.0853 
      6 C6         17.6172  -26.2384  -47.7887 C.3       10 UNK        -0.0849 
      7 S7         18.8205  -27.5779  -47.4547 S.3       10 UNK        -0.2776 
      8 C8         17.7741  -28.9741  -46.9359 C.3       10 UNK         0.0316 
      9 C9         18.2252  -29.5079  -45.5833 C.ar      10 UNK        -0.0863 
     10 C10        19.3795  -30.2904  -45.4910 C.ar      10 UNK        -0.1009 
     11 C11        19.8007  -30.7964  -44.2580 C.ar      10 UNK        -0.0712 
     12 C12        19.0709  -30.4951  -43.1032 C.ar      10 UNK        -0.0894 
     13 C13        17.9078  -29.7224  -43.1824 C.ar      10 UNK        -0.0745 
     14 C14        17.4883  -29.2390  -44.4266 C.ar      10 UNK        -0.0972 
     15 C15        17.0692  -29.4532  -41.9390 C.3       10 UNK         0.0209 
     16 S16        16.8514  -27.6721  -41.6279 S.3       10 UNK        -0.2568 
     17 C17        18.2160  -27.2934  -40.4826 C.3       10 UNK        -0.0983 
     18 CA         19.5985  -27.1415  -41.1624 C.3       3 UNK         0.0876 
     19 N          19.5690  -26.2424  -42.3232 N.am      3 UNK        -0.4424 
     20 C          20.6144  -26.0155  -43.1300 C.2       2 UNK         0.4918 
     21 O          21.7152  -26.5451  -42.9724 O.2       2 UNK        -0.4875 
     22 CA         20.3877  -25.0626  -44.3136 C.3       2 UNK         0.0481 
     23 CB         21.5750  -25.0790  -45.3045 C.3       2 UNK        -0.1831 
     24 N          19.1385  -25.4076  -44.9932 N.am      2 UNK        -0.4498 
     25 C          18.5300  -24.6744  -45.9355 C.2       1 UNK         0.5027 
     26 O          18.9066  -23.5549  -46.2876 O.2       1 UNK        -0.4969 
     27 C          20.6412  -26.6783  -40.1236 C.2       3 UNK         0.5005 
     28 O          20.7645  -25.4738  -39.8865 O.2       3 UNK        -0.5279 
     29 N          21.3850  -27.6320  -39.5457 N.am      4 UNK        -0.4463 
     30 CA         22.4818  -27.4709  -38.5762 C.3       4 UNK         0.0283 
     31 CB         22.0234  -26.7411  -37.2981 C.3       4 UNK        -0.1875 
     32 C          23.7636  -26.8383  -39.1531 C.2       4 UNK         0.4949 
     33 O          24.8515  -27.2118  -38.7155 O.2       4 UNK        -0.5039 
     34 N          23.6360  -25.9359  -40.1371 N.am      5 UNK        -0.4663 
     35 CA         24.7383  -25.4446  -40.9701 C.3       5 UNK         0.0242 
     36 CB         24.2673  -24.2524  -41.8187 C.3       5 UNK        -0.1982 
     37 C          25.2997  -26.5773  -41.8450 C.2       5 UNK         0.5017 
     38 O          26.5086  -26.8128  -41.8391 O.2       5 UNK        -0.5012 
     39 N          24.3953  -27.3144  -42.5038 N.am      6 UNK        -0.4439 
     40 CA         24.6328  -28.6658  -42.9952 C.3       6 UNK         0.0297 
     41 CB         23.6980  -28.9537  -44.1834 C.3       6 UNK        -0.2006 
     42 C          24.3817  -29.6197  -41.8182 C.2       6 UNK         0.4892 
     43 O          23.2309  -29.9684  -41.5427 O.2       6 UNK        -0.5089 
     44 N          25.4576  -29.9726  -41.1043 N.am      7 UNK        -0.4243 
     45 CA         25.4444  -30.8326  -39.9179 C.3       7 UNK         0.0196 
     46 CB         26.7026  -30.5414  -39.0793 C.3       7 UNK        -0.2007 
     47 C          25.3162  -32.3180  -40.3049 C.2       7 UNK         0.5020 
     48 O          26.2377  -33.1048  -40.0808 O.2       7 UNK        -0.5147 
     49 N          24.1804  -32.6635  -40.9132 N.am      8 UNK        -0.4734 
     50 CA         23.8322  -33.9859  -41.4228 C.3       8 UNK         0.0238 
     51 CB         24.5209  -34.2108  -42.7879 C.3       8 UNK        -0.1912 
     52 C          22.3002  -34.0935  -41.5004 C.2       8 UNK         0.5038 
     53 O          21.5997  -33.3038  -40.8613 O.2       8 UNK        -0.5046 
     54 N          21.8099  -35.0514  -42.2970 N.am      9 UNK        -0.4200 
     55 CA         20.3883  -35.2669  -42.6253 C.3       9 UNK         0.0839 
     56 C          19.5282  -35.8447  -41.4606 C.2       9 UNK         0.5513 
     57 N          20.1233  -36.3680  -40.3953 N.am      9 UNK        -0.7519 
     58 O          18.3019  -35.8506  -41.5346 O.2       9 UNK        -0.4960 
     59 C59        19.7163  -34.0367  -43.3064 C.3       10 UNK        -0.0876 
     60 S60        20.6643  -33.3845  -44.7281 S.3       10 UNK        -0.2414 
     61 C61        21.0348  -31.6833  -44.1871 C.3       10 UNK         0.0169 
     62 H62        13.6359  -25.8081  -44.1577 H         1 UNK         0.0903 
     63 H63        14.7920  -27.1316  -44.0081 H         1 UNK         0.0903 
     64 H64        14.7989  -25.8155  -42.8328 H         1 UNK         0.0903 
     65 H65        16.2796  -26.9295  -45.7082 H         1 UNK         0.3096 
     66 H66        16.7274  -24.4566  -47.0243 H         1 UNK         0.1121 
     67 H67        16.7025  -26.6658  -48.2028 H         1 UNK         0.0849 
     68 H68        18.0362  -25.6394  -48.5994 H         1 UNK         0.0849 
     69 H69        16.7235  -28.6839  -46.9064 H         1 UNK         0.0865 
     70 H70        17.8452  -29.7662  -47.6830 H         1 UNK         0.0865 
     71 H71        19.9466  -30.5161  -46.3840 H         1 UNK         0.1346 
     72 H72        19.3967  -30.8837  -42.1480 H         1 UNK         0.1412 
     73 H73        16.5792  -28.6601  -44.4864 H         1 UNK         0.1426 
     74 H74        17.4955  -29.9365  -41.0587 H         1 UNK         0.0716 
     75 H75        16.0851  -29.9008  -42.0844 H         1 UNK         0.0716 
     76 H76        18.2500  -28.0655  -39.7115 H         1 UNK         0.0695 
     77 H77        17.9456  -26.3691  -39.9676 H         1 UNK         0.0695 
     78 H78        19.9043  -28.1205  -41.5374 H         1 UNK         0.0983 
     79 H79        18.7008  -25.7549  -42.4858 H         1 UNK         0.3095 
     80 H80        20.2911  -24.0575  -43.8991 H         1 UNK         0.0454 
     81 H81        21.6968  -26.0615  -45.7625 H         1 UNK         0.0851 
     82 H82        22.5119  -24.8345  -44.8029 H         1 UNK         0.0851 
     83 H83        21.4497  -24.3507  -46.1049 H         1 UNK         0.0851 
     84 H84        18.7620  -26.3237  -44.7875 H         1 UNK         0.2976 
     85 H85        21.2442  -28.5852  -39.8545 H         1 UNK         0.3116 
     86 H86        22.7529  -28.4875  -38.2861 H         1 UNK         0.0646 
     87 H87        21.7810  -25.6950  -37.4859 H         1 UNK         0.0847 
     88 H88        22.8100  -26.7559  -36.5425 H         1 UNK         0.0847 
     89 H89        21.1458  -27.2171  -36.8609 H         1 UNK         0.0847 
     90 H90        22.6947  -25.6511  -40.3877 H         1 UNK         0.3040 
     91 H91        25.5392  -25.1028  -40.3106 H         1 UNK         0.1015 
     92 H92        23.4419  -24.5201  -42.4779 H         1 UNK         0.0786 
     93 H93        25.0772  -23.8771  -42.4456 H         1 UNK         0.0786 
     94 H94        23.9359  -23.4266  -41.1889 H         1 UNK         0.0786 
     95 H95        23.4183  -27.0262  -42.4781 H         1 UNK         0.3172 
     96 H96        25.6644  -28.7685  -43.3387 H         1 UNK         0.0595 
     97 H97        23.8826  -29.9501  -44.5858 H         1 UNK         0.0839 
     98 H98        23.8554  -28.2408  -44.9927 H         1 UNK         0.0839 
     99 H99        22.6454  -28.9051  -43.9003 H         1 UNK         0.0839 
    100 H100       26.3598  -29.6196  -41.3910 H         1 UNK         0.2998 
    101 H101       24.5747  -30.5765  -39.3083 H         1 UNK         0.0822 
    102 H102       26.7163  -31.1474  -38.1724 H         1 UNK         0.0787 
    103 H103       27.6179  -30.7578  -39.6318 H         1 UNK         0.0787 
    104 H104       26.7363  -29.4964  -38.7693 H         1 UNK         0.0787 
    105 H105       23.4636  -31.9520  -41.0370 H         1 UNK         0.3055 
    106 H106       24.1768  -34.7411  -40.7130 H         1 UNK         0.1106 
    107 H107       24.3836  -35.2313  -43.1460 H         1 UNK         0.0828 
    108 H108       24.1284  -33.5360  -43.5502 H         1 UNK         0.0828 
    109 H109       25.5968  -34.0472  -42.7242 H         1 UNK         0.0828 
    110 H110       22.4577  -35.6634  -42.7707 H         1 UNK         0.2931 
    111 H111       20.3987  -36.0641  -43.3693 H         1 UNK         0.0412 
    112 H112       21.1281  -36.3799  -40.3252 H         1 UNK         0.3472 
    113 H113       19.5596  -36.7496  -39.6516 H         1 UNK         0.3472 
    114 H114       18.7245  -34.3043  -43.6749 H         1 UNK         0.0970 
    115 H115       19.5529  -33.2471  -42.5732 H         1 UNK         0.0970 
    116 H116       21.4536  -31.6911  -43.1798 H         1 UNK         0.0612 
    117 H117       21.8099  -31.2750  -44.8361 H         1 UNK         0.0612 
@<TRIPOS>BOND
     1    1    2 1    
     2    1   62 1    
     3    1   63 1    
     4    1   64 1    
     5    2    3 2    
     6    2    4 am   BACKBONE|DICT|INTERRES
     7    4    5 1    
     8    4   65 1    
     9    5    6 1    
    10    5   25 1    
    11    5   66 1    
    12    6    7 1    
    13    6   67 1    
    14    6   68 1    
    15    7    8 1    
    16    8    9 1    
    17    8   69 1    
    18    8   70 1    
    19    9   10 ar   
    20    9   14 ar   
    21   10   11 ar   
    22   10   71 1    
    23   11   12 ar   
    24   11   61 1    
    25   12   13 ar   
    26   12   72 1    
    27   13   14 ar   
    28   13   15 1    
    29   14   73 1    
    30   15   16 1    
    31   15   74 1    
    32   15   75 1    
    33   16   17 1    
    34   17   18 1    
    35   17   76 1    
    36   17   77 1    
    37   18   19 1    
    38   18   27 1    
    39   18   78 1    
    40   19   20 am   BACKBONE|DICT|INTERRES
    41   19   79 1    
    42   20   21 2    
    43   20   22 1    
    44   22   23 1    
    45   22   24 1    
    46   22   80 1    
    47   23   81 1    
    48   23   82 1    
    49   23   83 1    
    50   24   25 am   BACKBONE|DICT|INTERRES
    51   24   84 1    
    52   25   26 2    
    53   27   28 2    
    54   27   29 am   BACKBONE|DICT|INTERRES
    55   29   30 1    
    56   29   85 1    
    57   30   31 1    
    58   30   32 1    
    59   30   86 1    
    60   31   87 1    
    61   31   88 1    
    62   31   89 1    
    63   32   33 2    
    64   32   34 am   BACKBONE|DICT|INTERRES
    65   34   35 1    
    66   34   90 1    
    67   35   36 1    
    68   35   37 1    
    69   35   91 1    
    70   36   92 1    
    71   36   93 1    
    72   36   94 1    
    73   37   38 2    
    74   37   39 am   BACKBONE|DICT|INTERRES
    75   39   40 1    
    76   39   95 1    
    77   40   41 1    
    78   40   42 1    
    79   40   96 1    
    80   41   97 1    
    81   41   98 1    
    82   41   99 1    
    83   42   43 2    
    84   42   44 am   BACKBONE|DICT|INTERRES
    85   44   45 1    
    86   44  100 1    
    87   45   46 1    
    88   45   47 1    
    89   45  101 1    
    90   46  102 1    
    91   46  103 1    
    92   46  104 1    
    93   47   48 2    
    94   47   49 am   BACKBONE|DICT|INTERRES
    95   49   50 1    
    96   49  105 1    
    97   50   51 1    
    98   50   52 1    
    99   50  106 1    
   100   51  107 1    
   101   51  108 1    
   102   51  109 1    
   103   52   53 2    
   104   52   54 am   BACKBONE|DICT|INTERRES
   105   54   55 1    
   106   54  110 1    
   107   55   56 1    
   108   55   59 1    
   109   55  111 1    
   110   56   57 am   BACKBONE|DICT|INTERRES
   111   56   58 2    
   112   57  112 1    
   113   57  113 1    
   114   59   60 1    
   115   59  114 1    
   116   59  115 1    
   117   60   61 1    
   118   61  116 1    
   119   61  117 1    
@<TRIPOS>SUBSTRUCTURE
     1 UNK         1 GROUP             0       ****    0 ROOT    
