@<TRIPOS>MOLECULE
3R8
117   119    1
SMALL
USER_CHARGES


@<TRIPOS>ATOM
      1 CA         19.7435  -24.8197  -39.8702 C.3       0 UNK        -0.2013 
      2 C          18.9825  -24.7456  -41.1854 C.2       0 UNK         0.4866 
      3 O          18.2154  -23.8054  -41.3960 O.2       0 UNK        -0.5176 
      4 N          19.1842  -25.7322  -42.0645 N.am      1 UNK        -0.4884 
      5 CA         18.5743  -25.8110  -43.3942 C.3       1 UNK         0.0853 
      6 C6         18.2071  -27.2746  -43.7524 C.3       10 UNK        -0.0849 
      7 S7         16.9482  -27.9737  -42.6291 S.3       10 UNK        -0.2776 
      8 C8         15.9689  -29.0183  -43.7609 C.3       10 UNK         0.0316 
      9 C9         16.8301  -30.0704  -44.4469 C.ar      10 UNK        -0.0863 
     10 C10        17.4296  -31.0846  -43.6944 C.ar      10 UNK        -0.1009 
     11 C11        18.2813  -32.0114  -44.3021 C.ar      10 UNK        -0.0712 
     12 C12        18.5010  -31.9404  -45.6806 C.ar      10 UNK        -0.0894 
     13 C13        17.8858  -30.9473  -46.4493 C.ar      10 UNK        -0.0745 
     14 C14        17.0485  -30.0163  -45.8272 C.ar      10 UNK        -0.0972 
     15 C15        18.1501  -30.8676  -47.9476 C.3       10 UNK         0.0209 
     16 S16        19.0460  -29.3518  -48.4216 S.3       10 UNK        -0.2568 
     17 C17        20.5396  -29.4613  -47.3775 C.3       10 UNK        -0.0983 
     18 CA         21.3658  -28.1520  -47.3613 C.3       3 UNK         0.0876 
     19 N          20.5443  -26.9831  -47.0330 N.am      3 UNK        -0.4424 
     20 C          20.8947  -25.7072  -47.2453 C.2       2 UNK         0.4918 
     21 O          21.9640  -25.3616  -47.7481 O.2       2 UNK        -0.4875 
     22 CA         19.8736  -24.6318  -46.8231 C.3       2 UNK         0.0481 
     23 CB         18.9552  -24.2743  -48.0024 C.3       2 UNK        -0.1831 
     24 N          19.0565  -25.0344  -45.6717 N.am      2 UNK        -0.4498 
     25 C          19.5461  -25.2237  -44.4378 C.2       1 UNK         0.5027 
     26 O          20.7204  -24.9920  -44.1387 O.2       1 UNK        -0.4969 
     27 C          22.5615  -28.3058  -46.4000 C.2       3 UNK         0.5005 
     28 O          23.6494  -28.6801  -46.8414 O.2       3 UNK        -0.5279 
     29 N          22.3368  -28.0273  -45.1091 N.am      4 UNK        -0.4463 
     30 CA         23.3119  -28.1427  -44.0318 C.3       4 UNK         0.0283 
     31 CB         23.5017  -29.6171  -43.6288 C.3       4 UNK        -0.1875 
     32 C          22.8087  -27.3249  -42.8420 C.2       4 UNK         0.4949 
     33 O          21.6418  -27.4575  -42.4593 O.2       4 UNK        -0.5039 
     34 N          23.7015  -26.5272  -42.2444 N.am      5 UNK        -0.4663 
     35 CA         23.4299  -25.6601  -41.0934 C.3       5 UNK         0.0242 
     36 CB         24.4823  -24.5363  -41.0573 C.3       5 UNK        -0.1982 
     37 C          23.3651  -26.4565  -39.7748 C.2       5 UNK         0.5017 
     38 O          24.1601  -26.2172  -38.8655 O.2       5 UNK        -0.5012 
     39 N          22.4386  -27.4233  -39.7273 N.am      6 UNK        -0.4439 
     40 CA         22.1567  -28.3755  -38.6447 C.3       6 UNK         0.0297 
     41 CB         21.7890  -27.6528  -37.3323 C.3       6 UNK        -0.2006 
     42 C          23.2434  -29.4488  -38.4305 C.2       6 UNK         0.4892 
     43 O          23.0971  -30.2711  -37.5248 O.2       6 UNK        -0.5089 
     44 N          24.2814  -29.4721  -39.2790 N.am      7 UNK        -0.4243 
     45 CA         25.2951  -30.5256  -39.3340 C.3       7 UNK         0.0196 
     46 CB         26.4475  -30.0790  -40.2495 C.3       7 UNK        -0.2007 
     47 C          24.6483  -31.8253  -39.8341 C.2       7 UNK         0.5020 
     48 O          24.2182  -31.8762  -40.9872 O.2       7 UNK        -0.5147 
     49 N          24.5059  -32.8069  -38.9332 N.am      8 UNK        -0.4734 
     50 CA         23.7693  -34.0768  -39.0631 C.3       8 UNK         0.0238 
     51 CB         24.3160  -34.9435  -40.2150 C.3       8 UNK        -0.1912 
     52 C          22.2385  -33.9157  -39.1657 C.2       8 UNK         0.5038 
     53 O          21.5132  -34.6976  -38.5498 O.2       8 UNK        -0.5046 
     54 N          21.7775  -32.9132  -39.9210 N.am      9 UNK        -0.4200 
     55 CA         20.3660  -32.5524  -40.1151 C.3       9 UNK         0.0839 
     56 C          19.6641  -31.9328  -38.8721 C.2       9 UNK         0.5513 
     57 N          20.3741  -31.4996  -37.8381 N.am      9 UNK        -0.7519 
     58 O          18.4390  -31.8542  -38.8439 O.2       9 UNK        -0.4960 
     59 C59        20.1845  -31.6531  -41.3656 C.3       10 UNK        -0.0876 
     60 S60        20.6144  -32.5377  -42.9034 S.3       10 UNK        -0.2414 
     61 C61        18.9743  -33.0856  -43.4770 C.3       10 UNK         0.0169 
     62 H62        20.1457  -25.8162  -39.6949 H         1 UNK         0.0903 
     63 H63        20.5666  -24.1059  -39.8682 H         1 UNK         0.0903 
     64 H64        19.0817  -24.5784  -39.0387 H         1 UNK         0.0903 
     65 H65        19.9009  -26.4289  -41.8955 H         1 UNK         0.3096 
     66 H66        17.6627  -25.2093  -43.4202 H         1 UNK         0.1121 
     67 H67        19.0882  -27.9192  -43.7199 H         1 UNK         0.0849 
     68 H68        17.8226  -27.3345  -44.7716 H         1 UNK         0.0849 
     69 H69        15.1791  -29.5137  -43.1944 H         1 UNK         0.0865 
     70 H70        15.4678  -28.3831  -44.4931 H         1 UNK         0.0865 
     71 H71        17.2501  -31.1301  -42.6295 H         1 UNK         0.1346 
     72 H72        19.1636  -32.6535  -46.1519 H         1 UNK         0.1412 
     73 H73        16.5879  -29.2370  -46.4192 H         1 UNK         0.1426 
     74 H74        17.1990  -30.8977  -48.4808 H         1 UNK         0.0716 
     75 H75        18.7200  -31.7334  -48.2884 H         1 UNK         0.0716 
     76 H76        21.1473  -30.2932  -47.7389 H         1 UNK         0.0695 
     77 H77        20.2401  -29.7193  -46.3604 H         1 UNK         0.0695 
     78 H78        21.7726  -27.9987  -48.3636 H         1 UNK         0.0983 
     79 H79        19.6248  -27.1769  -46.6682 H         1 UNK         0.3095 
     80 H80        20.4323  -23.7357  -46.5447 H         1 UNK         0.0454 
     81 H81        19.5382  -23.9452  -48.8638 H         1 UNK         0.0851 
     82 H82        18.2757  -23.4616  -47.7455 H         1 UNK         0.0851 
     83 H83        18.3553  -25.1270  -48.3234 H         1 UNK         0.0851 
     84 H84        18.0782  -25.2135  -45.8500 H         1 UNK         0.2976 
     85 H85        21.4326  -27.6780  -44.8209 H         1 UNK         0.3116 
     86 H86        24.2656  -27.7334  -44.3720 H         1 UNK         0.0646 
     87 H87        22.5623  -30.0725  -43.3126 H         1 UNK         0.0847 
     88 H88        23.8988  -30.2114  -44.4515 H         1 UNK         0.0847 
     89 H89        24.2015  -29.7106  -42.7984 H         1 UNK         0.0847 
     90 H90        24.6451  -26.5034  -42.6050 H         1 UNK         0.3040 
     91 H91        22.4538  -25.1911  -41.2373 H         1 UNK         0.1015 
     92 H92        24.2909  -23.8479  -40.2329 H         1 UNK         0.0786 
     93 H93        24.4663  -23.9490  -41.9757 H         1 UNK         0.0786 
     94 H94        25.4914  -24.9295  -40.9269 H         1 UNK         0.0786 
     95 H95        21.9069  -27.5653  -40.5838 H         1 UNK         0.3172 
     96 H96        21.2698  -28.9211  -38.9698 H         1 UNK         0.0595 
     97 H97        22.6450  -27.1365  -36.8972 H         1 UNK         0.0839 
     98 H98        21.4287  -28.3615  -36.5856 H         1 UNK         0.0839 
     99 H99        20.9971  -26.9206  -37.4881 H         1 UNK         0.0839 
    100 H100       24.3178  -28.7683  -40.0000 H         1 UNK         0.2998 
    101 H101       25.6941  -30.6785  -38.3289 H         1 UNK         0.0822 
    102 H102       27.2216  -30.8458  -40.3000 H         1 UNK         0.0787 
    103 H103       26.1104  -29.8907  -41.2692 H         1 UNK         0.0787 
    104 H104       26.9178  -29.1680  -39.8786 H         1 UNK         0.0787 
    105 H105       24.8461  -32.6187  -37.9992 H         1 UNK         0.3055 
    106 H106       23.9558  -34.6190  -38.1343 H         1 UNK         0.1106 
    107 H107       25.3899  -35.1018  -40.1179 H         1 UNK         0.0828 
    108 H108       23.8425  -35.9262  -40.2176 H         1 UNK         0.0828 
    109 H109       24.1291  -34.4958  -41.1915 H         1 UNK         0.0828 
    110 H110       22.4643  -32.3609  -40.4254 H         1 UNK         0.2931 
    111 H111       19.8305  -33.4845  -40.3066 H         1 UNK         0.0412 
    112 H112       19.8889  -31.1168  -37.0425 H         1 UNK         0.3472 
    113 H113       21.3853  -31.5134  -37.8447 H         1 UNK         0.3472 
    114 H114       19.1616  -31.2850  -41.4393 H         1 UNK         0.0970 
    115 H115       20.8121  -30.7631  -41.2900 H         1 UNK         0.0970 
    116 H116       19.1001  -33.9864  -44.0795 H         1 UNK         0.0612 
    117 H117       18.3580  -33.3757  -42.6245 H         1 UNK         0.0612 
@<TRIPOS>BOND
     1    1    2 1    
     2    1   62 1    
     3    1   63 1    
     4    1   64 1    
     5    2    3 2    
     6    2    4 am   BACKBONE|DICT|INTERRES
     7    4    5 1    
     8    4   65 1    
     9    5    6 1    
    10    5   25 1    
    11    5   66 1    
    12    6    7 1    
    13    6   67 1    
    14    6   68 1    
    15    7    8 1    
    16    8    9 1    
    17    8   69 1    
    18    8   70 1    
    19    9   10 ar   
    20    9   14 ar   
    21   10   11 ar   
    22   10   71 1    
    23   11   12 ar   
    24   11   61 1    
    25   12   13 ar   
    26   12   72 1    
    27   13   14 ar   
    28   13   15 1    
    29   14   73 1    
    30   15   16 1    
    31   15   74 1    
    32   15   75 1    
    33   16   17 1    
    34   17   18 1    
    35   17   76 1    
    36   17   77 1    
    37   18   19 1    
    38   18   27 1    
    39   18   78 1    
    40   19   20 am   BACKBONE|DICT|INTERRES
    41   19   79 1    
    42   20   21 2    
    43   20   22 1    
    44   22   23 1    
    45   22   24 1    
    46   22   80 1    
    47   23   81 1    
    48   23   82 1    
    49   23   83 1    
    50   24   25 am   BACKBONE|DICT|INTERRES
    51   24   84 1    
    52   25   26 2    
    53   27   28 2    
    54   27   29 am   BACKBONE|DICT|INTERRES
    55   29   30 1    
    56   29   85 1    
    57   30   31 1    
    58   30   32 1    
    59   30   86 1    
    60   31   87 1    
    61   31   88 1    
    62   31   89 1    
    63   32   33 2    
    64   32   34 am   BACKBONE|DICT|INTERRES
    65   34   35 1    
    66   34   90 1    
    67   35   36 1    
    68   35   37 1    
    69   35   91 1    
    70   36   92 1    
    71   36   93 1    
    72   36   94 1    
    73   37   38 2    
    74   37   39 am   BACKBONE|DICT|INTERRES
    75   39   40 1    
    76   39   95 1    
    77   40   41 1    
    78   40   42 1    
    79   40   96 1    
    80   41   97 1    
    81   41   98 1    
    82   41   99 1    
    83   42   43 2    
    84   42   44 am   BACKBONE|DICT|INTERRES
    85   44   45 1    
    86   44  100 1    
    87   45   46 1    
    88   45   47 1    
    89   45  101 1    
    90   46  102 1    
    91   46  103 1    
    92   46  104 1    
    93   47   48 2    
    94   47   49 am   BACKBONE|DICT|INTERRES
    95   49   50 1    
    96   49  105 1    
    97   50   51 1    
    98   50   52 1    
    99   50  106 1    
   100   51  107 1    
   101   51  108 1    
   102   51  109 1    
   103   52   53 2    
   104   52   54 am   BACKBONE|DICT|INTERRES
   105   54   55 1    
   106   54  110 1    
   107   55   56 1    
   108   55   59 1    
   109   55  111 1    
   110   56   57 am   BACKBONE|DICT|INTERRES
   111   56   58 2    
   112   57  112 1    
   113   57  113 1    
   114   59   60 1    
   115   59  114 1    
   116   59  115 1    
   117   60   61 1    
   118   61  116 1    
   119   61  117 1    
@<TRIPOS>SUBSTRUCTURE
     1 UNK         1 GROUP             0       ****    0 ROOT    
