@<TRIPOS>MOLECULE
3R8
117   119    1
SMALL
USER_CHARGES


@<TRIPOS>ATOM
      1 CA         14.9238  -22.9221  -46.8934 C.3       0 UNK        -0.2013 
      2 C          15.5152  -24.2857  -47.2167 C.2       0 UNK         0.4866 
      3 O          16.1676  -24.4414  -48.2491 O.2       0 UNK        -0.5176 
      4 N          15.2916  -25.2757  -46.3427 N.am      1 UNK        -0.4884 
      5 CA         15.8028  -26.6474  -46.4738 C.3       1 UNK         0.0853 
      6 C6         15.0146  -27.6455  -45.5904 C.3       10 UNK        -0.0849 
      7 S7         14.8929  -27.1532  -43.8346 S.3       10 UNK        -0.2776 
      8 C8         14.3672  -28.7191  -43.0727 C.3       10 UNK         0.0316 
      9 C9         15.5585  -29.5818  -42.6848 C.ar      10 UNK        -0.0863 
     10 C10        16.0486  -30.5593  -43.5569 C.ar      10 UNK        -0.1009 
     11 C11        17.1297  -31.3638  -43.1837 C.ar      10 UNK        -0.0712 
     12 C12        17.6999  -31.2049  -41.9176 C.ar      10 UNK        -0.0894 
     13 C13        17.2403  -30.2107  -41.0513 C.ar      10 UNK        -0.0745 
     14 C14        16.1653  -29.4057  -41.4379 C.ar      10 UNK        -0.0972 
     15 C15        17.9139  -30.0002  -39.7029 C.3       10 UNK         0.0209 
     16 S16        19.6528  -29.4793  -39.8753 S.3       10 UNK        -0.2568 
     17 C17        19.5052  -27.9281  -40.8300 C.3       10 UNK        -0.0983 
     18 CA         20.1343  -28.0349  -42.2449 C.3       3 UNK         0.0876 
     19 N          19.6072  -27.0003  -43.1470 N.am      3 UNK        -0.4424 
     20 C          19.9186  -26.8716  -44.4454 C.2       2 UNK         0.4918 
     21 O          20.6471  -27.6511  -45.0612 O.2       2 UNK        -0.4875 
     22 CA         19.3168  -25.6469  -45.1598 C.3       2 UNK         0.0481 
     23 CB         20.1095  -25.2520  -46.4238 C.3       2 UNK        -0.1831 
     24 N          17.8944  -25.8159  -45.4741 N.am      2 UNK        -0.4498 
     25 C          17.3265  -26.7584  -46.2457 C.2       1 UNK         0.5027 
     26 O          17.9420  -27.6719  -46.7958 O.2       1 UNK        -0.4969 
     27 C          21.6792  -28.0181  -42.1647 C.2       3 UNK         0.5005 
     28 O          22.3041  -29.0800  -42.2252 O.2       3 UNK        -0.5279 
     29 N          22.2324  -26.7968  -42.0594 N.am      4 UNK        -0.4463 
     30 CA         23.6288  -26.4197  -41.8048 C.3       4 UNK         0.0283 
     31 CB         24.6093  -27.1222  -42.7650 C.3       4 UNK        -0.1875 
     32 C          24.0270  -26.6360  -40.3351 C.2       4 UNK         0.4949 
     33 O          23.4610  -27.4884  -39.6500 O.2       4 UNK        -0.5039 
     34 N          25.0230  -25.8674  -39.8729 N.am      5 UNK        -0.4663 
     35 CA         25.5252  -25.8925  -38.4903 C.3       5 UNK         0.0242 
     36 CB         26.5386  -24.7527  -38.2969 C.3       5 UNK        -0.1982 
     37 C          26.1437  -27.2395  -38.0724 C.2       5 UNK         0.5017 
     38 O          26.0872  -27.5955  -36.8953 O.2       5 UNK        -0.5012 
     39 N          26.6945  -27.9685  -39.0510 N.am      6 UNK        -0.4439 
     40 CA         27.2284  -29.3229  -38.8989 C.3       6 UNK         0.0297 
     41 CB         28.3287  -29.5323  -39.9548 C.3       6 UNK        -0.2006 
     42 C          26.1532  -30.4229  -39.0178 C.2       6 UNK         0.4892 
     43 O          26.5028  -31.5961  -38.8832 O.2       6 UNK        -0.5089 
     44 N          24.8932  -30.0476  -39.3028 N.am      7 UNK        -0.4243 
     45 CA         23.7606  -30.9222  -39.6397 C.3       7 UNK         0.0196 
     46 CB         23.3344  -31.7800  -38.4298 C.3       7 UNK        -0.2007 
     47 C          24.0295  -31.7523  -40.9111 C.2       7 UNK         0.5020 
     48 O          23.6959  -32.9370  -40.9653 O.2       7 UNK        -0.5147 
     49 N          24.6440  -31.1072  -41.9141 N.am      8 UNK        -0.4734 
     50 CA         25.0866  -31.6993  -43.1819 C.3       8 UNK         0.0238 
     51 CB         25.8873  -30.6547  -43.9763 C.3       8 UNK        -0.1912 
     52 C          23.9520  -32.2778  -44.0451 C.2       8 UNK         0.5038 
     53 O          24.2114  -33.1743  -44.8491 O.2       8 UNK        -0.5046 
     54 N          22.7245  -31.7782  -43.8526 N.am      9 UNK        -0.4200 
     55 CA         21.4940  -32.3529  -44.4160 C.3       9 UNK         0.0839 
     56 C          21.1432  -33.7679  -43.8568 C.2       9 UNK         0.5513 
     57 N          21.6449  -34.1738  -42.6953 N.am      9 UNK        -0.7519 
     58 O          20.4235  -34.5262  -44.5005 O.2       9 UNK        -0.4960 
     59 C59        20.3241  -31.3494  -44.2590 C.3       10 UNK        -0.0876 
     60 S60        18.8751  -31.6807  -45.3230 S.3       10 UNK        -0.2414 
     61 C61        17.6818  -32.4036  -44.1474 C.3       10 UNK         0.0169 
     62 H62        14.3702  -22.9293  -45.9546 H         1 UNK         0.0903 
     63 H63        15.7166  -22.1787  -46.8140 H         1 UNK         0.0903 
     64 H64        14.2432  -22.6111  -47.6855 H         1 UNK         0.0903 
     65 H65        14.7443  -25.1006  -45.5105 H         1 UNK         0.3096 
     66 H66        15.6421  -26.9490  -47.5119 H         1 UNK         0.1121 
     67 H67        13.9989  -27.7427  -45.9772 H         1 UNK         0.0849 
     68 H68        15.4517  -28.6424  -45.6646 H         1 UNK         0.0849 
     69 H69        13.7748  -28.4938  -42.1845 H         1 UNK         0.0865 
     70 H70        13.7009  -29.2608  -43.7460 H         1 UNK         0.0865 
     71 H71        15.5936  -30.6955  -44.5281 H         1 UNK         0.1346 
     72 H72        18.5239  -31.8345  -41.6112 H         1 UNK         0.1412 
     73 H73        15.7991  -28.6383  -40.7692 H         1 UNK         0.1426 
     74 H74        17.8781  -30.9313  -39.1358 H         1 UNK         0.0716 
     75 H75        17.3787  -29.2574  -39.1093 H         1 UNK         0.0716 
     76 H76        18.4487  -27.6690  -40.9087 H         1 UNK         0.0695 
     77 H77        19.9586  -27.1197  -40.2531 H         1 UNK         0.0695 
     78 H78        19.8349  -28.9898  -42.6773 H         1 UNK         0.0983 
     79 H79        18.9752  -26.3285  -42.7364 H         1 UNK         0.3095 
     80 H80        19.3817  -24.8077  -44.4654 H         1 UNK         0.0454 
     81 H81        21.1559  -25.0611  -46.1824 H         1 UNK         0.0851 
     82 H82        19.7093  -24.3441  -46.8749 H         1 UNK         0.0851 
     83 H83        20.0910  -26.0366  -47.1809 H         1 UNK         0.0851 
     84 H84        17.2716  -25.1321  -45.0675 H         1 UNK         0.2976 
     85 H85        21.5851  -26.0219  -42.0303 H         1 UNK         0.3116 
     86 H86        23.6797  -25.3477  -42.0022 H         1 UNK         0.0646 
     87 H87        24.7178  -28.1799  -42.5316 H         1 UNK         0.0847 
     88 H88        24.2803  -27.0393  -43.8010 H         1 UNK         0.0847 
     89 H89        25.6030  -26.6774  -42.7046 H         1 UNK         0.0847 
     90 H90        25.4425  -25.1883  -40.4930 H         1 UNK         0.3040 
     91 H91        24.6762  -25.7119  -37.8269 H         1 UNK         0.1015 
     92 H92        26.9114  -24.7316  -37.2717 H         1 UNK         0.0786 
     93 H93        26.0860  -23.7806  -38.4936 H         1 UNK         0.0786 
     94 H94        27.4017  -24.8622  -38.9549 H         1 UNK         0.0786 
     95 H95        26.7004  -27.5767  -39.9815 H         1 UNK         0.3172 
     96 H96        27.6837  -29.4185  -37.9108 H         1 UNK         0.0595 
     97 H97        27.9324  -29.4788  -40.9696 H         1 UNK         0.0839 
     98 H98        28.7997  -30.5100  -39.8422 H         1 UNK         0.0839 
     99 H99        29.1175  -28.7856  -39.8610 H         1 UNK         0.0839 
    100 H100       24.6832  -29.0558  -39.3570 H         1 UNK         0.2998 
    101 H101       22.9257  -30.2616  -39.8786 H         1 UNK         0.0822 
    102 H102       22.4142  -32.3243  -38.6459 H         1 UNK         0.0787 
    103 H103       23.1452  -31.1607  -37.5532 H         1 UNK         0.0787 
    104 H104       24.0928  -32.5172  -38.1650 H         1 UNK         0.0787 
    105 H105       24.8185  -30.1215  -41.7908 H         1 UNK         0.3055 
    106 H106       25.7526  -32.5291  -42.9352 H         1 UNK         0.1106 
    107 H107       26.7301  -30.2725  -43.4001 H         1 UNK         0.0828 
    108 H108       26.2940  -31.0904  -44.8900 H         1 UNK         0.0828 
    109 H109       25.2655  -29.8088  -44.2715 H         1 UNK         0.0828 
    110 H110       22.6145  -31.0218  -43.1863 H         1 UNK         0.2931 
    111 H111       21.6740  -32.4789  -45.4854 H         1 UNK         0.0412 
    112 H112       21.4141  -35.0958  -42.3614 H         1 UNK         0.3472 
    113 H113       22.2926  -33.5997  -42.1647 H         1 UNK         0.3472 
    114 H114       20.0344  -31.2775  -43.2133 H         1 UNK         0.0970 
    115 H115       20.6704  -30.3515  -44.5330 H         1 UNK         0.0970 
    116 H116       18.1508  -33.2221  -43.6000 H         1 UNK         0.0612 
    117 H117       16.8618  -32.8487  -44.7127 H         1 UNK         0.0612 
@<TRIPOS>BOND
     1    1    2 1    
     2    1   62 1    
     3    1   63 1    
     4    1   64 1    
     5    2    3 2    
     6    2    4 am   BACKBONE|DICT|INTERRES
     7    4    5 1    
     8    4   65 1    
     9    5    6 1    
    10    5   25 1    
    11    5   66 1    
    12    6    7 1    
    13    6   67 1    
    14    6   68 1    
    15    7    8 1    
    16    8    9 1    
    17    8   69 1    
    18    8   70 1    
    19    9   10 ar   
    20    9   14 ar   
    21   10   11 ar   
    22   10   71 1    
    23   11   12 ar   
    24   11   61 1    
    25   12   13 ar   
    26   12   72 1    
    27   13   14 ar   
    28   13   15 1    
    29   14   73 1    
    30   15   16 1    
    31   15   74 1    
    32   15   75 1    
    33   16   17 1    
    34   17   18 1    
    35   17   76 1    
    36   17   77 1    
    37   18   19 1    
    38   18   27 1    
    39   18   78 1    
    40   19   20 am   BACKBONE|DICT|INTERRES
    41   19   79 1    
    42   20   21 2    
    43   20   22 1    
    44   22   23 1    
    45   22   24 1    
    46   22   80 1    
    47   23   81 1    
    48   23   82 1    
    49   23   83 1    
    50   24   25 am   BACKBONE|DICT|INTERRES
    51   24   84 1    
    52   25   26 2    
    53   27   28 2    
    54   27   29 am   BACKBONE|DICT|INTERRES
    55   29   30 1    
    56   29   85 1    
    57   30   31 1    
    58   30   32 1    
    59   30   86 1    
    60   31   87 1    
    61   31   88 1    
    62   31   89 1    
    63   32   33 2    
    64   32   34 am   BACKBONE|DICT|INTERRES
    65   34   35 1    
    66   34   90 1    
    67   35   36 1    
    68   35   37 1    
    69   35   91 1    
    70   36   92 1    
    71   36   93 1    
    72   36   94 1    
    73   37   38 2    
    74   37   39 am   BACKBONE|DICT|INTERRES
    75   39   40 1    
    76   39   95 1    
    77   40   41 1    
    78   40   42 1    
    79   40   96 1    
    80   41   97 1    
    81   41   98 1    
    82   41   99 1    
    83   42   43 2    
    84   42   44 am   BACKBONE|DICT|INTERRES
    85   44   45 1    
    86   44  100 1    
    87   45   46 1    
    88   45   47 1    
    89   45  101 1    
    90   46  102 1    
    91   46  103 1    
    92   46  104 1    
    93   47   48 2    
    94   47   49 am   BACKBONE|DICT|INTERRES
    95   49   50 1    
    96   49  105 1    
    97   50   51 1    
    98   50   52 1    
    99   50  106 1    
   100   51  107 1    
   101   51  108 1    
   102   51  109 1    
   103   52   53 2    
   104   52   54 am   BACKBONE|DICT|INTERRES
   105   54   55 1    
   106   54  110 1    
   107   55   56 1    
   108   55   59 1    
   109   55  111 1    
   110   56   57 am   BACKBONE|DICT|INTERRES
   111   56   58 2    
   112   57  112 1    
   113   57  113 1    
   114   59   60 1    
   115   59  114 1    
   116   59  115 1    
   117   60   61 1    
   118   61  116 1    
   119   61  117 1    
@<TRIPOS>SUBSTRUCTURE
     1 UNK         1 GROUP             0       ****    0 ROOT    
