@<TRIPOS>MOLECULE
3R8
117   119    1
SMALL
USER_CHARGES


@<TRIPOS>ATOM
      1 CA         17.8583  -28.0650  -41.4039 C.3       0 UNK        -0.2013 
      2 C          17.2073  -26.7863  -41.8989 C.2       0 UNK         0.4866 
      3 O          17.1157  -25.8151  -41.1484 O.2       0 UNK        -0.5176 
      4 N          16.7391  -26.7839  -43.1530 N.am      1 UNK        -0.4884 
      5 CA         15.9947  -25.6696  -43.7494 C.3       1 UNK         0.0853 
      6 C6         15.0533  -26.1538  -44.8794 C.3       10 UNK        -0.0849 
      7 S7         15.8983  -26.9072  -46.3148 S.3       10 UNK        -0.2776 
      8 C8         15.7697  -28.7017  -45.9842 C.3       10 UNK         0.0316 
      9 C9         17.0896  -29.3416  -45.5550 C.ar      10 UNK        -0.0863 
     10 C10        17.1001  -30.3415  -44.5781 C.ar      10 UNK        -0.1009 
     11 C11        18.2852  -31.0097  -44.2519 C.ar      10 UNK        -0.0712 
     12 C12        19.4776  -30.6449  -44.8882 C.ar      10 UNK        -0.0894 
     13 C13        19.4900  -29.6504  -45.8742 C.ar      10 UNK        -0.0745 
     14 C14        18.2851  -29.0147  -46.2032 C.ar      10 UNK        -0.0972 
     15 C15        20.7958  -29.3528  -46.6216 C.3       10 UNK         0.0209 
     16 S16        20.8407  -27.7332  -47.4710 S.3       10 UNK        -0.2568 
     17 C17        22.3749  -26.9457  -46.8579 C.3       10 UNK        -0.0983 
     18 CA         22.2058  -26.0622  -45.5880 C.3       3 UNK         0.0876 
     19 N          20.9140  -25.3634  -45.5544 N.am      3 UNK        -0.4424 
     20 C          20.5815  -24.3656  -44.7246 C.2       2 UNK         0.4918 
     21 O          21.3254  -23.9119  -43.8557 O.2       2 UNK        -0.4875 
     22 CA         19.1734  -23.7850  -44.8949 C.3       2 UNK         0.0481 
     23 CB         18.9209  -23.2989  -46.3381 C.3       2 UNK        -0.1831 
     24 N          18.1732  -24.7699  -44.4835 N.am      2 UNK        -0.4498 
     25 C          16.8944  -24.4938  -44.1910 C.2       1 UNK         0.5027 
     26 O          16.4104  -23.3618  -44.2489 O.2       1 UNK        -0.4969 
     27 C          22.4904  -26.8640  -44.3045 C.2       3 UNK         0.5005 
     28 O          23.6324  -26.8903  -43.8417 O.2       3 UNK        -0.5279 
     29 N          21.4496  -27.5207  -43.7715 N.am      4 UNK        -0.4463 
     30 CA         21.4236  -28.2978  -42.5255 C.3       4 UNK         0.0283 
     31 CB         21.6024  -27.3681  -41.3074 C.3       4 UNK        -0.1875 
     32 C          22.3882  -29.4982  -42.4661 C.2       4 UNK         0.4949 
     33 O          22.5792  -30.0494  -41.3828 O.2       4 UNK        -0.5039 
     34 N          22.9697  -29.8921  -43.6087 N.am      5 UNK        -0.4663 
     35 CA         23.9347  -30.9858  -43.7844 C.3       5 UNK         0.0242 
     36 CB         23.2323  -32.3500  -43.6111 C.3       5 UNK        -0.1982 
     37 C          25.1802  -30.8279  -42.8879 C.2       5 UNK         0.5017 
     38 O          25.6345  -31.8028  -42.2902 O.2       5 UNK        -0.5012 
     39 N          25.6743  -29.5843  -42.7694 N.am      6 UNK        -0.4439 
     40 CA         26.7455  -29.1535  -41.8581 C.3       6 UNK         0.0297 
     41 CB         28.1031  -29.7678  -42.2626 C.3       6 UNK        -0.2006 
     42 C          26.3851  -29.3980  -40.3766 C.2       6 UNK         0.4892 
     43 O          27.2187  -29.8694  -39.6021 O.2       6 UNK        -0.5089 
     44 N          25.1269  -29.0822  -40.0375 N.am      7 UNK        -0.4243 
     45 CA         24.4476  -29.2400  -38.7461 C.3       7 UNK         0.0196 
     46 CB         25.2179  -28.5551  -37.5974 C.3       7 UNK        -0.2007 
     47 C          24.0440  -30.6864  -38.4002 C.2       7 UNK         0.5020 
     48 O          23.4592  -30.8939  -37.3360 O.2       7 UNK        -0.5147 
     49 N          24.2876  -31.6591  -39.2930 N.am      8 UNK        -0.4734 
     50 CA         23.8605  -33.0545  -39.1195 C.3       8 UNK         0.0238 
     51 CB         24.5775  -33.9559  -40.1359 C.3       8 UNK        -0.1912 
     52 C          22.3340  -33.2468  -39.2028 C.2       8 UNK         0.5038 
     53 O          21.8292  -34.2344  -38.6670 O.2       8 UNK        -0.5046 
     54 N          21.6271  -32.3022  -39.8398 N.am      9 UNK        -0.4200 
     55 CA         20.1593  -32.2039  -39.8310 C.3       9 UNK         0.0839 
     56 C          19.5654  -31.7610  -38.4565 C.2       9 UNK         0.5513 
     57 N          20.3565  -31.2652  -37.5102 N.am      9 UNK        -0.7519 
     58 O          18.3644  -31.8845  -38.2332 O.2       9 UNK        -0.4960 
     59 C59        19.6640  -31.3044  -40.9965 C.3       10 UNK        -0.0876 
     60 S60        17.9732  -31.6924  -41.5602 S.3       10 UNK        -0.2414 
     61 C61        18.2466  -32.1922  -43.2891 C.3       10 UNK         0.0169 
     62 H62        17.1821  -28.5926  -40.7317 H         1 UNK         0.0903 
     63 H63        18.1048  -28.7327  -42.2280 H         1 UNK         0.0903 
     64 H64        18.7699  -27.8383  -40.8538 H         1 UNK         0.0903 
     65 H65        16.8415  -27.6035  -43.7364 H         1 UNK         0.3096 
     66 H66        15.3486  -25.2588  -42.9693 H         1 UNK         0.1121 
     67 H67        14.3233  -26.8554  -44.4738 H         1 UNK         0.0849 
     68 H68        14.4595  -25.3152  -45.2486 H         1 UNK         0.0849 
     69 H69        14.9880  -28.8964  -45.2489 H         1 UNK         0.0865 
     70 H70        15.4436  -29.1924  -46.9022 H         1 UNK         0.0865 
     71 H71        16.1763  -30.6386  -44.0998 H         1 UNK         0.1346 
     72 H72        20.3903  -31.1733  -44.6513 H         1 UNK         0.1412 
     73 H73        18.2579  -28.2821  -46.9965 H         1 UNK         0.1426 
     74 H74        20.9443  -30.1311  -47.3711 H         1 UNK         0.0716 
     75 H75        21.6392  -29.4299  -45.9391 H         1 UNK         0.0716 
     76 H76        22.7261  -26.3074  -47.6701 H         1 UNK         0.0695 
     77 H77        23.1586  -27.6970  -46.7390 H         1 UNK         0.0695 
     78 H78        22.9776  -25.2896  -45.6255 H         1 UNK         0.0983 
     79 H79        20.2487  -25.6649  -46.2527 H         1 UNK         0.3095 
     80 H80        19.1007  -22.9231  -44.2280 H         1 UNK         0.0454 
     81 H81        19.7314  -22.6555  -46.6831 H         1 UNK         0.0851 
     82 H82        18.0026  -22.7159  -46.4049 H         1 UNK         0.0851 
     83 H83        18.8353  -24.1273  -47.0419 H         1 UNK         0.0851 
     84 H84        18.4892  -25.7219  -44.3713 H         1 UNK         0.2976 
     85 H85        20.5739  -27.4718  -44.2723 H         1 UNK         0.3116 
     86 H86        20.4270  -28.7316  -42.4762 H         1 UNK         0.0646 
     87 H87        22.6099  -26.9537  -41.2601 H         1 UNK         0.0847 
     88 H88        20.9023  -26.5331  -41.3386 H         1 UNK         0.0847 
     89 H89        21.4259  -27.9013  -40.3724 H         1 UNK         0.0847 
     90 H90        22.7815  -29.3369  -44.4294 H         1 UNK         0.3040 
     91 H91        24.2975  -30.9294  -44.8121 H         1 UNK         0.1015 
     92 H92        23.9251  -33.1747  -43.7835 H         1 UNK         0.0786 
     93 H93        22.4152  -32.4674  -44.3219 H         1 UNK         0.0786 
     94 H94        22.8223  -32.4719  -42.6088 H         1 UNK         0.0786 
     95 H95        25.2098  -28.8446  -43.2825 H         1 UNK         0.3172 
     96 H96        26.8285  -28.0719  -41.9750 H         1 UNK         0.0595 
     97 H97        28.1216  -30.8482  -42.1162 H         1 UNK         0.0839 
     98 H98        28.9135  -29.3478  -41.6657 H         1 UNK         0.0839 
     99 H99        28.3345  -29.5667  -43.3084 H         1 UNK         0.0839 
    100 H100       24.5200  -28.7766  -40.7859 H         1 UNK         0.2998 
    101 H101       23.5041  -28.7041  -38.8597 H         1 UNK         0.0822 
    102 H102       24.6139  -28.5212  -36.6899 H         1 UNK         0.0787 
    103 H103       25.4784  -27.5273  -37.8498 H         1 UNK         0.0787 
    104 H104       26.1373  -29.0858  -37.3495 H         1 UNK         0.0787 
    105 H105       24.7448  -31.4231  -40.1653 H         1 UNK         0.3055 
    106 H106       24.1663  -33.3701  -38.1193 H         1 UNK         0.1106 
    107 H107       25.6591  -33.8279  -40.0910 H         1 UNK         0.0828 
    108 H108       24.3665  -35.0077  -39.9381 H         1 UNK         0.0828 
    109 H109       24.2570  -33.7506  -41.1564 H         1 UNK         0.0828 
    110 H110       22.1237  -31.5224  -40.2630 H         1 UNK         0.2931 
    111 H111       19.7857  -33.2133  -40.0140 H         1 UNK         0.0412 
    112 H112       19.9509  -30.9940  -36.6285 H         1 UNK         0.3472 
    113 H113       21.3561  -31.1840  -37.6463 H         1 UNK         0.3472 
    114 H114       19.7190  -30.2510  -40.7200 H         1 UNK         0.0970 
    115 H115       20.3254  -31.4217  -41.8544 H         1 UNK         0.0970 
    116 H116       19.1547  -32.7927  -43.3635 H         1 UNK         0.0612 
    117 H117       17.4302  -32.8530  -43.5842 H         1 UNK         0.0612 
@<TRIPOS>BOND
     1    1    2 1    
     2    1   62 1    
     3    1   63 1    
     4    1   64 1    
     5    2    3 2    
     6    2    4 am   BACKBONE|DICT|INTERRES
     7    4    5 1    
     8    4   65 1    
     9    5    6 1    
    10    5   25 1    
    11    5   66 1    
    12    6    7 1    
    13    6   67 1    
    14    6   68 1    
    15    7    8 1    
    16    8    9 1    
    17    8   69 1    
    18    8   70 1    
    19    9   10 ar   
    20    9   14 ar   
    21   10   11 ar   
    22   10   71 1    
    23   11   12 ar   
    24   11   61 1    
    25   12   13 ar   
    26   12   72 1    
    27   13   14 ar   
    28   13   15 1    
    29   14   73 1    
    30   15   16 1    
    31   15   74 1    
    32   15   75 1    
    33   16   17 1    
    34   17   18 1    
    35   17   76 1    
    36   17   77 1    
    37   18   19 1    
    38   18   27 1    
    39   18   78 1    
    40   19   20 am   BACKBONE|DICT|INTERRES
    41   19   79 1    
    42   20   21 2    
    43   20   22 1    
    44   22   23 1    
    45   22   24 1    
    46   22   80 1    
    47   23   81 1    
    48   23   82 1    
    49   23   83 1    
    50   24   25 am   BACKBONE|DICT|INTERRES
    51   24   84 1    
    52   25   26 2    
    53   27   28 2    
    54   27   29 am   BACKBONE|DICT|INTERRES
    55   29   30 1    
    56   29   85 1    
    57   30   31 1    
    58   30   32 1    
    59   30   86 1    
    60   31   87 1    
    61   31   88 1    
    62   31   89 1    
    63   32   33 2    
    64   32   34 am   BACKBONE|DICT|INTERRES
    65   34   35 1    
    66   34   90 1    
    67   35   36 1    
    68   35   37 1    
    69   35   91 1    
    70   36   92 1    
    71   36   93 1    
    72   36   94 1    
    73   37   38 2    
    74   37   39 am   BACKBONE|DICT|INTERRES
    75   39   40 1    
    76   39   95 1    
    77   40   41 1    
    78   40   42 1    
    79   40   96 1    
    80   41   97 1    
    81   41   98 1    
    82   41   99 1    
    83   42   43 2    
    84   42   44 am   BACKBONE|DICT|INTERRES
    85   44   45 1    
    86   44  100 1    
    87   45   46 1    
    88   45   47 1    
    89   45  101 1    
    90   46  102 1    
    91   46  103 1    
    92   46  104 1    
    93   47   48 2    
    94   47   49 am   BACKBONE|DICT|INTERRES
    95   49   50 1    
    96   49  105 1    
    97   50   51 1    
    98   50   52 1    
    99   50  106 1    
   100   51  107 1    
   101   51  108 1    
   102   51  109 1    
   103   52   53 2    
   104   52   54 am   BACKBONE|DICT|INTERRES
   105   54   55 1    
   106   54  110 1    
   107   55   56 1    
   108   55   59 1    
   109   55  111 1    
   110   56   57 am   BACKBONE|DICT|INTERRES
   111   56   58 2    
   112   57  112 1    
   113   57  113 1    
   114   59   60 1    
   115   59  114 1    
   116   59  115 1    
   117   60   61 1    
   118   61  116 1    
   119   61  117 1    
@<TRIPOS>SUBSTRUCTURE
     1 UNK         1 GROUP             0       ****    0 ROOT    
