@<TRIPOS>MOLECULE
3R8
117   119    1
SMALL
USER_CHARGES


@<TRIPOS>ATOM
      1 CA         16.0098  -23.7067  -47.2571 C.3       0 UNK        -0.2013 
      2 C          16.1052  -24.4715  -45.9455 C.2       0 UNK         0.4866 
      3 O          15.6251  -23.9857  -44.9215 O.2       0 UNK        -0.5176 
      4 N          16.7320  -25.6567  -45.9721 N.am      1 UNK        -0.4884 
      5 CA         16.9108  -26.5835  -44.8398 C.3       1 UNK         0.0853 
      6 C6         15.5713  -27.1654  -44.3009 C.3       10 UNK        -0.0849 
      7 S7         14.8024  -28.2766  -45.5308 S.3       10 UNK        -0.2776 
      8 C8         15.0831  -29.9290  -44.8007 C.3       10 UNK         0.0316 
      9 C9         16.5297  -30.1528  -44.3734 C.ar      10 UNK        -0.0863 
     10 C10        16.8421  -30.3266  -43.0205 C.ar      10 UNK        -0.1009 
     11 C11        18.1688  -30.4957  -42.6155 C.ar      10 UNK        -0.0712 
     12 C12        19.1871  -30.4899  -43.5712 C.ar      10 UNK        -0.0894 
     13 C13        18.8896  -30.3103  -44.9232 C.ar      10 UNK        -0.0745 
     14 C14        17.5574  -30.1628  -45.3224 C.ar      10 UNK        -0.0972 
     15 C15        20.0089  -30.2483  -45.9483 C.3       10 UNK         0.0209 
     16 S16        20.5672  -28.5346  -46.1972 S.3       10 UNK        -0.2568 
     17 C17        21.8184  -28.3485  -44.8797 C.3       10 UNK        -0.0983 
     18 CA         22.4051  -26.9137  -44.8755 C.3       3 UNK         0.0876 
     19 N          21.4026  -25.9035  -44.5063 N.am      3 UNK        -0.4424 
     20 C          20.9607  -25.5869  -43.2768 C.2       2 UNK         0.4918 
     21 O          21.3989  -26.0531  -42.2260 O.2       2 UNK        -0.4875 
     22 CA         19.7910  -24.5911  -43.2283 C.3       2 UNK         0.0481 
     23 CB         20.2313  -23.1836  -43.6650 C.3       2 UNK        -0.1831 
     24 N          18.6893  -25.0584  -44.0713 N.am      2 UNK        -0.4498 
     25 C          17.8419  -26.0415  -43.7298 C.2       1 UNK         0.5027 
     26 O          17.8102  -26.5415  -42.6041 O.2       1 UNK        -0.4969 
     27 C          23.7063  -26.7760  -44.0563 C.2       3 UNK         0.5005 
     28 O          24.0853  -27.6867  -43.3152 O.2       3 UNK        -0.5279 
     29 N          24.3324  -25.5940  -44.1708 N.am      4 UNK        -0.4463 
     30 CA         25.5615  -25.1243  -43.5112 C.3       4 UNK         0.0283 
     31 CB         26.7683  -26.0198  -43.8550 C.3       4 UNK        -0.1875 
     32 C          25.4381  -24.9269  -41.9891 C.2       4 UNK         0.4949 
     33 O          25.8881  -23.9009  -41.4787 O.2       4 UNK        -0.5039 
     34 N          24.8263  -25.8939  -41.3019 N.am      5 UNK        -0.4663 
     35 CA         24.5582  -25.8985  -39.8646 C.3       5 UNK         0.0242 
     36 CB         25.8604  -26.0836  -39.0596 C.3       5 UNK        -0.1982 
     37 C          23.5425  -26.9851  -39.4886 C.2       5 UNK         0.5017 
     38 O          22.7263  -26.7501  -38.5968 O.2       5 UNK        -0.5012 
     39 N          23.6146  -28.1473  -40.1537 N.am      6 UNK        -0.4439 
     40 CA         22.7557  -29.3107  -39.9221 C.3       6 UNK         0.0297 
     41 CB         22.9937  -29.9244  -38.5261 C.3       6 UNK        -0.2006 
     42 C          22.9774  -30.3718  -41.0047 C.2       6 UNK         0.4892 
     43 O          22.0006  -30.9419  -41.4894 O.2       6 UNK        -0.5089 
     44 N          24.2505  -30.6282  -41.3514 N.am      7 UNK        -0.4243 
     45 CA         24.7106  -31.6130  -42.3393 C.3       7 UNK         0.0196 
     46 CB         24.3880  -31.1325  -43.7724 C.3       7 UNK        -0.2007 
     47 C          24.1757  -33.0222  -42.0203 C.2       7 UNK         0.5020 
     48 O          24.6040  -33.6177  -41.0308 O.2       7 UNK        -0.5147 
     49 N          23.2229  -33.5079  -42.8276 N.am      8 UNK        -0.4734 
     50 CA         22.5221  -34.7838  -42.6562 C.3       8 UNK         0.0238 
     51 CB         21.5892  -35.0070  -43.8578 C.3       8 UNK        -0.1912 
     52 C          21.7329  -34.9016  -41.3386 C.2       8 UNK         0.5038 
     53 O          21.5385  -36.0218  -40.8641 O.2       8 UNK        -0.5046 
     54 N          21.3089  -33.7654  -40.7680 N.am      9 UNK        -0.4200 
     55 CA         20.6537  -33.6949  -39.4524 C.3       9 UNK         0.0839 
     56 C          21.6434  -33.7674  -38.2522 C.2       9 UNK         0.5513 
     57 N          22.9565  -33.7719  -38.4567 N.am      9 UNK        -0.7519 
     58 O          21.2076  -33.8271  -37.1055 O.2       9 UNK        -0.4960 
     59 C59        19.7075  -32.4706  -39.3289 C.3       10 UNK        -0.0876 
     60 S60        18.4576  -32.4145  -40.6598 S.3       10 UNK        -0.2414 
     61 C61        18.5139  -30.6624  -41.1461 C.3       10 UNK         0.0169 
     62 H62        16.4968  -22.7365  -47.1626 H         1 UNK         0.0903 
     63 H63        16.4810  -24.2443  -48.0797 H         1 UNK         0.0903 
     64 H64        14.9649  -23.5393  -47.5171 H         1 UNK         0.0903 
     65 H65        17.0977  -25.9924  -46.8532 H         1 UNK         0.3096 
     66 H66        17.4826  -27.4182  -45.2462 H         1 UNK         0.1121 
     67 H67        14.8687  -26.3686  -44.0549 H         1 UNK         0.0849 
     68 H68        15.7130  -27.7197  -43.3726 H         1 UNK         0.0849 
     69 H69        14.4068  -30.0557  -43.9538 H         1 UNK         0.0865 
     70 H70        14.8027  -30.6911  -45.5291 H         1 UNK         0.0865 
     71 H71        16.0562  -30.3200  -42.2777 H         1 UNK         0.1346 
     72 H72        20.2149  -30.6099  -43.2597 H         1 UNK         0.1412 
     73 H73        17.3216  -30.0166  -46.3679 H         1 UNK         0.1426 
     74 H74        20.8479  -30.8768  -45.6453 H         1 UNK         0.0716 
     75 H75        19.6580  -30.6462  -46.9017 H         1 UNK         0.0716 
     76 H76        21.3838  -28.5927  -43.9091 H         1 UNK         0.0695 
     77 H77        22.6026  -29.0818  -45.0706 H         1 UNK         0.0695 
     78 H78        22.6992  -26.6883  -45.9024 H         1 UNK         0.0983 
     79 H79        20.9561  -25.4517  -45.2901 H         1 UNK         0.3095 
     80 H80        19.4430  -24.5247  -42.1951 H         1 UNK         0.0454 
     81 H81        21.0591  -22.8277  -43.0499 H         1 UNK         0.0851 
     82 H82        20.5616  -23.1555  -44.7037 H         1 UNK         0.0851 
     83 H83        19.4181  -22.4659  -43.5553 H         1 UNK         0.0851 
     84 H84        18.6267  -24.6872  -45.0079 H         1 UNK         0.2976 
     85 H85        23.8908  -24.9045  -44.7641 H         1 UNK         0.3116 
     86 H86        25.7602  -24.1387  -43.9357 H         1 UNK         0.0646 
     87 H87        27.6886  -25.6053  -43.4415 H         1 UNK         0.0847 
     88 H88        26.9067  -26.1028  -44.9329 H         1 UNK         0.0847 
     89 H89        26.6608  -27.0274  -43.4524 H         1 UNK         0.0847 
     90 H90        24.4309  -26.6526  -41.8542 H         1 UNK         0.3040 
     91 H91        24.1145  -24.9360  -39.6002 H         1 UNK         0.1015 
     92 H92        26.5479  -25.2510  -39.2078 H         1 UNK         0.0786 
     93 H93        26.3800  -27.0004  -39.3403 H         1 UNK         0.0786 
     94 H94        25.6536  -26.1392  -37.9899 H         1 UNK         0.0786 
     95 H95        24.2594  -28.2299  -40.9283 H         1 UNK         0.3172 
     96 H96        21.7164  -28.9827  -39.9923 H         1 UNK         0.0595 
     97 H97        22.4153  -30.8384  -38.3948 H         1 UNK         0.0839 
     98 H98        22.6931  -29.2466  -37.7278 H         1 UNK         0.0839 
     99 H99        24.0421  -30.1800  -38.3696 H         1 UNK         0.0839 
    100 H100       24.9850  -30.1719  -40.8302 H         1 UNK         0.2998 
    101 H101       25.7962  -31.6701  -42.2460 H         1 UNK         0.0822 
    102 H102       24.8774  -30.1815  -43.9819 H         1 UNK         0.0787 
    103 H103       24.7450  -31.8436  -44.5187 H         1 UNK         0.0787 
    104 H104       23.3186  -30.9912  -43.9282 H         1 UNK         0.0787 
    105 H105       22.9141  -32.9223  -43.5898 H         1 UNK         0.3055 
    106 H106       23.2754  -35.5747  -42.6500 H         1 UNK         0.1106 
    107 H107       21.0712  -35.9638  -43.7774 H         1 UNK         0.0828 
    108 H108       20.8270  -34.2294  -43.9263 H         1 UNK         0.0828 
    109 H109       22.1438  -35.0200  -44.7963 H         1 UNK         0.0828 
    110 H110       21.5214  -32.8760  -41.2092 H         1 UNK         0.2931 
    111 H111       20.0221  -34.5803  -39.3565 H         1 UNK         0.0412 
    112 H112       23.5742  -33.8270  -37.6627 H         1 UNK         0.3472 
    113 H113       23.3453  -33.7406  -39.3920 H         1 UNK         0.3472 
    114 H114       20.2900  -31.5492  -39.3226 H         1 UNK         0.0970 
    115 H115       19.1739  -32.4950  -38.3769 H         1 UNK         0.0970 
    116 H116       19.5017  -30.2404  -40.9610 H         1 UNK         0.0612 
    117 H117       17.8196  -30.0948  -40.5249 H         1 UNK         0.0612 
@<TRIPOS>BOND
     1    1    2 1    
     2    1   62 1    
     3    1   63 1    
     4    1   64 1    
     5    2    3 2    
     6    2    4 am   BACKBONE|DICT|INTERRES
     7    4    5 1    
     8    4   65 1    
     9    5    6 1    
    10    5   25 1    
    11    5   66 1    
    12    6    7 1    
    13    6   67 1    
    14    6   68 1    
    15    7    8 1    
    16    8    9 1    
    17    8   69 1    
    18    8   70 1    
    19    9   10 ar   
    20    9   14 ar   
    21   10   11 ar   
    22   10   71 1    
    23   11   12 ar   
    24   11   61 1    
    25   12   13 ar   
    26   12   72 1    
    27   13   14 ar   
    28   13   15 1    
    29   14   73 1    
    30   15   16 1    
    31   15   74 1    
    32   15   75 1    
    33   16   17 1    
    34   17   18 1    
    35   17   76 1    
    36   17   77 1    
    37   18   19 1    
    38   18   27 1    
    39   18   78 1    
    40   19   20 am   BACKBONE|DICT|INTERRES
    41   19   79 1    
    42   20   21 2    
    43   20   22 1    
    44   22   23 1    
    45   22   24 1    
    46   22   80 1    
    47   23   81 1    
    48   23   82 1    
    49   23   83 1    
    50   24   25 am   BACKBONE|DICT|INTERRES
    51   24   84 1    
    52   25   26 2    
    53   27   28 2    
    54   27   29 am   BACKBONE|DICT|INTERRES
    55   29   30 1    
    56   29   85 1    
    57   30   31 1    
    58   30   32 1    
    59   30   86 1    
    60   31   87 1    
    61   31   88 1    
    62   31   89 1    
    63   32   33 2    
    64   32   34 am   BACKBONE|DICT|INTERRES
    65   34   35 1    
    66   34   90 1    
    67   35   36 1    
    68   35   37 1    
    69   35   91 1    
    70   36   92 1    
    71   36   93 1    
    72   36   94 1    
    73   37   38 2    
    74   37   39 am   BACKBONE|DICT|INTERRES
    75   39   40 1    
    76   39   95 1    
    77   40   41 1    
    78   40   42 1    
    79   40   96 1    
    80   41   97 1    
    81   41   98 1    
    82   41   99 1    
    83   42   43 2    
    84   42   44 am   BACKBONE|DICT|INTERRES
    85   44   45 1    
    86   44  100 1    
    87   45   46 1    
    88   45   47 1    
    89   45  101 1    
    90   46  102 1    
    91   46  103 1    
    92   46  104 1    
    93   47   48 2    
    94   47   49 am   BACKBONE|DICT|INTERRES
    95   49   50 1    
    96   49  105 1    
    97   50   51 1    
    98   50   52 1    
    99   50  106 1    
   100   51  107 1    
   101   51  108 1    
   102   51  109 1    
   103   52   53 2    
   104   52   54 am   BACKBONE|DICT|INTERRES
   105   54   55 1    
   106   54  110 1    
   107   55   56 1    
   108   55   59 1    
   109   55  111 1    
   110   56   57 am   BACKBONE|DICT|INTERRES
   111   56   58 2    
   112   57  112 1    
   113   57  113 1    
   114   59   60 1    
   115   59  114 1    
   116   59  115 1    
   117   60   61 1    
   118   61  116 1    
   119   61  117 1    
@<TRIPOS>SUBSTRUCTURE
     1 UNK         1 GROUP             0       ****    0 ROOT    
