@<TRIPOS>MOLECULE
3R8
117   119    1
SMALL
USER_CHARGES


@<TRIPOS>ATOM
      1 CA         16.4409  -23.0057  -44.3185 C.3       0 UNK        -0.2013 
      2 C          17.5728  -23.4341  -45.2400 C.2       0 UNK         0.4866 
      3 O          18.6057  -22.7663  -45.2930 O.2       0 UNK        -0.5176 
      4 N          17.3838  -24.5406  -45.9704 N.am      1 UNK        -0.4884 
      5 CA         18.3725  -25.1373  -46.8785 C.3       1 UNK         0.0853 
      6 C6         17.7309  -26.1906  -47.8236 C.3       10 UNK        -0.0849 
      7 S7         16.6801  -27.4228  -46.9695 S.3       10 UNK        -0.2776 
      8 C8         17.7908  -28.8725  -46.8968 C.3       10 UNK         0.0316 
      9 C9         17.4122  -29.9345  -45.8598 C.ar      10 UNK        -0.0863 
     10 C10        17.9750  -31.2101  -45.9777 C.ar      10 UNK        -0.1009 
     11 C11        17.6783  -32.2139  -45.0509 C.ar      10 UNK        -0.0712 
     12 C12        16.8011  -31.9419  -43.9982 C.ar      10 UNK        -0.0894 
     13 C13        16.2401  -30.6720  -43.8543 C.ar      10 UNK        -0.0745 
     14 C14        16.5512  -29.6737  -44.7832 C.ar      10 UNK        -0.0972 
     15 C15        15.2849  -30.3866  -42.7021 C.3       10 UNK         0.0209 
     16 S16        16.1417  -30.2717  -41.0967 S.3       10 UNK        -0.2568 
     17 C17        17.1963  -28.8051  -41.3431 C.3       10 UNK        -0.0983 
     18 CA         18.7154  -29.1639  -41.3272 C.3       3 UNK         0.0876 
     19 N          19.4587  -28.5933  -42.4564 N.am      3 UNK        -0.4424 
     20 C          19.5390  -27.2973  -42.7858 C.2       2 UNK         0.4918 
     21 O          18.9891  -26.3933  -42.1553 O.2       2 UNK        -0.4875 
     22 CA         20.3152  -26.9345  -44.0617 C.3       2 UNK         0.0481 
     23 CB         21.0405  -28.1298  -44.7245 C.3       2 UNK        -0.1831 
     24 N          19.3492  -26.3202  -44.9680 N.am      2 UNK        -0.4498 
     25 C          19.5974  -25.7101  -46.1331 C.2       1 UNK         0.5027 
     26 O          20.7200  -25.5829  -46.6238 O.2       1 UNK        -0.4969 
     27 C          19.4226  -28.8897  -39.9798 C.2       3 UNK         0.5005 
     28 O          18.7676  -28.6566  -38.9612 O.2       3 UNK        -0.5279 
     29 N          20.7599  -28.9181  -39.9985 N.am      4 UNK        -0.4463 
     30 CA         21.6391  -28.6867  -38.8580 C.3       4 UNK         0.0283 
     31 CB         21.7417  -27.1814  -38.5515 C.3       4 UNK        -0.1875 
     32 C          23.0106  -29.2551  -39.2151 C.2       4 UNK         0.4949 
     33 O          23.4331  -29.1159  -40.3634 O.2       4 UNK        -0.5039 
     34 N          23.6976  -29.8521  -38.2327 N.am      5 UNK        -0.4663 
     35 CA         24.9768  -30.5601  -38.3982 C.3       5 UNK         0.0242 
     36 CB         25.3780  -31.1911  -37.0551 C.3       5 UNK        -0.1982 
     37 C          26.1336  -29.7113  -38.9596 C.2       5 UNK         0.5017 
     38 O          27.0615  -30.2713  -39.5438 O.2       5 UNK        -0.5012 
     39 N          26.0492  -28.3847  -38.7946 N.am      6 UNK        -0.4439 
     40 CA         26.9708  -27.4052  -39.3738 C.3       6 UNK         0.0297 
     41 CB         26.7665  -26.0535  -38.6698 C.3       6 UNK        -0.2006 
     42 C          26.8244  -27.2406  -40.9008 C.2       6 UNK         0.4892 
     43 O          27.7505  -26.7245  -41.5281 O.2       6 UNK        -0.5089 
     44 N          25.6817  -27.6553  -41.4653 N.am      7 UNK        -0.4243 
     45 CA         25.3663  -27.5747  -42.8893 C.3       7 UNK         0.0196 
     46 CB         24.0841  -26.7416  -43.0806 C.3       7 UNK        -0.2007 
     47 C          25.2260  -28.9890  -43.4661 C.2       7 UNK         0.5020 
     48 O          26.0834  -29.4136  -44.2407 O.2       7 UNK        -0.5147 
     49 N          24.1595  -29.6893  -43.0661 N.am      8 UNK        -0.4734 
     50 CA         23.7702  -31.0390  -43.4697 C.3       8 UNK         0.0238 
     51 CB         23.5312  -31.1328  -44.9923 C.3       8 UNK        -0.1912 
     52 C          22.4791  -31.4065  -42.7283 C.2       8 UNK         0.5038 
     53 O          21.6870  -30.5160  -42.4025 O.2       8 UNK        -0.5046 
     54 N          22.2703  -32.7115  -42.5199 N.am      9 UNK        -0.4200 
     55 CA         21.0474  -33.3006  -41.9432 C.3       9 UNK         0.0839 
     56 C          20.7942  -32.9360  -40.4480 C.2       9 UNK         0.5513 
     57 N          21.8146  -32.5625  -39.6862 N.am      9 UNK        -0.7519 
     58 O          19.6690  -33.0154  -39.9625 O.2       9 UNK        -0.4960 
     59 C59        19.7918  -33.0758  -42.8343 C.3       10 UNK        -0.0876 
     60 S60        20.0256  -33.6101  -44.5653 S.3       10 UNK        -0.2414 
     61 C61        18.3117  -33.5917  -45.1786 C.3       10 UNK         0.0169 
     62 H62        16.1113  -21.9983  -44.5716 H         1 UNK         0.0903 
     63 H63        15.5811  -23.6716  -44.3908 H         1 UNK         0.0903 
     64 H64        16.7816  -23.0034  -43.2834 H         1 UNK         0.0903 
     65 H65        16.5118  -25.0475  -45.8979 H         1 UNK         0.3096 
     66 H66        18.7562  -24.3301  -47.5073 H         1 UNK         0.1121 
     67 H67        17.0940  -25.6741  -48.5435 H         1 UNK         0.0849 
     68 H68        18.4891  -26.6952  -48.4262 H         1 UNK         0.0849 
     69 H69        17.8145  -29.3266  -47.8887 H         1 UNK         0.0865 
     70 H70        18.8070  -28.5406  -46.6907 H         1 UNK         0.0865 
     71 H71        18.6568  -31.4246  -46.7897 H         1 UNK         0.1346 
     72 H72        16.5651  -32.7136  -43.2782 H         1 UNK         0.1412 
     73 H73        16.1148  -28.6937  -44.6566 H         1 UNK         0.1426 
     74 H74        14.7273  -29.4653  -42.8783 H         1 UNK         0.0716 
     75 H75        14.5422  -31.1837  -42.6468 H         1 UNK         0.0716 
     76 H76        16.9190  -28.3458  -42.2916 H         1 UNK         0.0695 
     77 H77        16.9381  -28.0524  -40.5965 H         1 UNK         0.0695 
     78 H78        18.8109  -30.2412  -41.4674 H         1 UNK         0.0983 
     79 H79        20.0044  -29.2621  -42.9863 H         1 UNK         0.3095 
     80 H80        21.0562  -26.1802  -43.7914 H         1 UNK         0.0454 
     81 H81        20.3604  -28.9384  -44.9923 H         1 UNK         0.0851 
     82 H82        21.5720  -27.8346  -45.6281 H         1 UNK         0.0851 
     83 H83        21.7933  -28.5367  -44.0530 H         1 UNK         0.0851 
     84 H84        18.3940  -26.3238  -44.6357 H         1 UNK         0.2976 
     85 H85        21.2384  -29.2001  -40.8509 H         1 UNK         0.3116 
     86 H86        21.2450  -29.2178  -37.9891 H         1 UNK         0.0646 
     87 H87        22.4162  -26.9960  -37.7148 H         1 UNK         0.0847 
     88 H88        20.7725  -26.7618  -38.2822 H         1 UNK         0.0847 
     89 H89        22.1201  -26.6222  -39.4085 H         1 UNK         0.0847 
     90 H90        23.2838  -29.8907  -37.3116 H         1 UNK         0.3040 
     91 H91        24.8087  -31.3658  -39.1160 H         1 UNK         0.1015 
     92 H92        24.6202  -31.8908  -36.7020 H         1 UNK         0.0786 
     93 H93        25.5257  -30.4353  -36.2826 H         1 UNK         0.0786 
     94 H94        26.3111  -31.7491  -37.1475 H         1 UNK         0.0786 
     95 H95        25.2501  -28.0239  -38.2944 H         1 UNK         0.3172 
     96 H96        27.9913  -27.7410  -39.1776 H         1 UNK         0.0595 
     97 H97        27.4631  -25.3055  -39.0516 H         1 UNK         0.0839 
     98 H98        26.9384  -26.1334  -37.5962 H         1 UNK         0.0839 
     99 H99        25.7583  -25.6660  -38.8227 H         1 UNK         0.0839 
    100 H100       24.9901  -28.1255  -40.8877 H         1 UNK         0.2998 
    101 H101       26.1704  -27.0793  -43.4376 H         1 UNK         0.0822 
    102 H102       24.2460  -25.7049  -42.7854 H         1 UNK         0.0787 
    103 H103       23.7738  -26.7343  -44.1264 H         1 UNK         0.0787 
    104 H104       23.2510  -27.1237  -42.4895 H         1 UNK         0.0787 
    105 H105       23.5623  -29.3001  -42.3404 H         1 UNK         0.3055 
    106 H106       24.5633  -31.7283  -43.1736 H         1 UNK         0.1106 
    107 H107       24.4483  -30.9769  -45.5592 H         1 UNK         0.0828 
    108 H108       22.7992  -30.4007  -45.3328 H         1 UNK         0.0828 
    109 H109       23.1541  -32.1180  -45.2706 H         1 UNK         0.0828 
    110 H110       22.9691  -33.3745  -42.8214 H         1 UNK         0.2931 
    111 H111       21.2315  -34.3753  -41.9297 H         1 UNK         0.0412 
    112 H112       21.6512  -32.3511  -38.7154 H         1 UNK         0.3472 
    113 H113       22.7424  -32.5064  -40.0717 H         1 UNK         0.3472 
    114 H114       19.5106  -32.0227  -42.8361 H         1 UNK         0.0970 
    115 H115       18.9379  -33.6193  -42.4259 H         1 UNK         0.0970 
    116 H116       17.7279  -34.3370  -44.6362 H         1 UNK         0.0612 
    117 H117       18.3070  -33.9013  -46.2247 H         1 UNK         0.0612 
@<TRIPOS>BOND
     1    1    2 1    
     2    1   62 1    
     3    1   63 1    
     4    1   64 1    
     5    2    3 2    
     6    2    4 am   BACKBONE|DICT|INTERRES
     7    4    5 1    
     8    4   65 1    
     9    5    6 1    
    10    5   25 1    
    11    5   66 1    
    12    6    7 1    
    13    6   67 1    
    14    6   68 1    
    15    7    8 1    
    16    8    9 1    
    17    8   69 1    
    18    8   70 1    
    19    9   10 ar   
    20    9   14 ar   
    21   10   11 ar   
    22   10   71 1    
    23   11   12 ar   
    24   11   61 1    
    25   12   13 ar   
    26   12   72 1    
    27   13   14 ar   
    28   13   15 1    
    29   14   73 1    
    30   15   16 1    
    31   15   74 1    
    32   15   75 1    
    33   16   17 1    
    34   17   18 1    
    35   17   76 1    
    36   17   77 1    
    37   18   19 1    
    38   18   27 1    
    39   18   78 1    
    40   19   20 am   BACKBONE|DICT|INTERRES
    41   19   79 1    
    42   20   21 2    
    43   20   22 1    
    44   22   23 1    
    45   22   24 1    
    46   22   80 1    
    47   23   81 1    
    48   23   82 1    
    49   23   83 1    
    50   24   25 am   BACKBONE|DICT|INTERRES
    51   24   84 1    
    52   25   26 2    
    53   27   28 2    
    54   27   29 am   BACKBONE|DICT|INTERRES
    55   29   30 1    
    56   29   85 1    
    57   30   31 1    
    58   30   32 1    
    59   30   86 1    
    60   31   87 1    
    61   31   88 1    
    62   31   89 1    
    63   32   33 2    
    64   32   34 am   BACKBONE|DICT|INTERRES
    65   34   35 1    
    66   34   90 1    
    67   35   36 1    
    68   35   37 1    
    69   35   91 1    
    70   36   92 1    
    71   36   93 1    
    72   36   94 1    
    73   37   38 2    
    74   37   39 am   BACKBONE|DICT|INTERRES
    75   39   40 1    
    76   39   95 1    
    77   40   41 1    
    78   40   42 1    
    79   40   96 1    
    80   41   97 1    
    81   41   98 1    
    82   41   99 1    
    83   42   43 2    
    84   42   44 am   BACKBONE|DICT|INTERRES
    85   44   45 1    
    86   44  100 1    
    87   45   46 1    
    88   45   47 1    
    89   45  101 1    
    90   46  102 1    
    91   46  103 1    
    92   46  104 1    
    93   47   48 2    
    94   47   49 am   BACKBONE|DICT|INTERRES
    95   49   50 1    
    96   49  105 1    
    97   50   51 1    
    98   50   52 1    
    99   50  106 1    
   100   51  107 1    
   101   51  108 1    
   102   51  109 1    
   103   52   53 2    
   104   52   54 am   BACKBONE|DICT|INTERRES
   105   54   55 1    
   106   54  110 1    
   107   55   56 1    
   108   55   59 1    
   109   55  111 1    
   110   56   57 am   BACKBONE|DICT|INTERRES
   111   56   58 2    
   112   57  112 1    
   113   57  113 1    
   114   59   60 1    
   115   59  114 1    
   116   59  115 1    
   117   60   61 1    
   118   61  116 1    
   119   61  117 1    
@<TRIPOS>SUBSTRUCTURE
     1 UNK         1 GROUP             0       ****    0 ROOT    
