@<TRIPOS>MOLECULE
3R8
117   119    1
SMALL
USER_CHARGES


@<TRIPOS>ATOM
      1 CA         15.5215  -22.6449  -43.5716 C.3       0 UNK        -0.2013 
      2 C          16.1324  -23.8728  -44.2291 C.2       0 UNK         0.4866 
      3 O          16.8634  -24.6130  -43.5694 O.2       0 UNK        -0.5176 
      4 N          15.8423  -24.0854  -45.5233 N.am      1 UNK        -0.4884 
      5 CA         16.3133  -25.1996  -46.3588 C.3       1 UNK         0.0853 
      6 C6         15.5968  -26.5306  -45.9968 C.3       10 UNK        -0.0849 
      7 S7         15.8937  -27.8574  -47.2194 S.3       10 UNK        -0.2776 
      8 C8         15.5839  -29.3655  -46.2437 C.3       10 UNK         0.0316 
      9 C9         16.6165  -29.5627  -45.1427 C.ar      10 UNK        -0.0863 
     10 C10        17.8767  -30.0913  -45.4354 C.ar      10 UNK        -0.1009 
     11 C11        18.8260  -30.2657  -44.4225 C.ar      10 UNK        -0.0712 
     12 C12        18.5077  -29.9047  -43.1094 C.ar      10 UNK        -0.0894 
     13 C13        17.2533  -29.3643  -42.8072 C.ar      10 UNK        -0.0745 
     14 C14        16.3075  -29.2188  -43.8252 C.ar      10 UNK        -0.0972 
     15 C15        16.9000  -28.9343  -41.3896 C.3       10 UNK         0.0209 
     16 S16        16.5124  -27.1520  -41.3081 S.3       10 UNK        -0.2568 
     17 C17        18.0767  -26.3739  -40.7788 C.3       10 UNK        -0.0983 
     18 CA         19.3322  -26.7574  -41.5995 C.3       3 UNK         0.0876 
     19 N          19.2256  -26.4157  -43.0290 N.am      3 UNK        -0.4424 
     20 C          20.1061  -26.8180  -43.9640 C.2       2 UNK         0.4918 
     21 O          21.1082  -27.4812  -43.6952 O.2       2 UNK        -0.4875 
     22 CA         19.8596  -26.3931  -45.4205 C.3       2 UNK         0.0481 
     23 CB         20.4908  -27.3528  -46.4458 C.3       2 UNK        -0.1831 
     24 N          18.4318  -26.2612  -45.6839 N.am      2 UNK        -0.4498 
     25 C          17.8589  -25.2563  -46.3558 C.2       1 UNK         0.5027 
     26 O          18.4893  -24.3629  -46.9260 O.2       1 UNK        -0.4969 
     27 C          20.6062  -26.2078  -40.9231 C.2       3 UNK         0.5005 
     28 O          21.0362  -26.7705  -39.9154 O.2       3 UNK        -0.5279 
     29 N          21.2289  -25.1772  -41.5155 N.am      4 UNK        -0.4463 
     30 CA         22.5412  -24.6407  -41.1398 C.3       4 UNK         0.0283 
     31 CB         22.8481  -23.4106  -42.0089 C.3       4 UNK        -0.1875 
     32 C          23.6954  -25.6619  -41.2291 C.2       4 UNK         0.4949 
     33 O          24.7157  -25.4617  -40.5701 O.2       4 UNK        -0.5039 
     34 N          23.5203  -26.7398  -42.0113 N.am      5 UNK        -0.4663 
     35 CA         24.4421  -27.8784  -42.0698 C.3       5 UNK         0.0242 
     36 CB         24.0859  -28.7539  -43.2833 C.3       5 UNK        -0.1982 
     37 C          24.4318  -28.7278  -40.7852 C.2       5 UNK         0.5017 
     38 O          25.4342  -29.3819  -40.4947 O.2       5 UNK        -0.5012 
     39 N          23.3103  -28.7089  -40.0458 N.am      6 UNK        -0.4439 
     40 CA         23.0508  -29.4567  -38.8126 C.3       6 UNK         0.0297 
     41 CB         23.8159  -28.8115  -37.6345 C.3       6 UNK        -0.2006 
     42 C          23.3115  -30.9658  -38.9949 C.2       6 UNK         0.4892 
     43 O          22.6835  -31.5843  -39.8570 O.2       6 UNK        -0.5089 
     44 N          24.2501  -31.5214  -38.2160 N.am      7 UNK        -0.4243 
     45 CA         24.6697  -32.9245  -38.2505 C.3       7 UNK         0.0196 
     46 CB         25.6705  -33.1785  -37.1118 C.3       7 UNK        -0.2007 
     47 C          25.2623  -33.3821  -39.5958 C.2       7 UNK         0.5020 
     48 O          25.1973  -34.5746  -39.8957 O.2       7 UNK        -0.5147 
     49 N          25.7923  -32.4501  -40.4045 N.am      8 UNK        -0.4734 
     50 CA         26.3157  -32.7379  -41.7458 C.3       8 UNK         0.0238 
     51 CB         27.1838  -31.5685  -42.2376 C.3       8 UNK        -0.1912 
     52 C          25.2227  -33.0933  -42.7726 C.2       8 UNK         0.5038 
     53 O          25.5595  -33.6269  -43.8304 O.2       8 UNK        -0.5046 
     54 N          23.9469  -32.8343  -42.4441 N.am      9 UNK        -0.4200 
     55 CA         22.7871  -33.3662  -43.1753 C.3       9 UNK         0.0839 
     56 C          22.5691  -34.8999  -42.9752 C.2       9 UNK         0.5513 
     57 N          23.1911  -35.5460  -41.9936 N.am      9 UNK        -0.7519 
     58 O          21.8366  -35.5253  -43.7367 O.2       9 UNK        -0.4960 
     59 C59        21.5000  -32.5496  -42.8697 C.3       10 UNK        -0.0876 
     60 S60        20.3201  -32.5797  -44.2673 S.3       10 UNK        -0.2414 
     61 C61        20.2001  -30.8298  -44.7508 C.3       10 UNK         0.0169 
     62 H62        16.3085  -21.9800  -43.2170 H         1 UNK         0.0903 
     63 H63        14.8867  -22.0854  -44.2583 H         1 UNK         0.0903 
     64 H64        14.9161  -22.9426  -42.7158 H         1 UNK         0.0903 
     65 H65        15.2651  -23.4100  -46.0059 H         1 UNK         0.3096 
     66 H66        16.0306  -24.9464  -47.3823 H         1 UNK         0.1121 
     67 H67        14.5190  -26.3641  -45.9617 H         1 UNK         0.0849 
     68 H68        15.8708  -26.8506  -44.9926 H         1 UNK         0.0849 
     69 H69        14.5761  -29.3255  -45.8269 H         1 UNK         0.0865 
     70 H70        15.5993  -30.2274  -46.9125 H         1 UNK         0.0865 
     71 H71        18.1187  -30.3622  -46.4542 H         1 UNK         0.1346 
     72 H72        19.2441  -30.0410  -42.3296 H         1 UNK         0.1412 
     73 H73        15.3337  -28.8107  -43.5898 H         1 UNK         0.1426 
     74 H74        17.6924  -29.1821  -40.6821 H         1 UNK         0.0716 
     75 H75        16.0210  -29.4942  -41.0676 H         1 UNK         0.0716 
     76 H76        17.9311  -25.2923  -40.8050 H         1 UNK         0.0695 
     77 H77        18.2162  -26.6327  -39.7270 H         1 UNK         0.0695 
     78 H78        19.4482  -27.8384  -41.5451 H         1 UNK         0.0983 
     79 H79        18.4211  -25.8530  -43.2960 H         1 UNK         0.3095 
     80 H80        20.3455  -25.4212  -45.5247 H         1 UNK         0.0454 
     81 H81        21.5631  -27.4632  -46.2797 H         1 UNK         0.0851 
     82 H82        20.0458  -28.3451  -46.3923 H         1 UNK         0.0851 
     83 H83        20.3595  -26.9841  -47.4630 H         1 UNK         0.0851 
     84 H84        17.8364  -26.9572  -45.2540 H         1 UNK         0.2976 
     85 H85        20.7959  -24.7797  -42.3365 H         1 UNK         0.3116 
     86 H86        22.4764  -24.3182  -40.0986 H         1 UNK         0.0646 
     87 H87        23.8054  -22.9663  -41.7323 H         1 UNK         0.0847 
     88 H88        22.0893  -22.6372  -41.8879 H         1 UNK         0.0847 
     89 H89        22.9032  -23.6674  -43.0676 H         1 UNK         0.0847 
     90 H90        22.6589  -26.8327  -42.5407 H         1 UNK         0.3040 
     91 H91        25.4555  -27.4936  -42.2042 H         1 UNK         0.1015 
     92 H92        24.0847  -28.1744  -44.2066 H         1 UNK         0.0786 
     93 H93        23.1018  -29.2115  -43.1748 H         1 UNK         0.0786 
     94 H94        24.8040  -29.5635  -43.4111 H         1 UNK         0.0786 
     95 H95        22.5523  -28.1047  -40.3444 H         1 UNK         0.3172 
     96 H96        21.9837  -29.3545  -38.6101 H         1 UNK         0.0595 
     97 H97        23.5357  -27.7639  -37.5213 H         1 UNK         0.0839 
     98 H98        24.8971  -28.8442  -37.7747 H         1 UNK         0.0839 
     99 H99        23.5815  -29.3035  -36.6895 H         1 UNK         0.0839 
    100 H100       24.7313  -30.9240  -37.5595 H         1 UNK         0.2998 
    101 H101       23.7819  -33.5341  -38.0688 H         1 UNK         0.0822 
    102 H102       25.2322  -32.9542  -36.1391 H         1 UNK         0.0787 
    103 H103       25.9811  -34.2243  -37.0908 H         1 UNK         0.0787 
    104 H104       26.5712  -32.5735  -37.2241 H         1 UNK         0.0787 
    105 H105       25.7696  -31.4752  -40.1230 H         1 UNK         0.3055 
    106 H106       26.9618  -33.6152  -41.6654 H         1 UNK         0.1106 
    107 H107       26.5971  -30.6680  -42.4085 H         1 UNK         0.0828 
    108 H108       27.9698  -31.3267  -41.5221 H         1 UNK         0.0828 
    109 H109       27.6712  -31.8175  -43.1811 H         1 UNK         0.0828 
    110 H110       23.7494  -32.4048  -41.5477 H         1 UNK         0.2931 
    111 H111       23.0142  -33.2301  -44.2348 H         1 UNK         0.0412 
    112 H112       23.0400  -36.5372  -41.8911 H         1 UNK         0.3472 
    113 H113       23.8205  -35.0693  -41.3589 H         1 UNK         0.3472 
    114 H114       21.7570  -31.5145  -42.6423 H         1 UNK         0.0970 
    115 H115       21.0023  -32.9209  -41.9716 H         1 UNK         0.0970 
    116 H116       20.3911  -30.7595  -45.8224 H         1 UNK         0.0612 
    117 H117       20.9727  -30.2275  -44.2724 H         1 UNK         0.0612 
@<TRIPOS>BOND
     1    1    2 1    
     2    1   62 1    
     3    1   63 1    
     4    1   64 1    
     5    2    3 2    
     6    2    4 am   BACKBONE|DICT|INTERRES
     7    4    5 1    
     8    4   65 1    
     9    5    6 1    
    10    5   25 1    
    11    5   66 1    
    12    6    7 1    
    13    6   67 1    
    14    6   68 1    
    15    7    8 1    
    16    8    9 1    
    17    8   69 1    
    18    8   70 1    
    19    9   10 ar   
    20    9   14 ar   
    21   10   11 ar   
    22   10   71 1    
    23   11   12 ar   
    24   11   61 1    
    25   12   13 ar   
    26   12   72 1    
    27   13   14 ar   
    28   13   15 1    
    29   14   73 1    
    30   15   16 1    
    31   15   74 1    
    32   15   75 1    
    33   16   17 1    
    34   17   18 1    
    35   17   76 1    
    36   17   77 1    
    37   18   19 1    
    38   18   27 1    
    39   18   78 1    
    40   19   20 am   BACKBONE|DICT|INTERRES
    41   19   79 1    
    42   20   21 2    
    43   20   22 1    
    44   22   23 1    
    45   22   24 1    
    46   22   80 1    
    47   23   81 1    
    48   23   82 1    
    49   23   83 1    
    50   24   25 am   BACKBONE|DICT|INTERRES
    51   24   84 1    
    52   25   26 2    
    53   27   28 2    
    54   27   29 am   BACKBONE|DICT|INTERRES
    55   29   30 1    
    56   29   85 1    
    57   30   31 1    
    58   30   32 1    
    59   30   86 1    
    60   31   87 1    
    61   31   88 1    
    62   31   89 1    
    63   32   33 2    
    64   32   34 am   BACKBONE|DICT|INTERRES
    65   34   35 1    
    66   34   90 1    
    67   35   36 1    
    68   35   37 1    
    69   35   91 1    
    70   36   92 1    
    71   36   93 1    
    72   36   94 1    
    73   37   38 2    
    74   37   39 am   BACKBONE|DICT|INTERRES
    75   39   40 1    
    76   39   95 1    
    77   40   41 1    
    78   40   42 1    
    79   40   96 1    
    80   41   97 1    
    81   41   98 1    
    82   41   99 1    
    83   42   43 2    
    84   42   44 am   BACKBONE|DICT|INTERRES
    85   44   45 1    
    86   44  100 1    
    87   45   46 1    
    88   45   47 1    
    89   45  101 1    
    90   46  102 1    
    91   46  103 1    
    92   46  104 1    
    93   47   48 2    
    94   47   49 am   BACKBONE|DICT|INTERRES
    95   49   50 1    
    96   49  105 1    
    97   50   51 1    
    98   50   52 1    
    99   50  106 1    
   100   51  107 1    
   101   51  108 1    
   102   51  109 1    
   103   52   53 2    
   104   52   54 am   BACKBONE|DICT|INTERRES
   105   54   55 1    
   106   54  110 1    
   107   55   56 1    
   108   55   59 1    
   109   55  111 1    
   110   56   57 am   BACKBONE|DICT|INTERRES
   111   56   58 2    
   112   57  112 1    
   113   57  113 1    
   114   59   60 1    
   115   59  114 1    
   116   59  115 1    
   117   60   61 1    
   118   61  116 1    
   119   61  117 1    
@<TRIPOS>SUBSTRUCTURE
     1 UNK         1 GROUP             0       ****    0 ROOT    
