@<TRIPOS>MOLECULE
3R8
117   119    1
SMALL
USER_CHARGES


@<TRIPOS>ATOM
      1 CA         16.4782  -22.9225  -43.7983 C.3       0 UNK        -0.2013 
      2 C          16.4048  -23.7061  -45.1070 C.2       0 UNK         0.4866 
      3 O          15.9512  -23.1487  -46.1042 O.2       0 UNK        -0.5176 
      4 N          16.8284  -24.9775  -45.1847 N.am      1 UNK        -0.4884 
      5 CA         17.4011  -25.8468  -44.1409 C.3       1 UNK         0.0853 
      6 C6         16.4410  -26.1510  -42.9543 C.3       10 UNK        -0.0849 
      7 S7         14.9455  -27.0331  -43.5264 S.3       10 UNK        -0.2776 
      8 C8         15.2113  -28.7328  -42.9068 C.3       10 UNK         0.0316 
      9 C9         16.5953  -29.2794  -43.2391 C.ar      10 UNK        -0.0863 
     10 C10        17.4890  -29.5930  -42.2095 C.ar      10 UNK        -0.1009 
     11 C11        18.7767  -30.0508  -42.5005 C.ar      10 UNK        -0.0712 
     12 C12        19.1711  -30.1853  -43.8339 C.ar      10 UNK        -0.0894 
     13 C13        18.2917  -29.8726  -44.8717 C.ar      10 UNK        -0.0745 
     14 C14        16.9948  -29.4454  -44.5693 C.ar      10 UNK        -0.0972 
     15 C15        18.7517  -29.9630  -46.3173 C.3       10 UNK         0.0209 
     16 S16        19.2305  -28.3193  -46.9401 S.3       10 UNK        -0.2568 
     17 C17        21.0423  -28.4518  -47.1930 C.3       10 UNK        -0.0983 
     18 CA         21.9353  -27.7016  -46.1602 C.3       3 UNK         0.0876 
     19 N          21.3121  -26.4641  -45.6880 N.am      3 UNK        -0.4424 
     20 C          21.8744  -25.5138  -44.9288 C.2       2 UNK         0.4918 
     21 O          23.0639  -25.5050  -44.6082 O.2       2 UNK        -0.4875 
     22 CA         20.9529  -24.3701  -44.4588 C.3       2 UNK         0.0481 
     23 CB         21.2420  -23.0870  -45.2539 C.3       2 UNK        -0.1831 
     24 N          19.5302  -24.7050  -44.5920 N.am      2 UNK        -0.4498 
     25 C          18.8287  -25.4389  -43.7142 C.2       1 UNK         0.5027 
     26 O          19.2727  -25.8033  -42.6269 O.2       1 UNK        -0.4969 
     27 C          22.3808  -28.6075  -44.9934 C.2       3 UNK         0.5005 
     28 O          21.8339  -28.5179  -43.8921 O.2       3 UNK        -0.5279 
     29 N          23.4042  -29.4401  -45.2470 N.am      4 UNK        -0.4463 
     30 CA         24.0637  -30.3393  -44.2846 C.3       4 UNK         0.0283 
     31 CB         23.1387  -31.5248  -43.9400 C.3       4 UNK        -0.1875 
     32 C          24.5694  -29.5993  -43.0273 C.2       4 UNK         0.4949 
     33 O          24.4257  -30.0996  -41.9102 O.2       4 UNK        -0.5039 
     34 N          25.0704  -28.3701  -43.2287 N.am      5 UNK        -0.4663 
     35 CA         25.4891  -27.3984  -42.2069 C.3       5 UNK         0.0242 
     36 CB         26.7748  -27.8889  -41.5067 C.3       5 UNK        -0.1982 
     37 C          24.3867  -27.0251  -41.1890 C.2       5 UNK         0.5017 
     38 O          24.7114  -26.5070  -40.1196 O.2       5 UNK        -0.5012 
     39 N          23.1177  -27.3196  -41.5185 N.am      6 UNK        -0.4439 
     40 CA         21.9304  -27.2420  -40.6638 C.3       6 UNK         0.0297 
     41 CB         21.6137  -25.7750  -40.3028 C.3       6 UNK        -0.2006 
     42 C          22.0032  -28.1529  -39.4174 C.2       6 UNK         0.4892 
     43 O          21.3301  -27.8571  -38.4279 O.2       6 UNK        -0.5089 
     44 N          22.8086  -29.2287  -39.4617 N.am      7 UNK        -0.4243 
     45 CA         23.0881  -30.0677  -38.2903 C.3       7 UNK         0.0196 
     46 CB         24.2224  -29.4344  -37.4628 C.3       7 UNK        -0.2007 
     47 C          23.4206  -31.5318  -38.6110 C.2       7 UNK         0.5020 
     48 O          23.1235  -32.3933  -37.7835 O.2       7 UNK        -0.5147 
     49 N          24.0408  -31.8135  -39.7650 N.am      8 UNK        -0.4734 
     50 CA         24.5061  -33.1576  -40.1349 C.3       8 UNK         0.0238 
     51 CB         25.7559  -33.0312  -41.0246 C.3       8 UNK        -0.1912 
     52 C          23.4259  -34.0231  -40.8105 C.2       8 UNK         0.5038 
     53 O          23.7024  -35.1810  -41.1287 O.2       8 UNK        -0.5046 
     54 N          22.2330  -33.4578  -41.0326 N.am      9 UNK        -0.4200 
     55 CA         21.0504  -34.1457  -41.5666 C.3       9 UNK         0.0839 
     56 C          20.5055  -35.2680  -40.6366 C.2       9 UNK         0.5513 
     57 N          19.7998  -36.2416  -41.1966 N.am      9 UNK        -0.7519 
     58 O          20.6882  -35.2547  -39.4208 O.2       9 UNK        -0.4960 
     59 C59        19.9442  -33.1371  -41.9750 C.3       10 UNK        -0.0876 
     60 S60        19.4340  -31.9985  -40.6361 S.3       10 UNK        -0.2414 
     61 C61        19.7493  -30.3651  -41.3732 C.3       10 UNK         0.0169 
     62 H62        16.6068  -21.8607  -44.0076 H         1 UNK         0.0903 
     63 H63        17.3055  -23.2232  -43.1601 H         1 UNK         0.0903 
     64 H64        15.5490  -23.0391  -43.2415 H         1 UNK         0.0903 
     65 H65        16.7297  -25.4345  -46.0812 H         1 UNK         0.3096 
     66 H66        17.5715  -26.7974  -44.6460 H         1 UNK         0.1121 
     67 H67        16.1365  -25.2411  -42.4395 H         1 UNK         0.0849 
     68 H68        16.9345  -26.7573  -42.1934 H         1 UNK         0.0849 
     69 H69        15.0420  -28.7405  -41.8289 H         1 UNK         0.0865 
     70 H70        14.4546  -29.3899  -43.3375 H         1 UNK         0.0865 
     71 H71        17.1903  -29.4706  -41.1773 H         1 UNK         0.1346 
     72 H72        20.1737  -30.5112  -44.0674 H         1 UNK         0.1412 
     73 H73        16.3116  -29.1935  -45.3693 H         1 UNK         0.1426 
     74 H74        19.5739  -30.6727  -46.4160 H         1 UNK         0.0716 
     75 H75        17.9407  -30.3511  -46.9351 H         1 UNK         0.0716 
     76 H76        21.2311  -28.0188  -48.1765 H         1 UNK         0.0695 
     77 H77        21.3336  -29.4985  -47.2969 H         1 UNK         0.0695 
     78 H78        22.8502  -27.3994  -46.6747 H         1 UNK         0.0983 
     79 H79        20.3228  -26.4011  -45.8722 H         1 UNK         0.3095 
     80 H80        21.1770  -24.1749  -43.4085 H         1 UNK         0.0454 
     81 H81        20.6347  -22.2546  -44.8984 H         1 UNK         0.0851 
     82 H82        21.0458  -23.2164  -46.3190 H         1 UNK         0.0851 
     83 H83        22.2867  -22.7909  -45.1493 H         1 UNK         0.0851 
     84 H84        19.0728  -24.4244  -45.4485 H         1 UNK         0.2976 
     85 H85        23.8007  -29.4405  -46.1776 H         1 UNK         0.3116 
     86 H86        24.9471  -30.7392  -44.7843 H         1 UNK         0.0646 
     87 H87        22.7319  -31.9906  -44.8372 H         1 UNK         0.0847 
     88 H88        23.6793  -32.2972  -43.3949 H         1 UNK         0.0847 
     89 H89        22.3043  -31.2120  -43.3146 H         1 UNK         0.0847 
     90 H90        25.1047  -28.0343  -44.1815 H         1 UNK         0.3040 
     91 H91        25.7267  -26.4756  -42.7389 H         1 UNK         0.1015 
     92 H92        27.5507  -28.1381  -42.2305 H         1 UNK         0.0786 
     93 H93        26.5897  -28.7730  -40.8955 H         1 UNK         0.0786 
     94 H94        27.1838  -27.1202  -40.8499 H         1 UNK         0.0786 
     95 H95        22.9445  -27.7379  -42.4294 H         1 UNK         0.3172 
     96 H96        21.1048  -27.6161  -41.2708 H         1 UNK         0.0595 
     97 H97        21.6034  -25.1425  -41.1898 H         1 UNK         0.0839 
     98 H98        22.3397  -25.3616  -39.6023 H         1 UNK         0.0839 
     99 H99        20.6297  -25.6924  -39.8401 H         1 UNK         0.0839 
    100 H100       23.3251  -29.4219  -40.3134 H         1 UNK         0.2998 
    101 H101       22.1928  -30.1042  -37.6653 H         1 UNK         0.0822 
    102 H102       23.9434  -28.4465  -37.0958 H         1 UNK         0.0787 
    103 H103       24.4642  -30.0453  -36.5919 H         1 UNK         0.0787 
    104 H104       25.1339  -29.3257  -38.0521 H         1 UNK         0.0787 
    105 H105       24.2456  -31.0782  -40.4403 H         1 UNK         0.3055 
    106 H106       24.8043  -33.6902  -39.2288 H         1 UNK         0.1106 
    107 H107       26.5376  -32.4554  -40.5290 H         1 UNK         0.0828 
    108 H108       26.1751  -34.0119  -41.2531 H         1 UNK         0.0828 
    109 H109       25.5356  -32.5448  -41.9738 H         1 UNK         0.0828 
    110 H110       22.0833  -32.5205  -40.6924 H         1 UNK         0.2931 
    111 H111       21.3810  -34.6406  -42.4822 H         1 UNK         0.0412 
    112 H112       19.6388  -36.2655  -42.1917 H         1 UNK         0.3472 
    113 H113       19.4270  -36.9742  -40.6124 H         1 UNK         0.3472 
    114 H114       20.2994  -32.5592  -42.8269 H         1 UNK         0.0970 
    115 H115       19.0571  -33.6590  -42.3384 H         1 UNK         0.0970 
    116 H116       20.7823  -30.3054  -41.7185 H         1 UNK         0.0612 
    117 H117       19.6454  -29.6107  -40.5926 H         1 UNK         0.0612 
@<TRIPOS>BOND
     1    1    2 1    
     2    1   62 1    
     3    1   63 1    
     4    1   64 1    
     5    2    3 2    
     6    2    4 am   BACKBONE|DICT|INTERRES
     7    4    5 1    
     8    4   65 1    
     9    5    6 1    
    10    5   25 1    
    11    5   66 1    
    12    6    7 1    
    13    6   67 1    
    14    6   68 1    
    15    7    8 1    
    16    8    9 1    
    17    8   69 1    
    18    8   70 1    
    19    9   10 ar   
    20    9   14 ar   
    21   10   11 ar   
    22   10   71 1    
    23   11   12 ar   
    24   11   61 1    
    25   12   13 ar   
    26   12   72 1    
    27   13   14 ar   
    28   13   15 1    
    29   14   73 1    
    30   15   16 1    
    31   15   74 1    
    32   15   75 1    
    33   16   17 1    
    34   17   18 1    
    35   17   76 1    
    36   17   77 1    
    37   18   19 1    
    38   18   27 1    
    39   18   78 1    
    40   19   20 am   BACKBONE|DICT|INTERRES
    41   19   79 1    
    42   20   21 2    
    43   20   22 1    
    44   22   23 1    
    45   22   24 1    
    46   22   80 1    
    47   23   81 1    
    48   23   82 1    
    49   23   83 1    
    50   24   25 am   BACKBONE|DICT|INTERRES
    51   24   84 1    
    52   25   26 2    
    53   27   28 2    
    54   27   29 am   BACKBONE|DICT|INTERRES
    55   29   30 1    
    56   29   85 1    
    57   30   31 1    
    58   30   32 1    
    59   30   86 1    
    60   31   87 1    
    61   31   88 1    
    62   31   89 1    
    63   32   33 2    
    64   32   34 am   BACKBONE|DICT|INTERRES
    65   34   35 1    
    66   34   90 1    
    67   35   36 1    
    68   35   37 1    
    69   35   91 1    
    70   36   92 1    
    71   36   93 1    
    72   36   94 1    
    73   37   38 2    
    74   37   39 am   BACKBONE|DICT|INTERRES
    75   39   40 1    
    76   39   95 1    
    77   40   41 1    
    78   40   42 1    
    79   40   96 1    
    80   41   97 1    
    81   41   98 1    
    82   41   99 1    
    83   42   43 2    
    84   42   44 am   BACKBONE|DICT|INTERRES
    85   44   45 1    
    86   44  100 1    
    87   45   46 1    
    88   45   47 1    
    89   45  101 1    
    90   46  102 1    
    91   46  103 1    
    92   46  104 1    
    93   47   48 2    
    94   47   49 am   BACKBONE|DICT|INTERRES
    95   49   50 1    
    96   49  105 1    
    97   50   51 1    
    98   50   52 1    
    99   50  106 1    
   100   51  107 1    
   101   51  108 1    
   102   51  109 1    
   103   52   53 2    
   104   52   54 am   BACKBONE|DICT|INTERRES
   105   54   55 1    
   106   54  110 1    
   107   55   56 1    
   108   55   59 1    
   109   55  111 1    
   110   56   57 am   BACKBONE|DICT|INTERRES
   111   56   58 2    
   112   57  112 1    
   113   57  113 1    
   114   59   60 1    
   115   59  114 1    
   116   59  115 1    
   117   60   61 1    
   118   61  116 1    
   119   61  117 1    
@<TRIPOS>SUBSTRUCTURE
     1 UNK         1 GROUP             0       ****    0 ROOT    
