@<TRIPOS>MOLECULE
3R8
117   119    1
SMALL
USER_CHARGES


@<TRIPOS>ATOM
      1 CA         20.3060  -28.9981  -40.7686 C.3       0 UNK        -0.2013 
      2 C          19.3884  -27.7938  -40.8936 C.2       0 UNK         0.4866 
      3 O          19.4894  -26.8641  -40.0948 O.2       0 UNK        -0.5176 
      4 N          18.4955  -27.7972  -41.8929 N.am      1 UNK        -0.4884 
      5 CA         17.6042  -26.6682  -42.2042 C.3       1 UNK         0.0853 
      6 C6         16.4427  -27.0702  -43.1488 C.3       10 UNK        -0.0849 
      7 S7         15.5224  -28.5383  -42.5728 S.3       10 UNK        -0.2776 
      8 C8         15.1732  -29.4012  -44.1410 C.3       10 UNK         0.0316 
      9 C9         16.4320  -29.9338  -44.8156 C.ar      10 UNK        -0.0863 
     10 C10        17.1102  -31.0296  -44.2737 C.ar      10 UNK        -0.1009 
     11 C11        18.2502  -31.5416  -44.9014 C.ar      10 UNK        -0.0712 
     12 C12        18.7107  -30.9490  -46.0822 C.ar      10 UNK        -0.0894 
     13 C13        18.0279  -29.8679  -46.6476 C.ar      10 UNK        -0.0745 
     14 C14        16.8937  -29.3609  -46.0056 C.ar      10 UNK        -0.0972 
     15 C15        18.4702  -29.2878  -47.9848 C.3       10 UNK         0.0209 
     16 S16        19.2987  -27.6786  -47.8090 S.3       10 UNK        -0.2568 
     17 C17        20.9898  -28.1841  -47.3432 C.3       10 UNK        -0.0983 
     18 CA         21.9638  -26.9713  -47.2613 C.3       3 UNK         0.0876 
     19 N          21.4612  -25.9203  -46.3582 N.am      3 UNK        -0.4424 
     20 C          21.2783  -26.0377  -45.0354 C.2       2 UNK         0.4918 
     21 O          21.7613  -26.9495  -44.3589 O.2       2 UNK        -0.4875 
     22 CA         20.3569  -25.0175  -44.3472 C.3       2 UNK         0.0481 
     23 CB         19.6359  -24.0594  -45.3262 C.3       2 UNK        -0.1831 
     24 N          19.4133  -25.8425  -43.6043 N.am      2 UNK        -0.4498 
     25 C          18.3894  -25.4902  -42.8196 C.2       1 UNK         0.5027 
     26 O          18.0563  -24.3298  -42.5768 O.2       1 UNK        -0.4969 
     27 C          23.4188  -27.4133  -46.9693 C.2       3 UNK         0.5005 
     28 O          23.8146  -28.5106  -47.3664 O.2       3 UNK        -0.5279 
     29 N          24.1786  -26.5630  -46.2586 N.am      4 UNK        -0.4463 
     30 CA         25.5166  -26.8031  -45.6985 C.3       4 UNK         0.0283 
     31 CB         26.5610  -27.0067  -46.8168 C.3       4 UNK        -0.1875 
     32 C          25.5633  -27.9277  -44.6387 C.2       4 UNK         0.4949 
     33 O          26.6517  -28.4037  -44.3135 O.2       4 UNK        -0.5039 
     34 N          24.4000  -28.3239  -44.1006 N.am      5 UNK        -0.4663 
     35 CA         24.2657  -29.3748  -43.0884 C.3       5 UNK         0.0242 
     36 CB         22.8969  -30.0511  -43.2546 C.3       5 UNK        -0.1982 
     37 C          24.4381  -28.8490  -41.6547 C.2       5 UNK         0.5017 
     38 O          24.6498  -29.6561  -40.7482 O.2       5 UNK        -0.5012 
     39 N          24.3323  -27.5235  -41.4724 N.am      6 UNK        -0.4439 
     40 CA         24.4795  -26.7412  -40.2364 C.3       6 UNK         0.0297 
     41 CB         25.9111  -26.8450  -39.6723 C.3       6 UNK        -0.2006 
     42 C          23.4226  -27.0524  -39.1612 C.2       6 UNK         0.4892 
     43 O          22.6439  -26.1676  -38.8076 O.2       6 UNK        -0.5089 
     44 N          23.4201  -28.2946  -38.6687 N.am      7 UNK        -0.4243 
     45 CA         22.4882  -28.8324  -37.6774 C.3       7 UNK         0.0196 
     46 CB         22.8886  -28.3488  -36.2680 C.3       7 UNK        -0.2007 
     47 C          22.3881  -30.3700  -37.7416 C.2       7 UNK         0.5020 
     48 O          21.7904  -30.9600  -36.8414 O.2       7 UNK        -0.5147 
     49 N          22.9850  -31.0118  -38.7610 N.am      8 UNK        -0.4734 
     50 CA         23.0838  -32.4731  -38.8640 C.3       8 UNK         0.0238 
     51 CB         24.1187  -32.8375  -39.9415 C.3       8 UNK        -0.1912 
     52 C          21.7487  -33.1835  -39.1460 C.2       8 UNK         0.5038 
     53 O          21.5529  -34.3009  -38.6657 O.2       8 UNK        -0.5046 
     54 N          20.8741  -32.5428  -39.9308 N.am      9 UNK        -0.4200 
     55 CA         19.5544  -33.0694  -40.3107 C.3       9 UNK         0.0839 
     56 C          18.5629  -33.0561  -39.1178 C.2       9 UNK         0.5513 
     57 N          17.7910  -34.1188  -38.9371 N.am      9 UNK        -0.7519 
     58 O          18.4548  -32.0715  -38.3904 O.2       9 UNK        -0.4960 
     59 C59        18.9525  -32.3195  -41.5269 C.3       10 UNK        -0.0876 
     60 S60        20.0771  -32.3165  -42.9677 S.3       10 UNK        -0.2414 
     61 C61        18.9621  -32.7608  -44.3326 C.3       10 UNK         0.0169 
     62 H62        20.2602  -29.6257  -41.6561 H         1 UNK         0.0903 
     63 H63        21.3370  -28.6698  -40.6491 H         1 UNK         0.0903 
     64 H64        20.0276  -29.5924  -39.8987 H         1 UNK         0.0903 
     65 H65        18.4049  -28.6042  -42.4946 H         1 UNK         0.3096 
     66 H66        17.1695  -26.3144  -41.2663 H         1 UNK         0.1121 
     67 H67        16.8220  -27.2548  -44.1548 H         1 UNK         0.0849 
     68 H68        15.7329  -26.2462  -43.2447 H         1 UNK         0.0849 
     69 H69        14.4985  -30.2346  -43.9396 H         1 UNK         0.0865 
     70 H70        14.6296  -28.7284  -44.8063 H         1 UNK         0.0865 
     71 H71        16.7415  -31.4874  -43.3666 H         1 UNK         0.1346 
     72 H72        19.5851  -31.3488  -46.5775 H         1 UNK         0.1412 
     73 H73        16.3624  -28.5279  -46.4460 H         1 UNK         0.1426 
     74 H74        17.5933  -29.1568  -48.6205 H         1 UNK         0.0716 
     75 H75        19.1236  -29.9819  -48.5156 H         1 UNK         0.0716 
     76 H76        21.3368  -28.9066  -48.0842 H         1 UNK         0.0695 
     77 H77        20.9478  -28.7146  -46.3899 H         1 UNK         0.0695 
     78 H78        22.0026  -26.5184  -48.2534 H         1 UNK         0.0983 
     79 H79        21.0363  -25.1297  -46.8211 H         1 UNK         0.3095 
     80 H80        20.9545  -24.4406  -43.6399 H         1 UNK         0.0454 
     81 H81        19.0078  -23.3438  -44.7969 H         1 UNK         0.0851 
     82 H82        18.9973  -24.5986  -46.0277 H         1 UNK         0.0851 
     83 H83        20.3485  -23.4679  -45.9020 H         1 UNK         0.0851 
     84 H84        19.6227  -26.8308  -43.6711 H         1 UNK         0.2976 
     85 H85        23.7478  -25.6889  -45.9899 H         1 UNK         0.3116 
     86 H86        25.7839  -25.8883  -45.1676 H         1 UNK         0.0646 
     87 H87        26.4143  -27.9500  -47.3433 H         1 UNK         0.0847 
     88 H88        26.5200  -26.2021  -47.5508 H         1 UNK         0.0847 
     89 H89        27.5729  -27.0193  -46.4102 H         1 UNK         0.0847 
     90 H90        23.5396  -27.8762  -44.4028 H         1 UNK         0.3040 
     91 H91        25.0378  -30.1312  -43.2471 H         1 UNK         0.1015 
     92 H92        22.7460  -30.8263  -42.5027 H         1 UNK         0.0786 
     93 H93        22.8078  -30.5279  -44.2309 H         1 UNK         0.0786 
     94 H94        22.0795  -29.3370  -43.1613 H         1 UNK         0.0786 
     95 H95        24.1110  -26.9816  -42.2960 H         1 UNK         0.3172 
     96 H96        24.3263  -25.7012  -40.5295 H         1 UNK         0.0595 
     97 H97        26.1727  -27.8641  -39.3868 H         1 UNK         0.0839 
     98 H98        26.0256  -26.2211  -38.7848 H         1 UNK         0.0839 
     99 H99        26.6469  -26.5064  -40.4018 H         1 UNK         0.0839 
    100 H100       24.0973  -28.9400  -39.0627 H         1 UNK         0.2998 
    101 H101       21.4899  -28.4512  -37.9034 H         1 UNK         0.0822 
    102 H102       22.1895  -28.7083  -35.5118 H         1 UNK         0.0787 
    103 H103       22.8925  -27.2607  -36.2037 H         1 UNK         0.0787 
    104 H104       23.8820  -28.7041  -35.9917 H         1 UNK         0.0787 
    105 H105       23.4681  -30.4876  -39.4834 H         1 UNK         0.3055 
    106 H106       23.4494  -32.8499  -37.9058 H         1 UNK         0.1106 
    107 H107       25.0970  -32.4148  -39.7116 H         1 UNK         0.0828 
    108 H108       24.2432  -33.9188  -40.0147 H         1 UNK         0.0828 
    109 H109       23.8223  -32.4762  -40.9268 H         1 UNK         0.0828 
    110 H110       21.1149  -31.6290  -40.2780 H         1 UNK         0.2931 
    111 H111       19.7026  -34.1081  -40.6149 H         1 UNK         0.0412 
    112 H112       17.1279  -34.1197  -38.1775 H         1 UNK         0.3472 
    113 H113       17.8683  -34.9276  -39.5346 H         1 UNK         0.3472 
    114 H114       18.6957  -31.2918  -41.2703 H         1 UNK         0.0970 
    115 H115       18.0111  -32.7933  -41.8090 H         1 UNK         0.0970 
    116 H116       19.5539  -33.2428  -45.1122 H         1 UNK         0.0612 
    117 H117       18.2369  -33.5073  -44.0058 H         1 UNK         0.0612 
@<TRIPOS>BOND
     1    1    2 1    
     2    1   62 1    
     3    1   63 1    
     4    1   64 1    
     5    2    3 2    
     6    2    4 am   BACKBONE|DICT|INTERRES
     7    4    5 1    
     8    4   65 1    
     9    5    6 1    
    10    5   25 1    
    11    5   66 1    
    12    6    7 1    
    13    6   67 1    
    14    6   68 1    
    15    7    8 1    
    16    8    9 1    
    17    8   69 1    
    18    8   70 1    
    19    9   10 ar   
    20    9   14 ar   
    21   10   11 ar   
    22   10   71 1    
    23   11   12 ar   
    24   11   61 1    
    25   12   13 ar   
    26   12   72 1    
    27   13   14 ar   
    28   13   15 1    
    29   14   73 1    
    30   15   16 1    
    31   15   74 1    
    32   15   75 1    
    33   16   17 1    
    34   17   18 1    
    35   17   76 1    
    36   17   77 1    
    37   18   19 1    
    38   18   27 1    
    39   18   78 1    
    40   19   20 am   BACKBONE|DICT|INTERRES
    41   19   79 1    
    42   20   21 2    
    43   20   22 1    
    44   22   23 1    
    45   22   24 1    
    46   22   80 1    
    47   23   81 1    
    48   23   82 1    
    49   23   83 1    
    50   24   25 am   BACKBONE|DICT|INTERRES
    51   24   84 1    
    52   25   26 2    
    53   27   28 2    
    54   27   29 am   BACKBONE|DICT|INTERRES
    55   29   30 1    
    56   29   85 1    
    57   30   31 1    
    58   30   32 1    
    59   30   86 1    
    60   31   87 1    
    61   31   88 1    
    62   31   89 1    
    63   32   33 2    
    64   32   34 am   BACKBONE|DICT|INTERRES
    65   34   35 1    
    66   34   90 1    
    67   35   36 1    
    68   35   37 1    
    69   35   91 1    
    70   36   92 1    
    71   36   93 1    
    72   36   94 1    
    73   37   38 2    
    74   37   39 am   BACKBONE|DICT|INTERRES
    75   39   40 1    
    76   39   95 1    
    77   40   41 1    
    78   40   42 1    
    79   40   96 1    
    80   41   97 1    
    81   41   98 1    
    82   41   99 1    
    83   42   43 2    
    84   42   44 am   BACKBONE|DICT|INTERRES
    85   44   45 1    
    86   44  100 1    
    87   45   46 1    
    88   45   47 1    
    89   45  101 1    
    90   46  102 1    
    91   46  103 1    
    92   46  104 1    
    93   47   48 2    
    94   47   49 am   BACKBONE|DICT|INTERRES
    95   49   50 1    
    96   49  105 1    
    97   50   51 1    
    98   50   52 1    
    99   50  106 1    
   100   51  107 1    
   101   51  108 1    
   102   51  109 1    
   103   52   53 2    
   104   52   54 am   BACKBONE|DICT|INTERRES
   105   54   55 1    
   106   54  110 1    
   107   55   56 1    
   108   55   59 1    
   109   55  111 1    
   110   56   57 am   BACKBONE|DICT|INTERRES
   111   56   58 2    
   112   57  112 1    
   113   57  113 1    
   114   59   60 1    
   115   59  114 1    
   116   59  115 1    
   117   60   61 1    
   118   61  116 1    
   119   61  117 1    
@<TRIPOS>SUBSTRUCTURE
     1 UNK         1 GROUP             0       ****    0 ROOT    
