@<TRIPOS>MOLECULE
3R8
117   119    1
SMALL
USER_CHARGES


@<TRIPOS>ATOM
      1 CA         16.1756  -33.1763  -44.9693 C.3       0 UNK        -0.2013 
      2 C          16.3973  -31.7464  -45.4393 C.2       0 UNK         0.4866 
      3 O          16.2002  -31.4536  -46.6191 O.2       0 UNK        -0.5176 
      4 N          16.8057  -30.8622  -44.5218 N.am      1 UNK        -0.4884 
      5 CA         17.1379  -29.4526  -44.7563 C.3       1 UNK         0.0853 
      6 C6         15.9299  -28.5589  -45.1534 C.3       10 UNK        -0.0849 
      7 S7         14.7396  -28.4512  -43.7750 S.3       10 UNK        -0.2776 
      8 C8         15.0579  -26.7739  -43.1198 C.3       10 UNK         0.0316 
      9 C9         16.4773  -26.5587  -42.5921 C.ar      10 UNK        -0.0863 
     10 C10        17.0394  -27.4340  -41.6546 C.ar      10 UNK        -0.1009 
     11 C11        18.3192  -27.2011  -41.1385 C.ar      10 UNK        -0.0712 
     12 C12        19.0218  -26.0598  -41.5349 C.ar      10 UNK        -0.0894 
     13 C13        18.4838  -25.1854  -42.4813 C.ar      10 UNK        -0.0745 
     14 C14        17.2124  -25.4415  -43.0065 C.ar      10 UNK        -0.0972 
     15 C15        19.2605  -23.9480  -42.9139 C.3       10 UNK         0.0209 
     16 S16        19.9570  -24.1259  -44.5875 S.3       10 UNK        -0.2568 
     17 C17        21.5490  -24.9808  -44.2932 C.3       10 UNK        -0.0983 
     18 CA         21.4337  -26.5254  -44.1666 C.3       3 UNK         0.0876 
     19 N          20.5567  -27.1339  -45.1731 N.am      3 UNK        -0.4424 
     20 C          20.7539  -27.2479  -46.4938 C.2       2 UNK         0.4918 
     21 O          21.7816  -26.8854  -47.0665 O.2       2 UNK        -0.4875 
     22 CA         19.5991  -27.8582  -47.3218 C.3       2 UNK         0.0481 
     23 CB         20.0994  -28.9744  -48.2624 C.3       2 UNK        -0.1831 
     24 N          18.4435  -28.3072  -46.5223 N.am      2 UNK        -0.4498 
     25 C          18.4044  -29.3102  -45.6296 C.2       1 UNK         0.5027 
     26 O          19.3656  -30.0485  -45.4036 O.2       1 UNK        -0.4969 
     27 C          22.8056  -27.2266  -44.0213 C.2       3 UNK         0.5005 
     28 O          23.7536  -26.6076  -43.5343 O.2       3 UNK        -0.5279 
     29 N          22.8774  -28.5082  -44.4202 N.am      4 UNK        -0.4463 
     30 CA         24.0453  -29.3948  -44.3975 C.3       4 UNK         0.0283 
     31 CB         23.5984  -30.8133  -44.7884 C.3       4 UNK        -0.1875 
     32 C          24.7740  -29.4025  -43.0430 C.2       4 UNK         0.4949 
     33 O          24.2553  -29.9504  -42.0665 O.2       4 UNK        -0.5039 
     34 N          25.9311  -28.7248  -43.0018 N.am      5 UNK        -0.4663 
     35 CA         26.8105  -28.5018  -41.8420 C.3       5 UNK         0.0242 
     36 CB         27.4528  -29.8372  -41.4080 C.3       5 UNK        -0.1982 
     37 C          26.1451  -27.7847  -40.6457 C.2       5 UNK         0.5017 
     38 O          26.7417  -27.7432  -39.5689 O.2       5 UNK        -0.5012 
     39 N          24.9155  -27.2780  -40.8360 N.am      6 UNK        -0.4439 
     40 CA         23.9635  -26.8300  -39.8130 C.3       6 UNK         0.0297 
     41 CB         24.4031  -25.4728  -39.2263 C.3       6 UNK        -0.2006 
     42 C          23.6858  -27.8944  -38.7240 C.2       6 UNK         0.4892 
     43 O          23.4246  -27.5296  -37.5757 O.2       6 UNK        -0.5089 
     44 N          23.7655  -29.1847  -39.0882 N.am      7 UNK        -0.4243 
     45 CA         23.6653  -30.3085  -38.1522 C.3       7 UNK         0.0196 
     46 CB         25.0138  -30.5311  -37.4419 C.3       7 UNK        -0.2007 
     47 C          23.1898  -31.6013  -38.8247 C.2       7 UNK         0.5020 
     48 O          22.3476  -32.2970  -38.2572 O.2       7 UNK        -0.5147 
     49 N          23.7120  -31.9087  -40.0208 N.am      8 UNK        -0.4734 
     50 CA         23.3242  -33.0865  -40.8103 C.3       8 UNK         0.0238 
     51 CB         24.4394  -33.4063  -41.8197 C.3       8 UNK        -0.1912 
     52 C          21.9708  -32.9086  -41.5241 C.2       8 UNK         0.5038 
     53 O          21.4052  -33.8887  -42.0092 O.2       8 UNK        -0.5046 
     54 N          21.4852  -31.6640  -41.5665 N.am      9 UNK        -0.4200 
     55 CA         20.1895  -31.2317  -42.0966 C.3       9 UNK         0.0839 
     56 C          18.9285  -31.7746  -41.3653 C.2       9 UNK         0.5513 
     57 N          19.0421  -32.3436  -40.1715 N.am      9 UNK        -0.7519 
     58 O          17.8269  -31.6740  -41.9013 O.2       9 UNK        -0.4960 
     59 C59        20.1519  -29.6900  -42.2202 C.3       10 UNK        -0.0876 
     60 S60        20.5743  -28.7855  -40.6901 S.3       10 UNK        -0.2414 
     61 C61        18.9416  -28.1770  -40.1465 C.3       10 UNK         0.0169 
     62 H62        16.3915  -33.2933  -43.9071 H         1 UNK         0.0903 
     63 H63        15.1405  -33.4713  -45.1395 H         1 UNK         0.0903 
     64 H64        16.8208  -33.8576  -45.5231 H         1 UNK         0.0903 
     65 H65        16.9949  -31.1888  -43.5767 H         1 UNK         0.3096 
     66 H66        17.4569  -29.0859  -43.7860 H         1 UNK         0.1121 
     67 H67        15.4227  -28.9495  -46.0368 H         1 UNK         0.0849 
     68 H68        16.2368  -27.5416  -45.3994 H         1 UNK         0.0849 
     69 H69        14.8197  -26.0469  -43.8979 H         1 UNK         0.0865 
     70 H70        14.3572  -26.5827  -42.3060 H         1 UNK         0.0865 
     71 H71        16.4780  -28.3000  -41.3305 H         1 UNK         0.1346 
     72 H72        20.0000  -25.8646  -41.1166 H         1 UNK         0.1412 
     73 H73        16.7901  -24.7532  -43.7265 H         1 UNK         0.1426 
     74 H74        20.0547  -23.7122  -42.2039 H         1 UNK         0.0716 
     75 H75        18.5876  -23.0894  -42.9085 H         1 UNK         0.0716 
     76 H76        22.0153  -24.5564  -43.4022 H         1 UNK         0.0695 
     77 H77        22.2078  -24.7274  -45.1258 H         1 UNK         0.0695 
     78 H78        20.9461  -26.7276  -43.2159 H         1 UNK         0.0983 
     79 H79        19.6610  -27.4380  -44.8257 H         1 UNK         0.3095 
     80 H80        19.2243  -27.0480  -47.9487 H         1 UNK         0.0454 
     81 H81        20.5726  -29.7901  -47.7154 H         1 UNK         0.0851 
     82 H82        20.8386  -28.5894  -48.9658 H         1 UNK         0.0851 
     83 H83        19.2833  -29.3938  -48.8506 H         1 UNK         0.0851 
     84 H84        17.6090  -27.7491  -46.6388 H         1 UNK         0.2976 
     85 H85        22.0384  -28.9069  -44.8162 H         1 UNK         0.3116 
     86 H86        24.7360  -29.0384  -45.1641 H         1 UNK         0.0646 
     87 H87        23.1623  -30.8329  -45.7873 H         1 UNK         0.0847 
     88 H88        24.4442  -31.5018  -44.7936 H         1 UNK         0.0847 
     89 H89        22.8580  -31.2107  -44.0936 H         1 UNK         0.0847 
     90 H90        26.2233  -28.2587  -43.8505 H         1 UNK         0.3040 
     91 H91        27.6086  -27.8396  -42.1816 H         1 UNK         0.1015 
     92 H92        26.7159  -30.5268  -40.9951 H         1 UNK         0.0786 
     93 H93        28.2127  -29.6788  -40.6417 H         1 UNK         0.0786 
     94 H94        27.9421  -30.3330  -42.2462 H         1 UNK         0.0786 
     95 H95        24.5501  -27.3060  -41.7838 H         1 UNK         0.3172 
     96 H96        23.0160  -26.6755  -40.3314 H         1 UNK         0.0595 
     97 H97        25.3228  -25.5633  -38.6474 H         1 UNK         0.0839 
     98 H98        23.6392  -25.0657  -38.5628 H         1 UNK         0.0839 
     99 H99        24.5719  -24.7371  -40.0125 H         1 UNK         0.0839 
    100 H100       23.9382  -29.4004  -40.0642 H         1 UNK         0.2998 
    101 H101       22.9161  -30.0626  -37.3959 H         1 UNK         0.0822 
    102 H102       24.9651  -31.3846  -36.7642 H         1 UNK         0.0787 
    103 H103       25.8168  -30.7218  -38.1550 H         1 UNK         0.0787 
    104 H104       25.2975  -29.6628  -36.8470 H         1 UNK         0.0787 
    105 H105       24.3525  -31.2680  -40.4746 H         1 UNK         0.3055 
    106 H106       23.2205  -33.9406  -40.1370 H         1 UNK         0.1106 
    107 H107       24.1955  -34.2950  -42.4034 H         1 UNK         0.0828 
    108 H108       24.5972  -32.5892  -42.5228 H         1 UNK         0.0828 
    109 H109       25.3860  -33.6013  -41.3157 H         1 UNK         0.0828 
    110 H110       22.0454  -30.9336  -41.1520 H         1 UNK         0.2931 
    111 H111       20.1286  -31.6350  -43.1093 H         1 UNK         0.0412 
    112 H112       18.2167  -32.6932  -39.7112 H         1 UNK         0.3472 
    113 H113       19.9420  -32.4173  -39.7226 H         1 UNK         0.3472 
    114 H114       20.8617  -29.3878  -42.9847 H         1 UNK         0.0970 
    115 H115       19.1862  -29.3553  -42.5822 H         1 UNK         0.0970 
    116 H116       18.2860  -29.0322  -39.9749 H         1 UNK         0.0612 
    117 H117       19.0568  -27.6767  -39.1843 H         1 UNK         0.0612 
@<TRIPOS>BOND
     1    1    2 1    
     2    1   62 1    
     3    1   63 1    
     4    1   64 1    
     5    2    3 2    
     6    2    4 am   BACKBONE|DICT|INTERRES
     7    4    5 1    
     8    4   65 1    
     9    5    6 1    
    10    5   25 1    
    11    5   66 1    
    12    6    7 1    
    13    6   67 1    
    14    6   68 1    
    15    7    8 1    
    16    8    9 1    
    17    8   69 1    
    18    8   70 1    
    19    9   10 ar   
    20    9   14 ar   
    21   10   11 ar   
    22   10   71 1    
    23   11   12 ar   
    24   11   61 1    
    25   12   13 ar   
    26   12   72 1    
    27   13   14 ar   
    28   13   15 1    
    29   14   73 1    
    30   15   16 1    
    31   15   74 1    
    32   15   75 1    
    33   16   17 1    
    34   17   18 1    
    35   17   76 1    
    36   17   77 1    
    37   18   19 1    
    38   18   27 1    
    39   18   78 1    
    40   19   20 am   BACKBONE|DICT|INTERRES
    41   19   79 1    
    42   20   21 2    
    43   20   22 1    
    44   22   23 1    
    45   22   24 1    
    46   22   80 1    
    47   23   81 1    
    48   23   82 1    
    49   23   83 1    
    50   24   25 am   BACKBONE|DICT|INTERRES
    51   24   84 1    
    52   25   26 2    
    53   27   28 2    
    54   27   29 am   BACKBONE|DICT|INTERRES
    55   29   30 1    
    56   29   85 1    
    57   30   31 1    
    58   30   32 1    
    59   30   86 1    
    60   31   87 1    
    61   31   88 1    
    62   31   89 1    
    63   32   33 2    
    64   32   34 am   BACKBONE|DICT|INTERRES
    65   34   35 1    
    66   34   90 1    
    67   35   36 1    
    68   35   37 1    
    69   35   91 1    
    70   36   92 1    
    71   36   93 1    
    72   36   94 1    
    73   37   38 2    
    74   37   39 am   BACKBONE|DICT|INTERRES
    75   39   40 1    
    76   39   95 1    
    77   40   41 1    
    78   40   42 1    
    79   40   96 1    
    80   41   97 1    
    81   41   98 1    
    82   41   99 1    
    83   42   43 2    
    84   42   44 am   BACKBONE|DICT|INTERRES
    85   44   45 1    
    86   44  100 1    
    87   45   46 1    
    88   45   47 1    
    89   45  101 1    
    90   46  102 1    
    91   46  103 1    
    92   46  104 1    
    93   47   48 2    
    94   47   49 am   BACKBONE|DICT|INTERRES
    95   49   50 1    
    96   49  105 1    
    97   50   51 1    
    98   50   52 1    
    99   50  106 1    
   100   51  107 1    
   101   51  108 1    
   102   51  109 1    
   103   52   53 2    
   104   52   54 am   BACKBONE|DICT|INTERRES
   105   54   55 1    
   106   54  110 1    
   107   55   56 1    
   108   55   59 1    
   109   55  111 1    
   110   56   57 am   BACKBONE|DICT|INTERRES
   111   56   58 2    
   112   57  112 1    
   113   57  113 1    
   114   59   60 1    
   115   59  114 1    
   116   59  115 1    
   117   60   61 1    
   118   61  116 1    
   119   61  117 1    
@<TRIPOS>SUBSTRUCTURE
     1 UNK         1 GROUP             0       ****    0 ROOT    
