@<TRIPOS>MOLECULE
3R8
117   119    1
SMALL
USER_CHARGES


@<TRIPOS>ATOM
      1 CA         21.4764  -30.3806  -44.0023 C.3       0 UNK        -0.2013 
      2 C          21.1416  -29.4145  -42.8805 C.2       0 UNK         0.4866 
      3 O          21.9317  -29.3049  -41.9460 O.2       0 UNK        -0.5176 
      4 N          20.0012  -28.7113  -42.9724 N.am      1 UNK        -0.4884 
      5 CA         19.6514  -27.5546  -42.1326 C.3       1 UNK         0.0853 
      6 C6         18.1188  -27.3086  -42.0439 C.3       10 UNK        -0.0849 
      7 S7         17.2049  -28.6625  -41.2419 S.3       10 UNK        -0.2776 
      8 C8         16.1452  -29.2298  -42.6140 C.3       10 UNK         0.0316 
      9 C9         16.9576  -29.9556  -43.6748 C.ar      10 UNK        -0.0863 
     10 C10        17.6030  -31.1441  -43.3377 C.ar      10 UNK        -0.1009 
     11 C11        18.3749  -31.8350  -44.2712 C.ar      10 UNK        -0.0712 
     12 C12        18.4834  -31.3232  -45.5716 C.ar      10 UNK        -0.0894 
     13 C13        17.8725  -30.1102  -45.9180 C.ar      10 UNK        -0.0745 
     14 C14        17.0926  -29.4412  -44.9673 C.ar      10 UNK        -0.0972 
     15 C15        18.0396  -29.5338  -47.3226 C.3       10 UNK         0.0209 
     16 S16        18.6629  -27.8135  -47.3375 S.3       10 UNK        -0.2568 
     17 C17        20.4566  -28.0280  -47.0666 C.3       10 UNK        -0.0983 
     18 CA         21.2059  -26.6877  -46.8285 C.3       3 UNK         0.0876 
     19 N          20.6000  -25.9254  -45.7354 N.am      3 UNK        -0.4424 
     20 C          20.9401  -24.7022  -45.3042 C.2       2 UNK         0.4918 
     21 O          21.7821  -23.9883  -45.8463 O.2       2 UNK        -0.4875 
     22 CA         20.2599  -24.2221  -44.0040 C.3       2 UNK         0.0481 
     23 CB         19.1490  -23.2096  -44.3217 C.3       2 UNK        -0.1831 
     24 N          19.7014  -25.3215  -43.2031 N.am      2 UNK        -0.4498 
     25 C          20.4181  -26.3280  -42.6756 C.2       1 UNK         0.5027 
     26 O          21.6493  -26.3455  -42.7097 O.2       1 UNK        -0.4969 
     27 C          22.7207  -26.9408  -46.6252 C.2       3 UNK         0.5005 
     28 O          23.4372  -27.0524  -47.6213 O.2       3 UNK        -0.5279 
     29 N          23.1853  -27.0187  -45.3654 N.am      4 UNK        -0.4463 
     30 CA         24.6009  -27.1915  -45.0046 C.3       4 UNK         0.0283 
     31 CB         24.8318  -28.6367  -44.5288 C.3       4 UNK        -0.1875 
     32 C          25.0865  -26.1919  -43.9375 C.2       4 UNK         0.4949 
     33 O          26.2579  -26.2535  -43.5636 O.2       4 UNK        -0.5039 
     34 N          24.1955  -25.3131  -43.4533 N.am      5 UNK        -0.4663 
     35 CA         24.3607  -24.4094  -42.3064 C.3       5 UNK         0.0242 
     36 CB         25.4220  -23.3263  -42.5959 C.3       5 UNK        -0.1982 
     37 C          24.6110  -25.1827  -40.9944 C.2       5 UNK         0.5017 
     38 O          25.5257  -24.8446  -40.2401 O.2       5 UNK        -0.5012 
     39 N          23.8004  -26.2224  -40.7621 N.am      6 UNK        -0.4439 
     40 CA         23.8894  -27.1353  -39.6237 C.3       6 UNK         0.0297 
     41 CB         24.8922  -28.2651  -39.9515 C.3       6 UNK        -0.2006 
     42 C          22.4783  -27.6296  -39.2562 C.2       6 UNK         0.4892 
     43 O          21.5313  -26.8418  -39.3054 O.2       6 UNK        -0.5089 
     44 N          22.3617  -28.9137  -38.8977 N.am      7 UNK        -0.4243 
     45 CA         21.1140  -29.6470  -38.6792 C.3       7 UNK         0.0196 
     46 CB         20.5316  -29.3263  -37.2878 C.3       7 UNK        -0.2007 
     47 C          21.3926  -31.1444  -38.8924 C.2       7 UNK         0.5020 
     48 O          21.0826  -31.9654  -38.0280 O.2       7 UNK        -0.5147 
     49 N          22.0359  -31.4736  -40.0223 N.am      8 UNK        -0.4734 
     50 CA         22.6476  -32.7853  -40.2868 C.3       8 UNK         0.0238 
     51 CB         23.5752  -32.6842  -41.5085 C.3       8 UNK        -0.1912 
     52 C          21.6689  -33.9679  -40.4328 C.2       8 UNK         0.5038 
     53 O          22.1046  -35.1127  -40.3019 O.2       8 UNK        -0.5046 
     54 N          20.3816  -33.6886  -40.6776 N.am      9 UNK        -0.4200 
     55 CA         19.2952  -34.6850  -40.6369 C.3       9 UNK         0.0839 
     56 C          18.8919  -35.0965  -39.1871 C.2       9 UNK         0.5513 
     57 N          19.3398  -34.4151  -38.1375 N.am      9 UNK        -0.7519 
     58 O          18.1584  -36.0660  -39.0116 O.2       9 UNK        -0.4960 
     59 C59        18.0514  -34.2269  -41.4524 C.3       10 UNK        -0.0876 
     60 S60        18.1940  -34.4703  -43.2638 S.3       10 UNK        -0.2414 
     61 C61        19.1855  -33.0573  -43.8461 C.3       10 UNK         0.0169 
     62 H62        21.5380  -31.3961  -43.6261 H         1 UNK         0.0903 
     63 H63        22.4390  -30.1303  -44.4405 H         1 UNK         0.0903 
     64 H64        20.7424  -30.3556  -44.7977 H         1 UNK         0.0903 
     65 H65        19.3494  -28.9235  -43.7152 H         1 UNK         0.3096 
     66 H66        20.0171  -27.7333  -41.1225 H         1 UNK         0.1121 
     67 H67        17.6946  -27.1267  -43.0329 H         1 UNK         0.0849 
     68 H68        17.9135  -26.4147  -41.4511 H         1 UNK         0.0849 
     69 H69        15.3895  -29.9102  -42.2188 H         1 UNK         0.0865 
     70 H70        15.6017  -28.3840  -43.0383 H         1 UNK         0.0865 
     71 H71        17.5248  -31.4955  -42.3238 H         1 UNK         0.1346 
     72 H72        19.0892  -31.8433  -46.3012 H         1 UNK         0.1412 
     73 H73        16.6040  -28.5135  -45.2336 H         1 UNK         0.1426 
     74 H74        18.7004  -30.1567  -47.9275 H         1 UNK         0.0716 
     75 H75        17.0675  -29.5520  -47.8170 H         1 UNK         0.0716 
     76 H76        20.8699  -28.5476  -47.9333 H         1 UNK         0.0695 
     77 H77        20.5935  -28.6909  -46.2155 H         1 UNK         0.0695 
     78 H78        21.1076  -26.0785  -47.7296 H         1 UNK         0.0983 
     79 H79        19.8541  -26.3982  -45.2495 H         1 UNK         0.3095 
     80 H80        21.0198  -23.7208  -43.4010 H         1 UNK         0.0454 
     81 H81        18.7073  -22.8046  -43.4111 H         1 UNK         0.0851 
     82 H82        18.3499  -23.6566  -44.9144 H         1 UNK         0.0851 
     83 H83        19.5419  -22.3655  -44.8903 H         1 UNK         0.0851 
     84 H84        18.6945  -25.3552  -43.1356 H         1 UNK         0.2976 
     85 H85        22.5324  -26.9376  -44.5946 H         1 UNK         0.3116 
     86 H86        25.2320  -27.0185  -45.8786 H         1 UNK         0.0646 
     87 H87        24.5384  -29.3576  -45.2914 H         1 UNK         0.0847 
     88 H88        25.8857  -28.8150  -44.3116 H         1 UNK         0.0847 
     89 H89        24.2747  -28.8517  -43.6160 H         1 UNK         0.0847 
     90 H90        23.2493  -25.3737  -43.8008 H         1 UNK         0.3040 
     91 H91        23.4035  -23.9018  -42.1759 H         1 UNK         0.1015 
     92 H92        26.4234  -23.7485  -42.6830 H         1 UNK         0.0786 
     93 H93        25.4518  -22.5872  -41.7943 H         1 UNK         0.0786 
     94 H94        25.2011  -22.7926  -43.5202 H         1 UNK         0.0786 
     95 H95        23.0322  -26.3982  -41.4081 H         1 UNK         0.3172 
     96 H96        24.2562  -26.5866  -38.7540 H         1 UNK         0.0595 
     97 H97        25.8597  -27.8583  -40.2468 H         1 UNK         0.0839 
     98 H98        24.5377  -28.8916  -40.7718 H         1 UNK         0.0839 
     99 H99        25.0744  -28.9064  -39.0886 H         1 UNK         0.0839 
    100 H100       23.1972  -29.4825  -38.8947 H         1 UNK         0.2998 
    101 H101       20.3878  -29.3502  -39.4380 H         1 UNK         0.0822 
    102 H102       19.6024  -29.8718  -37.1181 H         1 UNK         0.0787 
    103 H103       21.2239  -29.5997  -36.4907 H         1 UNK         0.0787 
    104 H104       20.3046  -28.2652  -37.1855 H         1 UNK         0.0787 
    105 H105       22.1940  -30.7377  -40.7091 H         1 UNK         0.3055 
    106 H106       23.2724  -33.0188  -39.4215 H         1 UNK         0.1106 
    107 H107       24.2898  -31.8676  -41.4037 H         1 UNK         0.0828 
    108 H108       24.1514  -33.6020  -41.6336 H         1 UNK         0.0828 
    109 H109       23.0189  -32.5297  -42.4302 H         1 UNK         0.0828 
    110 H110       20.1092  -32.7199  -40.7382 H         1 UNK         0.2931 
    111 H111       19.6680  -35.6003  -41.1010 H         1 UNK         0.0412 
    112 H112       19.9515  -33.6129  -38.2451 H         1 UNK         0.3472 
    113 H113       19.0653  -34.7077  -37.2132 H         1 UNK         0.3472 
    114 H114       17.1751  -34.8121  -41.1657 H         1 UNK         0.0970 
    115 H115       17.7909  -33.2038  -41.1979 H         1 UNK         0.0970 
    116 H116       19.8797  -32.7643  -43.0635 H         1 UNK         0.0612 
    117 H117       19.8008  -33.4044  -44.6774 H         1 UNK         0.0612 
@<TRIPOS>BOND
     1    1    2 1    
     2    1   62 1    
     3    1   63 1    
     4    1   64 1    
     5    2    3 2    
     6    2    4 am   BACKBONE|DICT|INTERRES
     7    4    5 1    
     8    4   65 1    
     9    5    6 1    
    10    5   25 1    
    11    5   66 1    
    12    6    7 1    
    13    6   67 1    
    14    6   68 1    
    15    7    8 1    
    16    8    9 1    
    17    8   69 1    
    18    8   70 1    
    19    9   10 ar   
    20    9   14 ar   
    21   10   11 ar   
    22   10   71 1    
    23   11   12 ar   
    24   11   61 1    
    25   12   13 ar   
    26   12   72 1    
    27   13   14 ar   
    28   13   15 1    
    29   14   73 1    
    30   15   16 1    
    31   15   74 1    
    32   15   75 1    
    33   16   17 1    
    34   17   18 1    
    35   17   76 1    
    36   17   77 1    
    37   18   19 1    
    38   18   27 1    
    39   18   78 1    
    40   19   20 am   BACKBONE|DICT|INTERRES
    41   19   79 1    
    42   20   21 2    
    43   20   22 1    
    44   22   23 1    
    45   22   24 1    
    46   22   80 1    
    47   23   81 1    
    48   23   82 1    
    49   23   83 1    
    50   24   25 am   BACKBONE|DICT|INTERRES
    51   24   84 1    
    52   25   26 2    
    53   27   28 2    
    54   27   29 am   BACKBONE|DICT|INTERRES
    55   29   30 1    
    56   29   85 1    
    57   30   31 1    
    58   30   32 1    
    59   30   86 1    
    60   31   87 1    
    61   31   88 1    
    62   31   89 1    
    63   32   33 2    
    64   32   34 am   BACKBONE|DICT|INTERRES
    65   34   35 1    
    66   34   90 1    
    67   35   36 1    
    68   35   37 1    
    69   35   91 1    
    70   36   92 1    
    71   36   93 1    
    72   36   94 1    
    73   37   38 2    
    74   37   39 am   BACKBONE|DICT|INTERRES
    75   39   40 1    
    76   39   95 1    
    77   40   41 1    
    78   40   42 1    
    79   40   96 1    
    80   41   97 1    
    81   41   98 1    
    82   41   99 1    
    83   42   43 2    
    84   42   44 am   BACKBONE|DICT|INTERRES
    85   44   45 1    
    86   44  100 1    
    87   45   46 1    
    88   45   47 1    
    89   45  101 1    
    90   46  102 1    
    91   46  103 1    
    92   46  104 1    
    93   47   48 2    
    94   47   49 am   BACKBONE|DICT|INTERRES
    95   49   50 1    
    96   49  105 1    
    97   50   51 1    
    98   50   52 1    
    99   50  106 1    
   100   51  107 1    
   101   51  108 1    
   102   51  109 1    
   103   52   53 2    
   104   52   54 am   BACKBONE|DICT|INTERRES
   105   54   55 1    
   106   54  110 1    
   107   55   56 1    
   108   55   59 1    
   109   55  111 1    
   110   56   57 am   BACKBONE|DICT|INTERRES
   111   56   58 2    
   112   57  112 1    
   113   57  113 1    
   114   59   60 1    
   115   59  114 1    
   116   59  115 1    
   117   60   61 1    
   118   61  116 1    
   119   61  117 1    
@<TRIPOS>SUBSTRUCTURE
     1 UNK         1 GROUP             0       ****    0 ROOT    
