@<TRIPOS>MOLECULE
3R8
117   119    1
SMALL
USER_CHARGES


@<TRIPOS>ATOM
      1 CA         19.9959  -24.9887  -49.5483 C.3       0 UNK        -0.2013 
      2 C          19.0623  -25.1753  -48.3616 C.2       0 UNK         0.4866 
      3 O          18.2238  -24.3108  -48.1064 O.2       0 UNK        -0.5176 
      4 N          19.2085  -26.2957  -47.6394 N.am      1 UNK        -0.4884 
      5 CA         18.4150  -26.6908  -46.4637 C.3       1 UNK         0.0853 
      6 C6         16.9371  -27.0341  -46.7976 C.3       10 UNK        -0.0849 
      7 S7         16.8419  -28.5375  -47.8279 S.3       10 UNK        -0.2776 
      8 C8         16.1716  -29.7675  -46.6553 C.3       10 UNK         0.0316 
      9 C9         16.9768  -29.8850  -45.3633 C.ar      10 UNK        -0.0863 
     10 C10        18.3320  -30.2283  -45.3943 C.ar      10 UNK        -0.1009 
     11 C11        19.0620  -30.3472  -44.2081 C.ar      10 UNK        -0.0712 
     12 C12        18.4205  -30.1479  -42.9817 C.ar      10 UNK        -0.0894 
     13 C13        17.0611  -29.8177  -42.9309 C.ar      10 UNK        -0.0745 
     14 C14        16.3515  -29.6800  -44.1286 C.ar      10 UNK        -0.0972 
     15 C15        16.3159  -29.6714  -41.6032 C.3       10 UNK         0.0209 
     16 S16        17.2854  -28.9263  -40.2464 S.3       10 UNK        -0.2568 
     17 C17        17.5224  -27.2199  -40.8427 C.3       10 UNK        -0.0983 
     18 CA         19.0170  -26.9050  -41.0957 C.3       3 UNK         0.0876 
     19 N          19.1762  -25.9006  -42.1485 N.am      3 UNK        -0.4424 
     20 C          20.3403  -25.4816  -42.6576 C.2       2 UNK         0.4918 
     21 O          21.4401  -25.8712  -42.2638 O.2       2 UNK        -0.4875 
     22 CA         20.2447  -24.5281  -43.8620 C.3       2 UNK         0.0481 
     23 CB         21.5825  -23.8268  -44.1609 C.3       2 UNK        -0.1831 
     24 N          19.8204  -25.2743  -45.0473 N.am      2 UNK        -0.4498 
     25 C          18.5734  -25.7082  -45.2842 C.2       1 UNK         0.5027 
     26 O          17.6028  -25.3916  -44.5918 O.2       1 UNK        -0.4969 
     27 C          19.7570  -26.5149  -39.7975 C.2       3 UNK         0.5005 
     28 O          19.8276  -25.3293  -39.4634 O.2       3 UNK        -0.5279 
     29 N          20.3294  -27.5195  -39.1198 N.am      4 UNK        -0.4463 
     30 CA         21.2015  -27.4542  -37.9368 C.3       4 UNK         0.0283 
     31 CB         20.5223  -26.7395  -36.7517 C.3       4 UNK        -0.1875 
     32 C          22.6051  -26.8785  -38.2103 C.2       4 UNK         0.4949 
     33 O          23.5635  -27.3438  -37.5931 O.2       4 UNK        -0.5039 
     34 N          22.7213  -25.9054  -39.1242 N.am      5 UNK        -0.4663 
     35 CA         23.9959  -25.3692  -39.6069 C.3       5 UNK         0.0242 
     36 CB         23.7659  -24.0131  -40.2941 C.3       5 UNK        -0.1982 
     37 C          24.7033  -26.3592  -40.5471 C.2       5 UNK         0.5017 
     38 O          25.8984  -26.6064  -40.3796 O.2       5 UNK        -0.5012 
     39 N          23.9491  -26.9193  -41.5026 N.am      6 UNK        -0.4439 
     40 CA         24.3860  -27.9900  -42.3971 C.3       6 UNK         0.0297 
     41 CB         23.3830  -28.1257  -43.5538 C.3       6 UNK        -0.2006 
     42 C          24.5302  -29.3230  -41.6434 C.2       6 UNK         0.4892 
     43 O          23.6835  -29.6534  -40.8091 O.2       6 UNK        -0.5089 
     44 N          25.5970  -30.0605  -41.9687 N.am      7 UNK        -0.4243 
     45 CA         25.9233  -31.3690  -41.4008 C.3       7 UNK         0.0196 
     46 CB         27.4457  -31.5740  -41.5124 C.3       7 UNK        -0.2007 
     47 C          25.1643  -32.5104  -42.1019 C.2       7 UNK         0.5020 
     48 O          24.4798  -32.2857  -43.1020 O.2       7 UNK        -0.5147 
     49 N          25.3251  -33.7275  -41.5636 N.am      8 UNK        -0.4734 
     50 CA         24.8420  -35.0323  -42.0491 C.3       8 UNK         0.0238 
     51 CB         25.3608  -35.3344  -43.4695 C.3       8 UNK        -0.1912 
     52 C          23.3217  -35.2595  -41.9591 C.2       8 UNK         0.5038 
     53 O          22.9105  -36.3934  -41.7077 O.2       8 UNK        -0.5046 
     54 N          22.5198  -34.2083  -42.1574 N.am      9 UNK        -0.4200 
     55 CA         21.0549  -34.2188  -42.0320 C.3       9 UNK         0.0839 
     56 C          20.5760  -34.5573  -40.5932 C.2       9 UNK         0.5513 
     57 N          19.4712  -35.2786  -40.4618 N.am      9 UNK        -0.7519 
     58 O          21.1684  -34.1346  -39.6022 O.2       9 UNK        -0.4960 
     59 C59        20.4344  -32.8795  -42.4987 C.3       10 UNK        -0.0876 
     60 S60        20.8174  -32.4905  -44.2392 S.3       10 UNK        -0.2414 
     61 C61        20.5432  -30.6932  -44.2541 C.3       10 UNK         0.0169 
     62 H62        20.6844  -25.8257  -49.6633 H         1 UNK         0.0903 
     63 H63        19.4187  -24.8968  -50.4680 H         1 UNK         0.0903 
     64 H64        20.5845  -24.0802  -49.4233 H         1 UNK         0.0903 
     65 H65        19.9120  -26.9647  -47.9216 H         1 UNK         0.3096 
     66 H66        18.8781  -27.6060  -46.0939 H         1 UNK         0.1121 
     67 H67        16.4524  -26.2090  -47.3211 H         1 UNK         0.0849 
     68 H68        16.3502  -27.1965  -45.8920 H         1 UNK         0.0849 
     69 H69        15.1326  -29.5112  -46.4419 H         1 UNK         0.0865 
     70 H70        16.1478  -30.7422  -47.1446 H         1 UNK         0.0865 
     71 H71        18.8197  -30.3973  -46.3449 H         1 UNK         0.1346 
     72 H72        18.9796  -30.2687  -42.0651 H         1 UNK         0.1412 
     73 H73        15.2984  -29.4346  -44.0978 H         1 UNK         0.1426 
     74 H74        15.9917  -30.6633  -41.2862 H         1 UNK         0.0716 
     75 H75        15.4074  -29.0821  -41.7384 H         1 UNK         0.0716 
     76 H76        17.0784  -26.5218  -40.1300 H         1 UNK         0.0695 
     77 H77        16.9497  -27.1008  -41.7642 H         1 UNK         0.0695 
     78 H78        19.4991  -27.8003  -41.4943 H         1 UNK         0.0983 
     79 H79        18.3271  -25.5585  -42.5814 H         1 UNK         0.3095 
     80 H80        19.5035  -23.7595  -43.6333 H         1 UNK         0.0454 
     81 H81        22.3708  -24.5390  -44.4085 H         1 UNK         0.0851 
     82 H82        21.9217  -23.2541  -43.2969 H         1 UNK         0.0851 
     83 H83        21.4872  -23.1294  -44.9931 H         1 UNK         0.0851 
     84 H84        20.5541  -25.5848  -45.6677 H         1 UNK         0.2976 
     85 H85        20.2073  -28.4523  -39.4904 H         1 UNK         0.3116 
     86 H86        21.3526  -28.4934  -37.6397 H         1 UNK         0.0646 
     87 H87        20.3861  -25.6739  -36.9371 H         1 UNK         0.0847 
     88 H88        21.1265  -26.8317  -35.8484 H         1 UNK         0.0847 
     89 H89        19.5455  -27.1710  -36.5337 H         1 UNK         0.0847 
     90 H90        21.8716  -25.5572  -39.5556 H         1 UNK         0.3040 
     91 H91        24.6489  -25.2047  -38.7466 H         1 UNK         0.1015 
     92 H92        23.1051  -24.0986  -41.1566 H         1 UNK         0.0786 
     93 H93        24.7080  -23.5912  -40.6466 H         1 UNK         0.0786 
     94 H94        23.3251  -23.2913  -39.6063 H         1 UNK         0.0786 
     95 H95        22.9805  -26.6205  -41.5957 H         1 UNK         0.3172 
     96 H96        25.3556  -27.7098  -42.8145 H         1 UNK         0.0595 
     97 H97        23.6572  -28.9442  -44.2209 H         1 UNK         0.0839 
     98 H98        23.3432  -27.2151  -44.1518 H         1 UNK         0.0839 
     99 H99        22.3765  -28.3242  -43.1859 H         1 UNK         0.0839 
    100 H100       26.2056  -29.7306  -42.7036 H         1 UNK         0.2998 
    101 H101       25.6446  -31.3750  -40.3445 H         1 UNK         0.0822 
    102 H102       27.7622  -32.4997  -41.0305 H         1 UNK         0.0787 
    103 H103       27.7710  -31.6215  -42.5527 H         1 UNK         0.0787 
    104 H104       27.9908  -30.7629  -41.0285 H         1 UNK         0.0787 
    105 H105       25.8766  -33.7815  -40.7174 H         1 UNK         0.3055 
    106 H106       25.2910  -35.7703  -41.3817 H         1 UNK         0.1106 
    107 H107       25.0989  -36.3497  -43.7705 H         1 UNK         0.0828 
    108 H108       24.9355  -34.6596  -44.2129 H         1 UNK         0.0828 
    109 H109       26.4464  -35.2516  -43.5223 H         1 UNK         0.0828 
    110 H110       22.9522  -33.3282  -42.4169 H         1 UNK         0.2931 
    111 H111       20.6910  -35.0052  -42.6967 H         1 UNK         0.0412 
    112 H112       18.9734  -35.6221  -41.2688 H         1 UNK         0.3472 
    113 H113       19.1342  -35.4956  -39.5365 H         1 UNK         0.3472 
    114 H114       20.7843  -32.0647  -41.8617 H         1 UNK         0.0970 
    115 H115       19.3476  -32.9068  -42.3976 H         1 UNK         0.0970 
    116 H116       20.9940  -30.2756  -45.1556 H         1 UNK         0.0612 
    117 H117       21.0676  -30.2392  -43.4129 H         1 UNK         0.0612 
@<TRIPOS>BOND
     1    1    2 1    
     2    1   62 1    
     3    1   63 1    
     4    1   64 1    
     5    2    3 2    
     6    2    4 am   BACKBONE|DICT|INTERRES
     7    4    5 1    
     8    4   65 1    
     9    5    6 1    
    10    5   25 1    
    11    5   66 1    
    12    6    7 1    
    13    6   67 1    
    14    6   68 1    
    15    7    8 1    
    16    8    9 1    
    17    8   69 1    
    18    8   70 1    
    19    9   10 ar   
    20    9   14 ar   
    21   10   11 ar   
    22   10   71 1    
    23   11   12 ar   
    24   11   61 1    
    25   12   13 ar   
    26   12   72 1    
    27   13   14 ar   
    28   13   15 1    
    29   14   73 1    
    30   15   16 1    
    31   15   74 1    
    32   15   75 1    
    33   16   17 1    
    34   17   18 1    
    35   17   76 1    
    36   17   77 1    
    37   18   19 1    
    38   18   27 1    
    39   18   78 1    
    40   19   20 am   BACKBONE|DICT|INTERRES
    41   19   79 1    
    42   20   21 2    
    43   20   22 1    
    44   22   23 1    
    45   22   24 1    
    46   22   80 1    
    47   23   81 1    
    48   23   82 1    
    49   23   83 1    
    50   24   25 am   BACKBONE|DICT|INTERRES
    51   24   84 1    
    52   25   26 2    
    53   27   28 2    
    54   27   29 am   BACKBONE|DICT|INTERRES
    55   29   30 1    
    56   29   85 1    
    57   30   31 1    
    58   30   32 1    
    59   30   86 1    
    60   31   87 1    
    61   31   88 1    
    62   31   89 1    
    63   32   33 2    
    64   32   34 am   BACKBONE|DICT|INTERRES
    65   34   35 1    
    66   34   90 1    
    67   35   36 1    
    68   35   37 1    
    69   35   91 1    
    70   36   92 1    
    71   36   93 1    
    72   36   94 1    
    73   37   38 2    
    74   37   39 am   BACKBONE|DICT|INTERRES
    75   39   40 1    
    76   39   95 1    
    77   40   41 1    
    78   40   42 1    
    79   40   96 1    
    80   41   97 1    
    81   41   98 1    
    82   41   99 1    
    83   42   43 2    
    84   42   44 am   BACKBONE|DICT|INTERRES
    85   44   45 1    
    86   44  100 1    
    87   45   46 1    
    88   45   47 1    
    89   45  101 1    
    90   46  102 1    
    91   46  103 1    
    92   46  104 1    
    93   47   48 2    
    94   47   49 am   BACKBONE|DICT|INTERRES
    95   49   50 1    
    96   49  105 1    
    97   50   51 1    
    98   50   52 1    
    99   50  106 1    
   100   51  107 1    
   101   51  108 1    
   102   51  109 1    
   103   52   53 2    
   104   52   54 am   BACKBONE|DICT|INTERRES
   105   54   55 1    
   106   54  110 1    
   107   55   56 1    
   108   55   59 1    
   109   55  111 1    
   110   56   57 am   BACKBONE|DICT|INTERRES
   111   56   58 2    
   112   57  112 1    
   113   57  113 1    
   114   59   60 1    
   115   59  114 1    
   116   59  115 1    
   117   60   61 1    
   118   61  116 1    
   119   61  117 1    
@<TRIPOS>SUBSTRUCTURE
     1 UNK         1 GROUP             0       ****    0 ROOT    
