@<TRIPOS>MOLECULE
3R8
117   119    1
SMALL
USER_CHARGES


@<TRIPOS>ATOM
      1 CA         20.5748  -22.7300  -43.2692 C.3       0 UNK        -0.2013 
      2 C          19.0881  -22.7278  -43.5916 C.2       0 UNK         0.4866 
      3 O          18.5958  -21.7901  -44.2190 O.2       0 UNK        -0.5176 
      4 N          18.3700  -23.7757  -43.1693 N.am      1 UNK        -0.4884 
      5 CA         16.9424  -24.0036  -43.4394 C.3       1 UNK         0.0853 
      6 C6         16.3587  -25.1152  -42.5265 C.3       10 UNK        -0.0849 
      7 S7         17.3920  -26.6227  -42.4665 S.3       10 UNK        -0.2776 
      8 C8         16.3317  -27.8752  -43.2493 C.3       10 UNK         0.0316 
      9 C9         17.1082  -29.1662  -43.4733 C.ar      10 UNK        -0.0863 
     10 C10        17.4916  -29.9556  -42.3831 C.ar      10 UNK        -0.1009 
     11 C11        18.2277  -31.1286  -42.5769 C.ar      10 UNK        -0.0712 
     12 C12        18.5733  -31.5126  -43.8754 C.ar      10 UNK        -0.0894 
     13 C13        18.2092  -30.7294  -44.9748 C.ar      10 UNK        -0.0745 
     14 C14        17.4599  -29.5657  -44.7667 C.ar      10 UNK        -0.0972 
     15 C15        18.6443  -31.1558  -46.3756 C.3       10 UNK         0.0209 
     16 S16        19.3047  -29.8019  -47.4119 S.3       10 UNK        -0.2568 
     17 C17        20.5734  -29.0383  -46.3379 C.3       10 UNK        -0.0983 
     18 CA         20.7167  -27.5086  -46.5723 C.3       3 UNK         0.0876 
     19 N          19.4253  -26.8236  -46.5044 N.am      3 UNK        -0.4424 
     20 C          18.9892  -25.9004  -47.3689 C.2       2 UNK         0.4918 
     21 O          19.6045  -25.5392  -48.3723 O.2       2 UNK        -0.4875 
     22 CA         17.6436  -25.2506  -47.0304 C.3       2 UNK         0.0481 
     23 CB         16.4830  -26.1845  -47.4328 C.3       2 UNK        -0.1831 
     24 N          17.6239  -24.9190  -45.6055 N.am      2 UNK        -0.4498 
     25 C          16.6553  -24.2913  -44.9284 C.2       1 UNK         0.5027 
     26 O          15.5852  -23.9305  -45.4202 O.2       1 UNK        -0.4969 
     27 C          21.6583  -26.8882  -45.5212 C.2       3 UNK         0.5005 
     28 O          21.2168  -26.0967  -44.6791 O.2       3 UNK        -0.5279 
     29 N          22.9333  -27.3014  -45.5422 N.am      4 UNK        -0.4463 
     30 CA         23.9245  -27.0200  -44.4986 C.3       4 UNK         0.0283 
     31 CB         25.3374  -27.2404  -45.0694 C.3       4 UNK        -0.1875 
     32 C          23.6489  -27.8911  -43.2573 C.2       4 UNK         0.4949 
     33 O          24.3828  -28.8419  -42.9823 O.2       4 UNK        -0.5039 
     34 N          22.5507  -27.5778  -42.5619 N.am      5 UNK        -0.4663 
     35 CA         21.9479  -28.3519  -41.4753 C.3       5 UNK         0.0242 
     36 CB         20.4756  -27.9301  -41.3432 C.3       5 UNK        -0.1982 
     37 C          22.7130  -28.2888  -40.1374 C.2       5 UNK         0.5017 
     38 O          22.1095  -28.0444  -39.0909 O.2       5 UNK        -0.5012 
     39 N          24.0297  -28.5113  -40.1881 N.am      6 UNK        -0.4439 
     40 CA         24.8983  -28.6535  -39.0238 C.3       6 UNK         0.0297 
     41 CB         26.3299  -28.2480  -39.4093 C.3       6 UNK        -0.2006 
     42 C          24.8590  -30.1087  -38.5396 C.2       6 UNK         0.4892 
     43 O          25.0565  -31.0154  -39.3522 O.2       6 UNK        -0.5089 
     44 N          24.6280  -30.3012  -37.2331 N.am      7 UNK        -0.4243 
     45 CA         24.5736  -31.5882  -36.5276 C.3       7 UNK         0.0196 
     46 CB         25.9957  -32.1795  -36.3861 C.3       7 UNK        -0.2007 
     47 C          23.5520  -32.5562  -37.1596 C.2       7 UNK         0.5020 
     48 O          22.3493  -32.3249  -37.0367 O.2       7 UNK        -0.5147 
     49 N          24.0430  -33.6063  -37.8301 N.am      8 UNK        -0.4734 
     50 CA         23.2461  -34.6101  -38.5427 C.3       8 UNK         0.0238 
     51 CB         24.0606  -35.9137  -38.6217 C.3       8 UNK        -0.1912 
     52 C          22.7858  -34.1660  -39.9472 C.2       8 UNK         0.5038 
     53 O          22.1178  -34.9508  -40.6219 O.2       8 UNK        -0.5046 
     54 N          23.1558  -32.9492  -40.3708 N.am      9 UNK        -0.4200 
     55 CA         22.8774  -32.3500  -41.6879 C.3       9 UNK         0.0839 
     56 C          23.7460  -32.9298  -42.8442 C.2       9 UNK         0.5513 
     57 N          24.8416  -33.6254  -42.5625 N.am      9 UNK        -0.7519 
     58 O          23.4380  -32.7327  -44.0169 O.2       9 UNK        -0.4960 
     59 C59        21.3651  -32.2813  -42.0607 C.3       10 UNK        -0.0876 
     60 S60        20.2987  -31.5596  -40.7654 S.3       10 UNK        -0.2414 
     61 C61        18.6398  -31.9866  -41.3869 C.3       10 UNK         0.0169 
     62 H62        21.1568  -22.6619  -44.1880 H         1 UNK         0.0903 
     63 H63        20.8257  -21.8763  -42.6405 H         1 UNK         0.0903 
     64 H64        20.8772  -23.6387  -42.7484 H         1 UNK         0.0903 
     65 H65        18.8245  -24.5192  -42.6557 H         1 UNK         0.3096 
     66 H66        16.4164  -23.0750  -43.2054 H         1 UNK         0.1121 
     67 H67        16.2876  -24.7346  -41.5064 H         1 UNK         0.0849 
     68 H68        15.3347  -25.3666  -42.8110 H         1 UNK         0.0849 
     69 H69        15.4667  -28.0711  -42.6139 H         1 UNK         0.0865 
     70 H70        15.9458  -27.4869  -44.1932 H         1 UNK         0.0865 
     71 H71        17.2285  -29.6462  -41.3807 H         1 UNK         0.1346 
     72 H72        19.1395  -32.4210  -44.0282 H         1 UNK         0.1412 
     73 H73        17.1687  -28.9642  -45.6154 H         1 UNK         0.1426 
     74 H74        19.4074  -31.9336  -46.3166 H         1 UNK         0.0716 
     75 H75        17.7899  -31.6018  -46.8861 H         1 UNK         0.0716 
     76 H76        20.3379  -29.2366  -45.2912 H         1 UNK         0.0695 
     77 H77        21.5186  -29.5480  -46.5318 H         1 UNK         0.0695 
     78 H78        21.1680  -27.3515  -47.5545 H         1 UNK         0.0983 
     79 H79        18.8661  -27.0423  -45.6942 H         1 UNK         0.3095 
     80 H80        17.5645  -24.3208  -47.5968 H         1 UNK         0.0454 
     81 H81        16.4412  -27.0745  -46.8063 H         1 UNK         0.0851 
     82 H82        15.5179  -25.6836  -47.3651 H         1 UNK         0.0851 
     83 H83        16.5917  -26.5185  -48.4656 H         1 UNK         0.0851 
     84 H84        18.4832  -25.1044  -45.1040 H         1 UNK         0.2976 
     85 H85        23.2138  -27.9658  -46.2497 H         1 UNK         0.3116 
     86 H86        23.8433  -25.9725  -44.1996 H         1 UNK         0.0646 
     87 H87        26.0977  -27.0343  -44.3149 H         1 UNK         0.0847 
     88 H88        25.5324  -26.5783  -45.9130 H         1 UNK         0.0847 
     89 H89        25.4849  -28.2671  -45.4069 H         1 UNK         0.0847 
     90 H90        21.9986  -26.8033  -42.9161 H         1 UNK         0.3040 
     91 H91        21.9553  -29.3967  -41.7831 H         1 UNK         0.1015 
     92 H92        19.9613  -28.5092  -40.5753 H         1 UNK         0.0786 
     93 H93        20.3766  -26.8762  -41.0816 H         1 UNK         0.0786 
     94 H94        19.9405  -28.1000  -42.2777 H         1 UNK         0.0786 
     95 H95        24.4277  -28.7430  -41.0954 H         1 UNK         0.3172 
     96 H96        24.5562  -27.9900  -38.2266 H         1 UNK         0.0595 
     97 H97        27.0040  -28.3395  -38.5566 H         1 UNK         0.0839 
     98 H98        26.3715  -27.2121  -39.7463 H         1 UNK         0.0839 
     99 H99        26.7274  -28.8762  -40.2080 H         1 UNK         0.0839 
    100 H100       24.4402  -29.4883  -36.6623 H         1 UNK         0.2998 
    101 H101       24.2057  -31.3771  -35.5221 H         1 UNK         0.0822 
    102 H102       26.6414  -31.5052  -35.8233 H         1 UNK         0.0787 
    103 H103       25.9782  -33.1263  -35.8441 H         1 UNK         0.0787 
    104 H104       26.4727  -32.3548  -37.3511 H         1 UNK         0.0787 
    105 H105       25.0472  -33.6924  -37.9003 H         1 UNK         0.3055 
    106 H106       22.3401  -34.8097  -37.9658 H         1 UNK         0.1106 
    107 H107       23.4831  -36.7108  -39.0922 H         1 UNK         0.0828 
    108 H108       24.9730  -35.7857  -39.2052 H         1 UNK         0.0828 
    109 H109       24.3421  -36.2671  -37.6295 H         1 UNK         0.0828 
    110 H110       23.7501  -32.3861  -39.7696 H         1 UNK         0.2931 
    111 H111       23.2246  -31.3219  -41.5895 H         1 UNK         0.0412 
    112 H112       25.4027  -33.9910  -43.3158 H         1 UNK         0.3472 
    113 H113       25.1191  -33.7738  -41.6057 H         1 UNK         0.3472 
    114 H114       21.2406  -31.6762  -42.9601 H         1 UNK         0.0970 
    115 H115       20.9914  -33.2754  -42.3105 H         1 UNK         0.0970 
    116 H116       18.6080  -33.0445  -41.6518 H         1 UNK         0.0612 
    117 H117       17.9231  -31.8576  -40.5746 H         1 UNK         0.0612 
@<TRIPOS>BOND
     1    1    2 1    
     2    1   62 1    
     3    1   63 1    
     4    1   64 1    
     5    2    3 2    
     6    2    4 am   BACKBONE|DICT|INTERRES
     7    4    5 1    
     8    4   65 1    
     9    5    6 1    
    10    5   25 1    
    11    5   66 1    
    12    6    7 1    
    13    6   67 1    
    14    6   68 1    
    15    7    8 1    
    16    8    9 1    
    17    8   69 1    
    18    8   70 1    
    19    9   10 ar   
    20    9   14 ar   
    21   10   11 ar   
    22   10   71 1    
    23   11   12 ar   
    24   11   61 1    
    25   12   13 ar   
    26   12   72 1    
    27   13   14 ar   
    28   13   15 1    
    29   14   73 1    
    30   15   16 1    
    31   15   74 1    
    32   15   75 1    
    33   16   17 1    
    34   17   18 1    
    35   17   76 1    
    36   17   77 1    
    37   18   19 1    
    38   18   27 1    
    39   18   78 1    
    40   19   20 am   BACKBONE|DICT|INTERRES
    41   19   79 1    
    42   20   21 2    
    43   20   22 1    
    44   22   23 1    
    45   22   24 1    
    46   22   80 1    
    47   23   81 1    
    48   23   82 1    
    49   23   83 1    
    50   24   25 am   BACKBONE|DICT|INTERRES
    51   24   84 1    
    52   25   26 2    
    53   27   28 2    
    54   27   29 am   BACKBONE|DICT|INTERRES
    55   29   30 1    
    56   29   85 1    
    57   30   31 1    
    58   30   32 1    
    59   30   86 1    
    60   31   87 1    
    61   31   88 1    
    62   31   89 1    
    63   32   33 2    
    64   32   34 am   BACKBONE|DICT|INTERRES
    65   34   35 1    
    66   34   90 1    
    67   35   36 1    
    68   35   37 1    
    69   35   91 1    
    70   36   92 1    
    71   36   93 1    
    72   36   94 1    
    73   37   38 2    
    74   37   39 am   BACKBONE|DICT|INTERRES
    75   39   40 1    
    76   39   95 1    
    77   40   41 1    
    78   40   42 1    
    79   40   96 1    
    80   41   97 1    
    81   41   98 1    
    82   41   99 1    
    83   42   43 2    
    84   42   44 am   BACKBONE|DICT|INTERRES
    85   44   45 1    
    86   44  100 1    
    87   45   46 1    
    88   45   47 1    
    89   45  101 1    
    90   46  102 1    
    91   46  103 1    
    92   46  104 1    
    93   47   48 2    
    94   47   49 am   BACKBONE|DICT|INTERRES
    95   49   50 1    
    96   49  105 1    
    97   50   51 1    
    98   50   52 1    
    99   50  106 1    
   100   51  107 1    
   101   51  108 1    
   102   51  109 1    
   103   52   53 2    
   104   52   54 am   BACKBONE|DICT|INTERRES
   105   54   55 1    
   106   54  110 1    
   107   55   56 1    
   108   55   59 1    
   109   55  111 1    
   110   56   57 am   BACKBONE|DICT|INTERRES
   111   56   58 2    
   112   57  112 1    
   113   57  113 1    
   114   59   60 1    
   115   59  114 1    
   116   59  115 1    
   117   60   61 1    
   118   61  116 1    
   119   61  117 1    
@<TRIPOS>SUBSTRUCTURE
     1 UNK         1 GROUP             0       ****    0 ROOT    
