@<TRIPOS>MOLECULE
3R8
117   119    1
SMALL
USER_CHARGES


@<TRIPOS>ATOM
      1 CA         16.9356  -22.9605  -41.4399 C.3       0 UNK        -0.2013 
      2 C          17.3477  -24.0043  -42.4664 C.2       0 UNK         0.4866 
      3 O          17.0844  -23.8327  -43.6577 O.2       0 UNK        -0.5176 
      4 N          17.9985  -25.0863  -42.0207 N.am      1 UNK        -0.4884 
      5 CA         18.4660  -26.2007  -42.8529 C.3       1 UNK         0.0853 
      6 C6         18.6650  -27.5016  -42.0254 C.3       10 UNK        -0.0849 
      7 S7         17.1711  -28.0733  -41.1436 S.3       10 UNK        -0.2776 
      8 C8         16.0844  -28.6488  -42.4910 C.3       10 UNK         0.0316 
      9 C9         16.7162  -29.7466  -43.3371 C.ar      10 UNK        -0.0863 
     10 C10        16.6769  -31.0785  -42.9180 C.ar      10 UNK        -0.1009 
     11 C11        17.2316  -32.0871  -43.7116 C.ar      10 UNK        -0.0712 
     12 C12        17.8351  -31.7506  -44.9286 C.ar      10 UNK        -0.0894 
     13 C13        17.8956  -30.4213  -45.3595 C.ar      10 UNK        -0.0745 
     14 C14        17.3213  -29.4275  -44.5551 C.ar      10 UNK        -0.0972 
     15 C15        18.6121  -30.1141  -46.6784 C.3       10 UNK         0.0209 
     16 S16        18.4717  -28.3869  -47.2595 S.3       10 UNK        -0.2568 
     17 C17        20.0072  -28.1764  -48.2283 C.3       10 UNK        -0.0983 
     18 CA         21.1761  -27.5282  -47.4337 C.3       3 UNK         0.0876 
     19 N          20.7219  -26.3645  -46.6665 N.am      3 UNK        -0.4424 
     20 C          21.4898  -25.3714  -46.2042 C.2       2 UNK         0.4918 
     21 O          22.6983  -25.2816  -46.4192 O.2       2 UNK        -0.4875 
     22 CA         20.7896  -24.3162  -45.3234 C.3       2 UNK         0.0481 
     23 CB         20.3046  -23.1383  -46.1824 C.3       2 UNK        -0.1831 
     24 N          19.6644  -24.8348  -44.5295 N.am      2 UNK        -0.4498 
     25 C          19.7491  -25.8209  -43.6254 C.2       1 UNK         0.5027 
     26 O          20.7973  -26.4195  -43.3954 O.2       1 UNK        -0.4969 
     27 C          21.9368  -28.5758  -46.5861 C.2       3 UNK         0.5005 
     28 O          22.5762  -29.4535  -47.1685 O.2       3 UNK        -0.5279 
     29 N          21.8594  -28.4932  -45.2508 N.am      4 UNK        -0.4463 
     30 CA         22.4877  -29.4187  -44.3084 C.3       4 UNK         0.0283 
     31 CB         21.4938  -30.5360  -43.9393 C.3       4 UNK        -0.1875 
     32 C          22.9833  -28.6202  -43.0957 C.2       4 UNK         0.4949 
     33 O          22.5867  -28.9008  -41.9618 O.2       4 UNK        -0.5039 
     34 N          23.8026  -27.5980  -43.3842 N.am      5 UNK        -0.4663 
     35 CA         24.2846  -26.5795  -42.4471 C.3       5 UNK         0.0242 
     36 CB         25.2319  -25.6255  -43.1921 C.3       5 UNK        -0.1982 
     37 C          24.9705  -27.1563  -41.1965 C.2       5 UNK         0.5017 
     38 O          25.6464  -28.1833  -41.2853 O.2       5 UNK        -0.5012 
     39 N          24.7706  -26.4722  -40.0601 N.am      6 UNK        -0.4439 
     40 CA         25.1709  -26.8741  -38.7036 C.3       6 UNK         0.0297 
     41 CB         26.7071  -26.9608  -38.5687 C.3       6 UNK        -0.2006 
     42 C          24.4474  -28.1471  -38.2118 C.2       6 UNK         0.4892 
     43 O          25.0044  -28.8903  -37.4022 O.2       6 UNK        -0.5089 
     44 N          23.2129  -28.3547  -38.7007 N.am      7 UNK        -0.4243 
     45 CA         22.3107  -29.4777  -38.4170 C.3       7 UNK         0.0196 
     46 CB         21.8267  -29.4382  -36.9516 C.3       7 UNK        -0.2007 
     47 C          22.9095  -30.8388  -38.8185 C.2       7 UNK         0.5020 
     48 O          22.8008  -31.8124  -38.0702 O.2       7 UNK        -0.5147 
     49 N          23.5151  -30.8927  -40.0133 N.am      8 UNK        -0.4734 
     50 CA         24.1693  -32.0851  -40.5676 C.3       8 UNK         0.0238 
     51 CB         24.9748  -31.6923  -41.8165 C.3       8 UNK        -0.1912 
     52 C          23.2007  -33.2391  -40.8861 C.2       8 UNK         0.5038 
     53 O          23.6453  -34.3827  -40.9929 O.2       8 UNK        -0.5046 
     54 N          21.9055  -32.9231  -41.0159 N.am      9 UNK        -0.4200 
     55 CA         20.8102  -33.8910  -41.1624 C.3       9 UNK         0.0839 
     56 C          20.4409  -34.6420  -39.8472 C.2       9 UNK         0.5513 
     57 N          20.9497  -34.2480  -38.6840 N.am      9 UNK        -0.7519 
     58 O          19.6830  -35.6075  -39.8824 O.2       9 UNK        -0.4960 
     59 C59        19.5683  -33.2322  -41.8279 C.3       10 UNK        -0.0876 
     60 S60        18.8036  -34.3073  -43.0853 S.3       10 UNK        -0.2414 
     61 C61        17.1606  -33.5412  -43.2602 C.3       10 UNK         0.0169 
     62 H62        17.2270  -23.2450  -40.4290 H         1 UNK         0.0903 
     63 H63        17.4016  -22.0030  -41.6710 H         1 UNK         0.0903 
     64 H64        15.8543  -22.8261  -41.4558 H         1 UNK         0.0903 
     65 H65        18.1947  -25.1741  -41.0334 H         1 UNK         0.3096 
     66 H66        17.7050  -26.4013  -43.6086 H         1 UNK         0.1121 
     67 H67        19.0271  -28.3144  -42.6568 H         1 UNK         0.0849 
     68 H68        19.4451  -27.3529  -41.2759 H         1 UNK         0.0849 
     69 H69        15.1559  -29.0192  -42.0539 H         1 UNK         0.0865 
     70 H70        15.7976  -27.8003  -43.1137 H         1 UNK         0.0865 
     71 H71        16.2067  -31.3278  -41.9764 H         1 UNK         0.1346 
     72 H72        18.2702  -32.5315  -45.5377 H         1 UNK         0.1412 
     73 H73        17.3421  -28.3935  -44.8617 H         1 UNK         0.1426 
     74 H74        18.2262  -30.7690  -47.4608 H         1 UNK         0.0716 
     75 H75        19.6643  -30.3688  -46.5556 H         1 UNK         0.0716 
     76 H76        19.7584  -27.5298  -49.0711 H         1 UNK         0.0695 
     77 H77        20.2991  -29.1282  -48.6771 H         1 UNK         0.0695 
     78 H78        21.9024  -27.1680  -48.1660 H         1 UNK         0.0983 
     79 H79        19.7358  -26.3526  -46.4488 H         1 UNK         0.3095 
     80 H80        21.5341  -23.9385  -44.6196 H         1 UNK         0.0454 
     81 H81        21.1247  -22.7143  -46.7636 H         1 UNK         0.0851 
     82 H82        19.8998  -22.3364  -45.5647 H         1 UNK         0.0851 
     83 H83        19.5296  -23.4437  -46.8864 H         1 UNK         0.0851 
     84 H84        18.7715  -24.3576  -44.6146 H         1 UNK         0.2976 
     85 H85        21.3737  -27.7101  -44.8222 H         1 UNK         0.3116 
     86 H86        23.3692  -29.8770  -44.7614 H         1 UNK         0.0646 
     87 H87        20.5878  -30.1353  -43.4831 H         1 UNK         0.0847 
     88 H88        21.2005  -31.1135  -44.8153 H         1 UNK         0.0847 
     89 H89        21.9403  -31.2341  -43.2332 H         1 UNK         0.0847 
     90 H90        24.0584  -27.4642  -44.3515 H         1 UNK         0.3040 
     91 H91        23.4048  -26.0158  -42.1284 H         1 UNK         0.1015 
     92 H92        25.5857  -24.8296  -42.5352 H         1 UNK         0.0786 
     93 H93        24.7323  -25.1483  -44.0359 H         1 UNK         0.0786 
     94 H94        26.1104  -26.1487  -43.5725 H         1 UNK         0.0786 
     95 H95        24.2253  -25.6218  -40.1101 H         1 UNK         0.3172 
     96 H96        24.8351  -26.0720  -38.0447 H         1 UNK         0.0595 
     97 H97        27.1179  -27.8040  -39.1246 H         1 UNK         0.0839 
     98 H98        27.0001  -27.0901  -37.5261 H         1 UNK         0.0839 
     99 H99        27.1904  -26.0528  -38.9289 H         1 UNK         0.0839 
    100 H100       22.8748  -27.6992  -39.3912 H         1 UNK         0.2998 
    101 H101       21.4371  -29.3345  -39.0552 H         1 UNK         0.0822 
    102 H102       21.0653  -30.1982  -36.7714 H         1 UNK         0.0787 
    103 H103       21.3840  -28.4731  -36.7057 H         1 UNK         0.0787 
    104 H104       22.6412  -29.6228  -36.2504 H         1 UNK         0.0787 
    105 H105       23.5023  -30.0609  -40.5979 H         1 UNK         0.3055 
    106 H106       24.8679  -32.4569  -39.8147 H         1 UNK         0.1106 
    107 H107       25.7142  -30.9250  -41.5863 H         1 UNK         0.0828 
    108 H108       25.5154  -32.5503  -42.2184 H         1 UNK         0.0828 
    109 H109       24.3331  -31.3121  -42.6104 H         1 UNK         0.0828 
    110 H110       21.6427  -31.9578  -40.8875 H         1 UNK         0.2931 
    111 H111       21.1869  -34.6604  -41.8395 H         1 UNK         0.0412 
    112 H112       20.7013  -34.7506  -37.8466 H         1 UNK         0.3472 
    113 H113       21.5825  -33.4592  -38.6248 H         1 UNK         0.3472 
    114 H114       18.8219  -32.9364  -41.0876 H         1 UNK         0.0970 
    115 H115       19.8437  -32.3108  -42.3416 H         1 UNK         0.0970 
    116 H116       16.5844  -34.1102  -43.9909 H         1 UNK         0.0612 
    117 H117       16.6285  -33.6309  -42.3118 H         1 UNK         0.0612 
@<TRIPOS>BOND
     1    1    2 1    
     2    1   62 1    
     3    1   63 1    
     4    1   64 1    
     5    2    3 2    
     6    2    4 am   BACKBONE|DICT|INTERRES
     7    4    5 1    
     8    4   65 1    
     9    5    6 1    
    10    5   25 1    
    11    5   66 1    
    12    6    7 1    
    13    6   67 1    
    14    6   68 1    
    15    7    8 1    
    16    8    9 1    
    17    8   69 1    
    18    8   70 1    
    19    9   10 ar   
    20    9   14 ar   
    21   10   11 ar   
    22   10   71 1    
    23   11   12 ar   
    24   11   61 1    
    25   12   13 ar   
    26   12   72 1    
    27   13   14 ar   
    28   13   15 1    
    29   14   73 1    
    30   15   16 1    
    31   15   74 1    
    32   15   75 1    
    33   16   17 1    
    34   17   18 1    
    35   17   76 1    
    36   17   77 1    
    37   18   19 1    
    38   18   27 1    
    39   18   78 1    
    40   19   20 am   BACKBONE|DICT|INTERRES
    41   19   79 1    
    42   20   21 2    
    43   20   22 1    
    44   22   23 1    
    45   22   24 1    
    46   22   80 1    
    47   23   81 1    
    48   23   82 1    
    49   23   83 1    
    50   24   25 am   BACKBONE|DICT|INTERRES
    51   24   84 1    
    52   25   26 2    
    53   27   28 2    
    54   27   29 am   BACKBONE|DICT|INTERRES
    55   29   30 1    
    56   29   85 1    
    57   30   31 1    
    58   30   32 1    
    59   30   86 1    
    60   31   87 1    
    61   31   88 1    
    62   31   89 1    
    63   32   33 2    
    64   32   34 am   BACKBONE|DICT|INTERRES
    65   34   35 1    
    66   34   90 1    
    67   35   36 1    
    68   35   37 1    
    69   35   91 1    
    70   36   92 1    
    71   36   93 1    
    72   36   94 1    
    73   37   38 2    
    74   37   39 am   BACKBONE|DICT|INTERRES
    75   39   40 1    
    76   39   95 1    
    77   40   41 1    
    78   40   42 1    
    79   40   96 1    
    80   41   97 1    
    81   41   98 1    
    82   41   99 1    
    83   42   43 2    
    84   42   44 am   BACKBONE|DICT|INTERRES
    85   44   45 1    
    86   44  100 1    
    87   45   46 1    
    88   45   47 1    
    89   45  101 1    
    90   46  102 1    
    91   46  103 1    
    92   46  104 1    
    93   47   48 2    
    94   47   49 am   BACKBONE|DICT|INTERRES
    95   49   50 1    
    96   49  105 1    
    97   50   51 1    
    98   50   52 1    
    99   50  106 1    
   100   51  107 1    
   101   51  108 1    
   102   51  109 1    
   103   52   53 2    
   104   52   54 am   BACKBONE|DICT|INTERRES
   105   54   55 1    
   106   54  110 1    
   107   55   56 1    
   108   55   59 1    
   109   55  111 1    
   110   56   57 am   BACKBONE|DICT|INTERRES
   111   56   58 2    
   112   57  112 1    
   113   57  113 1    
   114   59   60 1    
   115   59  114 1    
   116   59  115 1    
   117   60   61 1    
   118   61  116 1    
   119   61  117 1    
@<TRIPOS>SUBSTRUCTURE
     1 UNK         1 GROUP             0       ****    0 ROOT    
