@<TRIPOS>MOLECULE
3R8
117   119    1
SMALL
USER_CHARGES


@<TRIPOS>ATOM
      1 CA         16.2646  -22.6557  -46.4942 C.3       0 UNK        -0.2013 
      2 C          17.1031  -23.8807  -46.1631 C.2       0 UNK         0.4866 
      3 O          17.8976  -24.3243  -46.9936 O.2       0 UNK        -0.5176 
      4 N          16.9439  -24.4298  -44.9523 N.am      1 UNK        -0.4884 
      5 CA         17.6425  -25.6210  -44.4531 C.3       1 UNK         0.0853 
      6 C6         16.8573  -26.3078  -43.3043 C.3       10 UNK        -0.0849 
      7 S7         15.2619  -26.9942  -43.8623 S.3       10 UNK        -0.2776 
      8 C8         15.1825  -28.5677  -42.9263 C.3       10 UNK         0.0316 
      9 C9         16.2504  -29.6125  -43.2675 C.ar      10 UNK        -0.0863 
     10 C10        16.4985  -30.6429  -42.3531 C.ar      10 UNK        -0.1009 
     11 C11        17.4577  -31.6261  -42.6190 C.ar      10 UNK        -0.0712 
     12 C12        18.1865  -31.5696  -43.8113 C.ar      10 UNK        -0.0894 
     13 C13        17.9327  -30.5649  -44.7492 C.ar      10 UNK        -0.0745 
     14 C14        16.9609  -29.5975  -44.4743 C.ar      10 UNK        -0.0972 
     15 C15        18.6434  -30.5664  -46.0958 C.3       10 UNK         0.0209 
     16 S16        19.5291  -29.0089  -46.4232 S.3       10 UNK        -0.2568 
     17 C17        21.2558  -29.4077  -45.9653 C.3       10 UNK        -0.0983 
     18 CA         21.8641  -28.4772  -44.8816 C.3       3 UNK         0.0876 
     19 N          21.5266  -27.0768  -45.1420 N.am      3 UNK        -0.4424 
     20 C          22.0934  -25.9906  -44.6067 C.2       2 UNK         0.4918 
     21 O          23.0768  -26.0245  -43.8703 O.2       2 UNK        -0.4875 
     22 CA         21.3661  -24.6574  -44.8701 C.3       2 UNK         0.0481 
     23 CB         21.9269  -23.9729  -46.1254 C.3       2 UNK        -0.1831 
     24 N          19.9123  -24.8317  -45.0107 N.am      2 UNK        -0.4498 
     25 C          19.1018  -25.3044  -44.0520 C.2       1 UNK         0.5027 
     26 O          19.4912  -25.5281  -42.9049 O.2       1 UNK        -0.4969 
     27 C          21.5452  -28.9562  -43.4440 C.2       3 UNK         0.5005 
     28 O          21.9044  -30.0890  -43.1159 O.2       3 UNK        -0.5279 
     29 N          20.9183  -28.1074  -42.6126 N.am      4 UNK        -0.4463 
     30 CA         20.6905  -28.3432  -41.1875 C.3       4 UNK         0.0283 
     31 CB         19.1849  -28.2944  -40.8828 C.3       4 UNK        -0.1875 
     32 C          21.4803  -27.3850  -40.2837 C.2       4 UNK         0.4949 
     33 O          21.3155  -27.4518  -39.0640 O.2       4 UNK        -0.5039 
     34 N          22.3691  -26.5528  -40.8482 N.am      5 UNK        -0.4663 
     35 CA         23.3770  -25.8023  -40.0912 C.3       5 UNK         0.0242 
     36 CB         23.8031  -24.5623  -40.8987 C.3       5 UNK        -0.1982 
     37 C          24.5515  -26.7475  -39.7757 C.2       5 UNK         0.5017 
     38 O          25.6101  -26.6439  -40.3976 O.2       5 UNK        -0.5012 
     39 N          24.2879  -27.7134  -38.8809 N.am      6 UNK        -0.4439 
     40 CA         24.9998  -28.9863  -38.7210 C.3       6 UNK         0.0297 
     41 CB         26.4659  -28.7843  -38.2712 C.3       6 UNK        -0.2006 
     42 C          24.8118  -29.8154  -40.0066 C.2       6 UNK         0.4892 
     43 O          23.6641  -30.1015  -40.3498 O.2       6 UNK        -0.5089 
     44 N          25.9103  -30.1361  -40.7053 N.am      7 UNK        -0.4243 
     45 CA         25.9551  -30.7356  -42.0439 C.3       7 UNK         0.0196 
     46 CB         25.5427  -29.6834  -43.1003 C.3       7 UNK        -0.2007 
     47 C          25.1837  -32.0692  -42.1379 C.2       7 UNK         0.5020 
     48 O          25.3943  -32.9434  -41.2951 O.2       7 UNK        -0.5147 
     49 N          24.3313  -32.2190  -43.1613 N.am      8 UNK        -0.4734 
     50 CA         23.5724  -33.4372  -43.4612 C.3       8 UNK         0.0238 
     51 CB         22.8747  -33.2815  -44.8219 C.3       8 UNK        -0.1912 
     52 C          22.5494  -33.8147  -42.3783 C.2       8 UNK         0.5038 
     53 O          22.3319  -35.0061  -42.1529 O.2       8 UNK        -0.5046 
     54 N          21.9538  -32.8070  -41.7289 N.am      9 UNK        -0.4200 
     55 CA         21.0339  -32.9820  -40.5949 C.3       9 UNK         0.0839 
     56 C          21.7405  -33.2818  -39.2376 C.2       9 UNK         0.5513 
     57 N          23.0663  -33.2712  -39.1515 N.am      9 UNK        -0.7519 
     58 O          21.0732  -33.5487  -38.2419 O.2       9 UNK        -0.4960 
     59 C59        20.0369  -31.7957  -40.5039 C.3       10 UNK        -0.0876 
     60 S60        18.3446  -32.2850  -40.0425 S.3       10 UNK        -0.2414 
     61 C61        17.6576  -32.7883  -41.6526 C.3       10 UNK         0.0169 
     62 H62        15.6068  -22.3767  -45.6712 H         1 UNK         0.0903 
     63 H63        16.9113  -21.8070  -46.7148 H         1 UNK         0.0903 
     64 H64        15.6469  -22.8506  -47.3705 H         1 UNK         0.0903 
     65 H65        16.2843  -24.0167  -44.3078 H         1 UNK         0.3096 
     66 H66        17.7102  -26.3424  -45.2714 H         1 UNK         0.1121 
     67 H67        17.4444  -27.1277  -42.8905 H         1 UNK         0.0849 
     68 H68        16.6801  -25.6141  -42.4804 H         1 UNK         0.0849 
     69 H69        15.2315  -28.3316  -41.8619 H         1 UNK         0.0865 
     70 H70        14.2025  -29.0156  -43.0951 H         1 UNK         0.0865 
     71 H71        15.9364  -30.6896  -41.4300 H         1 UNK         0.1346 
     72 H72        18.9229  -32.3318  -44.0269 H         1 UNK         0.1412 
     73 H73        16.7588  -28.8391  -45.2170 H         1 UNK         0.1426 
     74 H74        17.8923  -30.7001  -46.8755 H         1 UNK         0.0716 
     75 H75        19.3221  -31.4154  -46.1878 H         1 UNK         0.0716 
     76 H76        21.8468  -29.3124  -46.8774 H         1 UNK         0.0695 
     77 H77        21.3426  -30.4572  -45.6836 H         1 UNK         0.0695 
     78 H78        22.9502  -28.5559  -44.9646 H         1 UNK         0.0983 
     79 H79        20.7194  -26.9472  -45.7354 H         1 UNK         0.3095 
     80 H80        21.5456  -24.0055  -44.0127 H         1 UNK         0.0454 
     81 H81        21.7578  -24.5696  -47.0226 H         1 UNK         0.0851 
     82 H82        23.0027  -23.8155  -46.0357 H         1 UNK         0.0851 
     83 H83        21.4699  -22.9957  -46.2816 H         1 UNK         0.0851 
     84 H84        19.4963  -24.6357  -45.9178 H         1 UNK         0.2976 
     85 H85        20.6238  -27.1979  -42.9514 H         1 UNK         0.3116 
     86 H86        21.0676  -29.3273  -40.9250 H         1 UNK         0.0646 
     87 H87        18.9815  -28.6334  -39.8664 H         1 UNK         0.0847 
     88 H88        18.6253  -28.9423  -41.5559 H         1 UNK         0.0847 
     89 H89        18.7889  -27.2831  -40.9713 H         1 UNK         0.0847 
     90 H90        22.4965  -26.5770  -41.8530 H         1 UNK         0.3040 
     91 H91        22.9521  -25.4550  -39.1465 H         1 UNK         0.1015 
     92 H92        22.9489  -23.9242  -41.1255 H         1 UNK         0.0786 
     93 H93        24.2780  -24.8321  -41.8423 H         1 UNK         0.0786 
     94 H94        24.5188  -23.9616  -40.3363 H         1 UNK         0.0786 
     95 H95        23.3430  -27.7148  -38.5102 H         1 UNK         0.3172 
     96 H96        24.4845  -29.5304  -37.9281 H         1 UNK         0.0595 
     97 H97        27.0714  -28.2671  -39.0156 H         1 UNK         0.0839 
     98 H98        26.9452  -29.7419  -38.0636 H         1 UNK         0.0839 
     99 H99        26.5123  -28.2011  -37.3515 H         1 UNK         0.0839 
    100 H100       26.8044  -29.8780  -40.3131 H         1 UNK         0.2998 
    101 H101       27.0002  -30.9890  -42.2279 H         1 UNK         0.0822 
    102 H102       24.5068  -29.3692  -42.9758 H         1 UNK         0.0787 
    103 H103       26.1613  -28.7893  -43.0195 H         1 UNK         0.0787 
    104 H104       25.6654  -30.0600  -44.1165 H         1 UNK         0.0787 
    105 H105       24.1653  -31.4239  -43.7613 H         1 UNK         0.3055 
    106 H106       24.2867  -34.2605  -43.5331 H         1 UNK         0.1106 
    107 H107       22.1358  -32.4803  -44.8024 H         1 UNK         0.0828 
    108 H108       23.5889  -33.0654  -45.6165 H         1 UNK         0.0828 
    109 H109       22.3514  -34.1980  -45.0981 H         1 UNK         0.0828 
    110 H110       22.1891  -31.8524  -41.9844 H         1 UNK         0.2931 
    111 H111       20.4508  -33.8783  -40.8143 H         1 UNK         0.0412 
    112 H112       23.6371  -33.0557  -39.9588 H         1 UNK         0.3472 
    113 H113       23.5033  -33.4773  -38.2677 H         1 UNK         0.3472 
    114 H114       20.3803  -31.0592  -39.7763 H         1 UNK         0.0970 
    115 H115       19.9744  -31.2701  -41.4576 H         1 UNK         0.0970 
    116 H116       16.6937  -33.2692  -41.4808 H         1 UNK         0.0612 
    117 H117       18.3023  -33.5519  -42.0904 H         1 UNK         0.0612 
@<TRIPOS>BOND
     1    1    2 1    
     2    1   62 1    
     3    1   63 1    
     4    1   64 1    
     5    2    3 2    
     6    2    4 am   BACKBONE|DICT|INTERRES
     7    4    5 1    
     8    4   65 1    
     9    5    6 1    
    10    5   25 1    
    11    5   66 1    
    12    6    7 1    
    13    6   67 1    
    14    6   68 1    
    15    7    8 1    
    16    8    9 1    
    17    8   69 1    
    18    8   70 1    
    19    9   10 ar   
    20    9   14 ar   
    21   10   11 ar   
    22   10   71 1    
    23   11   12 ar   
    24   11   61 1    
    25   12   13 ar   
    26   12   72 1    
    27   13   14 ar   
    28   13   15 1    
    29   14   73 1    
    30   15   16 1    
    31   15   74 1    
    32   15   75 1    
    33   16   17 1    
    34   17   18 1    
    35   17   76 1    
    36   17   77 1    
    37   18   19 1    
    38   18   27 1    
    39   18   78 1    
    40   19   20 am   BACKBONE|DICT|INTERRES
    41   19   79 1    
    42   20   21 2    
    43   20   22 1    
    44   22   23 1    
    45   22   24 1    
    46   22   80 1    
    47   23   81 1    
    48   23   82 1    
    49   23   83 1    
    50   24   25 am   BACKBONE|DICT|INTERRES
    51   24   84 1    
    52   25   26 2    
    53   27   28 2    
    54   27   29 am   BACKBONE|DICT|INTERRES
    55   29   30 1    
    56   29   85 1    
    57   30   31 1    
    58   30   32 1    
    59   30   86 1    
    60   31   87 1    
    61   31   88 1    
    62   31   89 1    
    63   32   33 2    
    64   32   34 am   BACKBONE|DICT|INTERRES
    65   34   35 1    
    66   34   90 1    
    67   35   36 1    
    68   35   37 1    
    69   35   91 1    
    70   36   92 1    
    71   36   93 1    
    72   36   94 1    
    73   37   38 2    
    74   37   39 am   BACKBONE|DICT|INTERRES
    75   39   40 1    
    76   39   95 1    
    77   40   41 1    
    78   40   42 1    
    79   40   96 1    
    80   41   97 1    
    81   41   98 1    
    82   41   99 1    
    83   42   43 2    
    84   42   44 am   BACKBONE|DICT|INTERRES
    85   44   45 1    
    86   44  100 1    
    87   45   46 1    
    88   45   47 1    
    89   45  101 1    
    90   46  102 1    
    91   46  103 1    
    92   46  104 1    
    93   47   48 2    
    94   47   49 am   BACKBONE|DICT|INTERRES
    95   49   50 1    
    96   49  105 1    
    97   50   51 1    
    98   50   52 1    
    99   50  106 1    
   100   51  107 1    
   101   51  108 1    
   102   51  109 1    
   103   52   53 2    
   104   52   54 am   BACKBONE|DICT|INTERRES
   105   54   55 1    
   106   54  110 1    
   107   55   56 1    
   108   55   59 1    
   109   55  111 1    
   110   56   57 am   BACKBONE|DICT|INTERRES
   111   56   58 2    
   112   57  112 1    
   113   57  113 1    
   114   59   60 1    
   115   59  114 1    
   116   59  115 1    
   117   60   61 1    
   118   61  116 1    
   119   61  117 1    
@<TRIPOS>SUBSTRUCTURE
     1 UNK         1 GROUP             0       ****    0 ROOT    
