@<TRIPOS>MOLECULE
3R8
117   119    1
SMALL
USER_CHARGES


@<TRIPOS>ATOM
      1 CA         16.5363  -23.8111  -40.8927 C.3       0 UNK        -0.2013 
      2 C          17.2282  -23.9161  -42.2436 C.2       0 UNK         0.4866 
      3 O          17.6832  -22.9046  -42.7792 O.2       0 UNK        -0.5176 
      4 N          17.3018  -25.1305  -42.8020 N.am      1 UNK        -0.4884 
      5 CA         17.9843  -25.4349  -44.0647 C.3       1 UNK         0.0853 
      6 C6         17.6408  -26.8571  -44.5732 C.3       10 UNK        -0.0849 
      7 S7         15.8553  -27.1007  -44.8471 S.3       10 UNK        -0.2776 
      8 C8         15.8614  -28.5085  -46.0057 C.3       10 UNK         0.0316 
      9 C9         16.5643  -29.7319  -45.4294 C.ar      10 UNK        -0.0863 
     10 C10        16.0360  -30.3871  -44.3140 C.ar      10 UNK        -0.1009 
     11 C11        16.6591  -31.5191  -43.7793 C.ar      10 UNK        -0.0712 
     12 C12        17.8350  -31.9903  -44.3817 C.ar      10 UNK        -0.0894 
     13 C13        18.3786  -31.3438  -45.4963 C.ar      10 UNK        -0.0745 
     14 C14        17.7328  -30.2198  -46.0202 C.ar      10 UNK        -0.0972 
     15 C15        19.6434  -31.8837  -46.1555 C.3       10 UNK         0.0209 
     16 S16        21.1666  -31.3228  -45.3240 S.3       10 UNK        -0.2568 
     17 C17        21.2014  -29.5558  -45.7929 C.3       10 UNK        -0.0983 
     18 CA         22.1562  -28.6188  -44.9984 C.3       3 UNK         0.0876 
     19 N          21.7876  -27.2221  -45.2538 N.am      3 UNK        -0.4424 
     20 C          22.3865  -26.1257  -44.7696 C.2       2 UNK         0.4918 
     21 O          23.4131  -26.1362  -44.0952 O.2       2 UNK        -0.4875 
     22 CA         21.6695  -24.7887  -45.0313 C.3       2 UNK         0.0481 
     23 CB         22.0999  -24.2021  -46.3845 C.3       2 UNK        -0.1831 
     24 N          20.2044  -24.8942  -44.9766 N.am      2 UNK        -0.4498 
     25 C          19.5114  -25.3055  -43.9033 C.2       1 UNK         0.5027 
     26 O          20.0386  -25.6474  -42.8419 O.2       1 UNK        -0.4969 
     27 C          22.1985  -28.9165  -43.4828 C.2       3 UNK         0.5005 
     28 O          23.2433  -29.3099  -42.9607 O.2       3 UNK        -0.5279 
     29 N          21.0649  -28.6795  -42.8082 N.am      4 UNK        -0.4463 
     30 CA         20.8838  -28.8965  -41.3736 C.3       4 UNK         0.0283 
     31 CB         19.3933  -28.7594  -41.0235 C.3       4 UNK        -0.1875 
     32 C          21.7428  -27.9657  -40.5009 C.2       4 UNK         0.4949 
     33 O          22.1622  -28.3792  -39.4213 O.2       4 UNK        -0.5039 
     34 N          21.9851  -26.7367  -40.9756 N.am      5 UNK        -0.4663 
     35 CA         22.8361  -25.7474  -40.3159 C.3       5 UNK         0.0242 
     36 CB         22.5488  -24.3537  -40.8978 C.3       5 UNK        -0.1982 
     37 C          24.3329  -26.0863  -40.4184 C.2       5 UNK         0.5017 
     38 O          25.0340  -26.0100  -39.4087 O.2       5 UNK        -0.5012 
     39 N          24.8014  -26.4275  -41.6280 N.am      6 UNK        -0.4439 
     40 CA         26.2089  -26.7211  -41.9127 C.3       6 UNK         0.0297 
     41 CB         26.4707  -26.6078  -43.4232 C.3       6 UNK        -0.2006 
     42 C          26.6558  -28.0975  -41.3986 C.2       6 UNK         0.4892 
     43 O          27.7830  -28.2173  -40.9158 O.2       6 UNK        -0.5089 
     44 N          25.7814  -29.1021  -41.5226 N.am      7 UNK        -0.4243 
     45 CA         26.0114  -30.4736  -41.0834 C.3       7 UNK         0.0196 
     46 CB         26.1104  -31.3902  -42.3218 C.3       7 UNK        -0.2007 
     47 C          24.8904  -30.8439  -40.1041 C.2       7 UNK         0.5020 
     48 O          24.8760  -30.3253  -38.9874 O.2       7 UNK        -0.5147 
     49 N          23.9808  -31.7255  -40.5249 N.am      8 UNK        -0.4734 
     50 CA         22.7942  -32.1587  -39.7976 C.3       8 UNK         0.0238 
     51 CB         23.1769  -33.1497  -38.6810 C.3       8 UNK        -0.1912 
     52 C          21.8457  -32.8168  -40.8046 C.2       8 UNK         0.5038 
     53 O          22.3078  -33.3185  -41.8336 O.2       8 UNK        -0.5046 
     54 N          20.5485  -32.8262  -40.4812 N.am      9 UNK        -0.4200 
     55 CA         19.5238  -33.5681  -41.2251 C.3       9 UNK         0.0839 
     56 C          19.6691  -35.0960  -40.9772 C.2       9 UNK         0.5513 
     57 N          19.6823  -35.9056  -42.0271 N.am      9 UNK        -0.7519 
     58 O          19.7454  -35.5483  -39.8364 O.2       9 UNK        -0.4960 
     59 C59        18.1094  -33.0420  -40.8677 C.3       10 UNK        -0.0876 
     60 S60        16.7903  -33.7097  -41.9419 S.3       10 UNK        -0.2414 
     61 C61        15.9939  -32.1931  -42.5760 C.3       10 UNK         0.0169 
     62 H62        15.6884  -23.1296  -40.9569 H         1 UNK         0.0903 
     63 H63        16.1695  -24.7770  -40.5459 H         1 UNK         0.0903 
     64 H64        17.2295  -23.4241  -40.1463 H         1 UNK         0.0903 
     65 H65        16.9071  -25.9254  -42.3207 H         1 UNK         0.3096 
     66 H66        17.6533  -24.7058  -44.8079 H         1 UNK         0.1121 
     67 H67        18.1590  -27.0594  -45.5128 H         1 UNK         0.0849 
     68 H68        17.9795  -27.6165  -43.8651 H         1 UNK         0.0849 
     69 H69        14.8308  -28.7710  -46.2485 H         1 UNK         0.0865 
     70 H70        16.3242  -28.1969  -46.9435 H         1 UNK         0.0865 
     71 H71        15.1272  -30.0125  -43.8621 H         1 UNK         0.1346 
     72 H72        18.3324  -32.8700  -44.0051 H         1 UNK         0.1412 
     73 H73        18.1410  -29.7264  -46.8918 H         1 UNK         0.1426 
     74 H74        19.6801  -31.5971  -47.2077 H         1 UNK         0.0716 
     75 H75        19.6214  -32.9744  -46.1418 H         1 UNK         0.0716 
     76 H76        21.4317  -29.4935  -46.8576 H         1 UNK         0.0695 
     77 H77        20.1844  -29.1806  -45.6887 H         1 UNK         0.0695 
     78 H78        23.1702  -28.7664  -45.3761 H         1 UNK         0.0983 
     79 H79        20.9619  -27.0819  -45.8151 H         1 UNK         0.3095 
     80 H80        21.9761  -24.0916  -44.2493 H         1 UNK         0.0454 
     81 H81        23.1849  -24.0989  -46.4363 H         1 UNK         0.0851 
     82 H82        21.7932  -24.8339  -47.2189 H         1 UNK         0.0851 
     83 H83        21.6762  -23.2099  -46.5402 H         1 UNK         0.0851 
     84 H84        19.7022  -24.6299  -45.8127 H         1 UNK         0.2976 
     85 H85        20.2727  -28.3148  -43.3134 H         1 UNK         0.3116 
     86 H86        21.1899  -29.9209  -41.1594 H         1 UNK         0.0646 
     87 H87        19.2221  -28.9627  -39.9656 H         1 UNK         0.0847 
     88 H88        18.7841  -29.4635  -41.5912 H         1 UNK         0.0847 
     89 H89        19.0227  -27.7535  -41.2253 H         1 UNK         0.0847 
     90 H90        21.5173  -26.4480  -41.8300 H         1 UNK         0.3040 
     91 H91        22.5739  -25.7292  -39.2555 H         1 UNK         0.1015 
     92 H92        21.4992  -24.0834  -40.7793 H         1 UNK         0.0786 
     93 H93        22.7881  -24.3016  -41.9600 H         1 UNK         0.0786 
     94 H94        23.1409  -23.5900  -40.3918 H         1 UNK         0.0786 
     95 H95        24.1657  -26.4351  -42.4234 H         1 UNK         0.3172 
     96 H96        26.8196  -25.9660  -41.4129 H         1 UNK         0.0595 
     97 H97        26.2186  -25.6152  -43.7967 H         1 UNK         0.0839 
     98 H98        25.8885  -27.3364  -43.9892 H         1 UNK         0.0839 
     99 H99        27.5229  -26.7828  -43.6516 H         1 UNK         0.0839 
    100 H100       24.8655  -28.9219  -41.9275 H         1 UNK         0.2998 
    101 H101       26.9474  -30.5539  -40.5267 H         1 UNK         0.0822 
    102 H102       26.9702  -31.1198  -42.9349 H         1 UNK         0.0787 
    103 H103       26.2408  -32.4339  -42.0325 H         1 UNK         0.0787 
    104 H104       25.2251  -31.3236  -42.9559 H         1 UNK         0.0787 
    105 H105       24.0353  -32.0890  -41.4697 H         1 UNK         0.3055 
    106 H106       22.3062  -31.2821  -39.3651 H         1 UNK         0.1106 
    107 H107       23.6919  -34.0244  -39.0803 H         1 UNK         0.0828 
    108 H108       23.8290  -32.6871  -37.9402 H         1 UNK         0.0828 
    109 H109       22.2924  -33.5059  -38.1513 H         1 UNK         0.0828 
    110 H110       20.2602  -32.4381  -39.5953 H         1 UNK         0.2931 
    111 H111       19.6958  -33.3708  -42.2845 H         1 UNK         0.0412 
    112 H112       19.7656  -36.8995  -41.8805 H         1 UNK         0.3472 
    113 H113       19.6120  -35.5413  -42.9642 H         1 UNK         0.3472 
    114 H114       18.1001  -31.9534  -40.9403 H         1 UNK         0.0970 
    115 H115       17.8611  -33.2746  -39.8304 H         1 UNK         0.0970 
    116 H116       15.8996  -31.4718  -41.7629 H         1 UNK         0.0612 
    117 H117       14.9756  -32.4603  -42.8623 H         1 UNK         0.0612 
@<TRIPOS>BOND
     1    1    2 1    
     2    1   62 1    
     3    1   63 1    
     4    1   64 1    
     5    2    3 2    
     6    2    4 am   BACKBONE|DICT|INTERRES
     7    4    5 1    
     8    4   65 1    
     9    5    6 1    
    10    5   25 1    
    11    5   66 1    
    12    6    7 1    
    13    6   67 1    
    14    6   68 1    
    15    7    8 1    
    16    8    9 1    
    17    8   69 1    
    18    8   70 1    
    19    9   10 ar   
    20    9   14 ar   
    21   10   11 ar   
    22   10   71 1    
    23   11   12 ar   
    24   11   61 1    
    25   12   13 ar   
    26   12   72 1    
    27   13   14 ar   
    28   13   15 1    
    29   14   73 1    
    30   15   16 1    
    31   15   74 1    
    32   15   75 1    
    33   16   17 1    
    34   17   18 1    
    35   17   76 1    
    36   17   77 1    
    37   18   19 1    
    38   18   27 1    
    39   18   78 1    
    40   19   20 am   BACKBONE|DICT|INTERRES
    41   19   79 1    
    42   20   21 2    
    43   20   22 1    
    44   22   23 1    
    45   22   24 1    
    46   22   80 1    
    47   23   81 1    
    48   23   82 1    
    49   23   83 1    
    50   24   25 am   BACKBONE|DICT|INTERRES
    51   24   84 1    
    52   25   26 2    
    53   27   28 2    
    54   27   29 am   BACKBONE|DICT|INTERRES
    55   29   30 1    
    56   29   85 1    
    57   30   31 1    
    58   30   32 1    
    59   30   86 1    
    60   31   87 1    
    61   31   88 1    
    62   31   89 1    
    63   32   33 2    
    64   32   34 am   BACKBONE|DICT|INTERRES
    65   34   35 1    
    66   34   90 1    
    67   35   36 1    
    68   35   37 1    
    69   35   91 1    
    70   36   92 1    
    71   36   93 1    
    72   36   94 1    
    73   37   38 2    
    74   37   39 am   BACKBONE|DICT|INTERRES
    75   39   40 1    
    76   39   95 1    
    77   40   41 1    
    78   40   42 1    
    79   40   96 1    
    80   41   97 1    
    81   41   98 1    
    82   41   99 1    
    83   42   43 2    
    84   42   44 am   BACKBONE|DICT|INTERRES
    85   44   45 1    
    86   44  100 1    
    87   45   46 1    
    88   45   47 1    
    89   45  101 1    
    90   46  102 1    
    91   46  103 1    
    92   46  104 1    
    93   47   48 2    
    94   47   49 am   BACKBONE|DICT|INTERRES
    95   49   50 1    
    96   49  105 1    
    97   50   51 1    
    98   50   52 1    
    99   50  106 1    
   100   51  107 1    
   101   51  108 1    
   102   51  109 1    
   103   52   53 2    
   104   52   54 am   BACKBONE|DICT|INTERRES
   105   54   55 1    
   106   54  110 1    
   107   55   56 1    
   108   55   59 1    
   109   55  111 1    
   110   56   57 am   BACKBONE|DICT|INTERRES
   111   56   58 2    
   112   57  112 1    
   113   57  113 1    
   114   59   60 1    
   115   59  114 1    
   116   59  115 1    
   117   60   61 1    
   118   61  116 1    
   119   61  117 1    
@<TRIPOS>SUBSTRUCTURE
     1 UNK         1 GROUP             0       ****    0 ROOT    
