@<TRIPOS>MOLECULE
3R8
117   119    1
SMALL
USER_CHARGES


@<TRIPOS>ATOM
      1 CA         13.0981  -24.7437  -45.3693 C.3       0 UNK        -0.2013 
      2 C          13.9561  -25.8304  -44.7378 C.2       0 UNK         0.4866 
      3 O          13.4902  -26.5201  -43.8300 O.2       0 UNK        -0.5176 
      4 N          15.1983  -25.9823  -45.2185 N.am      1 UNK        -0.4884 
      5 CA         16.2145  -26.9387  -44.7510 C.3       1 UNK         0.0853 
      6 C6         15.8066  -28.4274  -44.9770 C.3       10 UNK        -0.0849 
      7 S7         15.7669  -28.8277  -46.7566 S.3       10 UNK        -0.2776 
      8 C8         17.1995  -29.9509  -46.9292 C.3       10 UNK         0.0316 
      9 C9         18.5006  -29.3831  -46.3653 C.ar      10 UNK        -0.0863 
     10 C10        19.2640  -30.1420  -45.4697 C.ar      10 UNK        -0.1009 
     11 C11        20.4675  -29.6413  -44.9657 C.ar      10 UNK        -0.0712 
     12 C12        20.9023  -28.3740  -45.3530 C.ar      10 UNK        -0.0894 
     13 C13        20.1334  -27.5879  -46.2127 C.ar      10 UNK        -0.0745 
     14 C14        18.9482  -28.1104  -46.7394 C.ar      10 UNK        -0.0972 
     15 C15        20.5817  -26.1783  -46.5707 C.3       10 UNK         0.0209 
     16 S16        20.1311  -24.9736  -45.2744 S.3       10 UNK        -0.2568 
     17 C17        21.5049  -25.1626  -44.0814 C.3       10 UNK        -0.0983 
     18 CA         21.0664  -25.3669  -42.6044 C.3       3 UNK         0.0876 
     19 N          19.9624  -26.3248  -42.4498 N.am      3 UNK        -0.4424 
     20 C          19.1904  -26.4210  -41.3558 C.2       2 UNK         0.4918 
     21 O          19.3383  -25.7186  -40.3546 O.2       2 UNK        -0.4875 
     22 CA         18.0780  -27.4869  -41.3935 C.3       2 UNK         0.0481 
     23 CB         17.0432  -27.3284  -40.2595 C.3       2 UNK        -0.1831 
     24 N          17.4241  -27.5788  -42.7046 N.am      2 UNK        -0.4498 
     25 C          16.7108  -26.6215  -43.3201 C.2       1 UNK         0.5027 
     26 O          16.4964  -25.5106  -42.8269 O.2       1 UNK        -0.4969 
     27 C          22.2956  -25.7301  -41.7381 C.2       3 UNK         0.5005 
     28 O          23.1558  -24.8726  -41.5328 O.2       3 UNK        -0.5279 
     29 N          22.3659  -26.9901  -41.2745 N.am      4 UNK        -0.4463 
     30 CA         23.4603  -27.6128  -40.5192 C.3       4 UNK         0.0283 
     31 CB         23.6469  -26.9469  -39.1401 C.3       4 UNK        -0.1875 
     32 C          24.7646  -27.7041  -41.3343 C.2       4 UNK         0.4949 
     33 O          25.8558  -27.5495  -40.7841 O.2       4 UNK        -0.5039 
     34 N          24.6201  -27.9824  -42.6338 N.am      5 UNK        -0.4663 
     35 CA         25.7025  -28.2272  -43.5782 C.3       5 UNK         0.0242 
     36 CB         26.1362  -26.8931  -44.2163 C.3       5 UNK        -0.1982 
     37 C          25.1803  -29.2309  -44.6217 C.2       5 UNK         0.5017 
     38 O          24.5111  -28.7988  -45.5591 O.2       5 UNK        -0.5012 
     39 N          25.4173  -30.5461  -44.4899 N.am      6 UNK        -0.4439 
     40 CA         26.0671  -31.2623  -43.3850 C.3       6 UNK         0.0297 
     41 CB         26.2798  -32.7248  -43.8094 C.3       6 UNK        -0.2006 
     42 C          25.2425  -31.2132  -42.0878 C.2       6 UNK         0.4892 
     43 O          24.0225  -31.0647  -42.1426 O.2       6 UNK        -0.5089 
     44 N          25.9233  -31.3599  -40.9441 N.am      7 UNK        -0.4243 
     45 CA         25.3673  -31.2122  -39.5911 C.3       7 UNK         0.0196 
     46 CB         26.5135  -31.3173  -38.5717 C.3       7 UNK        -0.2007 
     47 C          24.2260  -32.1793  -39.2162 C.2       7 UNK         0.5020 
     48 O          23.5442  -31.9348  -38.2208 O.2       7 UNK        -0.5147 
     49 N          24.0238  -33.2445  -40.0041 N.am      8 UNK        -0.4734 
     50 CA         22.9894  -34.2683  -39.8205 C.3       8 UNK         0.0238 
     51 CB         23.1456  -35.3396  -40.9121 C.3       8 UNK        -0.1912 
     52 C          21.5439  -33.7342  -39.7979 C.2       8 UNK         0.5038 
     53 O          20.7016  -34.3399  -39.1336 O.2       8 UNK        -0.5046 
     54 N          21.2820  -32.6220  -40.4989 N.am      9 UNK        -0.4200 
     55 CA         19.9969  -31.9035  -40.4591 C.3       9 UNK         0.0839 
     56 C          19.8197  -30.9587  -39.2322 C.2       9 UNK         0.5513 
     57 N          20.8057  -30.7923  -38.3579 N.am      9 UNK        -0.7519 
     58 O          18.7535  -30.3736  -39.0621 O.2       9 UNK        -0.4960 
     59 C59        19.6806  -31.1967  -41.8035 C.3       10 UNK        -0.0876 
     60 S60        20.9360  -29.9591  -42.2800 S.3       10 UNK        -0.2414 
     61 C61        21.3088  -30.4462  -43.9914 C.3       10 UNK         0.0169 
     62 H62        13.6247  -24.2170  -46.1651 H         1 UNK         0.0903 
     63 H63        12.1934  -25.1791  -45.7928 H         1 UNK         0.0903 
     64 H64        12.8046  -24.0131  -44.6160 H         1 UNK         0.0903 
     65 H65        15.5122  -25.3594  -45.9496 H         1 UNK         0.3096 
     66 H66        17.0899  -26.7357  -45.3669 H         1 UNK         0.1121 
     67 H67        16.4858  -29.1293  -44.4946 H         1 UNK         0.0849 
     68 H68        14.8268  -28.6376  -44.5470 H         1 UNK         0.0849 
     69 H69        16.9528  -30.8987  -46.4480 H         1 UNK         0.0865 
     70 H70        17.3444  -30.1757  -47.9867 H         1 UNK         0.0865 
     71 H71        18.9287  -31.1253  -45.1689 H         1 UNK         0.1346 
     72 H72        21.8421  -28.0052  -44.9716 H         1 UNK         0.1412 
     73 H73        18.3591  -27.5177  -47.4263 H         1 UNK         0.1426 
     74 H74        20.1166  -25.8674  -47.5075 H         1 UNK         0.0716 
     75 H75        21.6580  -26.1551  -46.7485 H         1 UNK         0.0716 
     76 H76        22.1145  -24.2599  -44.1531 H         1 UNK         0.0695 
     77 H77        22.1631  -25.9665  -44.4064 H         1 UNK         0.0695 
     78 H78        20.7037  -24.4033  -42.2391 H         1 UNK         0.0983 
     79 H79        19.7615  -26.9103  -43.2475 H         1 UNK         0.3095 
     80 H80        18.5774  -28.4407  -41.2338 H         1 UNK         0.0454 
     81 H81        17.5226  -27.4123  -39.2834 H         1 UNK         0.0851 
     82 H82        16.2796  -28.1044  -40.3086 H         1 UNK         0.0851 
     83 H83        16.5434  -26.3602  -40.2935 H         1 UNK         0.0851 
     84 H84        17.5761  -28.4463  -43.1993 H         1 UNK         0.2976 
     85 H85        21.6043  -27.6114  -41.5137 H         1 UNK         0.3116 
     86 H86        23.1490  -28.6435  -40.3409 H         1 UNK         0.0646 
     87 H87        24.0265  -25.9287  -39.2283 H         1 UNK         0.0847 
     88 H88        22.7081  -26.9099  -38.5877 H         1 UNK         0.0847 
     89 H89        24.3585  -27.5059  -38.5312 H         1 UNK         0.0847 
     90 H90        23.6891  -28.1512  -42.9882 H         1 UNK         0.3040 
     91 H91        26.5676  -28.6433  -43.0618 H         1 UNK         0.1015 
     92 H92        26.5482  -26.2144  -43.4692 H         1 UNK         0.0786 
     93 H93        26.9078  -27.0542  -44.9701 H         1 UNK         0.0786 
     94 H94        25.3026  -26.3840  -44.7022 H         1 UNK         0.0786 
     95 H95        25.0156  -31.1440  -45.1964 H         1 UNK         0.3172 
     96 H96        27.0465  -30.8165  -43.2044 H         1 UNK         0.0595 
     97 H97        25.3331  -33.2323  -44.0013 H         1 UNK         0.0839 
     98 H98        26.7997  -33.2901  -43.0346 H         1 UNK         0.0839 
     99 H99        26.8855  -32.7926  -44.7135 H         1 UNK         0.0839 
    100 H100       26.9208  -31.5110  -40.9962 H         1 UNK         0.2998 
    101 H101       24.9509  -30.2058  -39.5231 H         1 UNK         0.0822 
    102 H102       26.1481  -31.1757  -37.5534 H         1 UNK         0.0787 
    103 H103       27.2725  -30.5545  -38.7472 H         1 UNK         0.0787 
    104 H104       26.9991  -32.2932  -38.6107 H         1 UNK         0.0787 
    105 H105       24.6216  -33.3450  -40.8111 H         1 UNK         0.3055 
    106 H106       23.1681  -34.7374  -38.8504 H         1 UNK         0.1106 
    107 H107       23.0143  -34.9201  -41.9104 H         1 UNK         0.0828 
    108 H108       24.1279  -35.8105  -40.8706 H         1 UNK         0.0828 
    109 H109       22.4049  -36.1316  -40.7916 H         1 UNK         0.0828 
    110 H110       22.0326  -32.1669  -41.0028 H         1 UNK         0.2931 
    111 H111       19.2138  -32.6543  -40.3367 H         1 UNK         0.0412 
    112 H112       21.6906  -31.2782  -38.4559 H         1 UNK         0.3472 
    113 H113       20.6591  -30.1819  -37.5703 H         1 UNK         0.3472 
    114 H114       19.5909  -31.9520  -42.5845 H         1 UNK         0.0970 
    115 H115       18.7029  -30.7146  -41.7666 H         1 UNK         0.0970 
    116 H116       22.3654  -30.2585  -44.1822 H         1 UNK         0.0612 
    117 H117       21.1681  -31.5176  -44.1378 H         1 UNK         0.0612 
@<TRIPOS>BOND
     1    1    2 1    
     2    1   62 1    
     3    1   63 1    
     4    1   64 1    
     5    2    3 2    
     6    2    4 am   BACKBONE|DICT|INTERRES
     7    4    5 1    
     8    4   65 1    
     9    5    6 1    
    10    5   25 1    
    11    5   66 1    
    12    6    7 1    
    13    6   67 1    
    14    6   68 1    
    15    7    8 1    
    16    8    9 1    
    17    8   69 1    
    18    8   70 1    
    19    9   10 ar   
    20    9   14 ar   
    21   10   11 ar   
    22   10   71 1    
    23   11   12 ar   
    24   11   61 1    
    25   12   13 ar   
    26   12   72 1    
    27   13   14 ar   
    28   13   15 1    
    29   14   73 1    
    30   15   16 1    
    31   15   74 1    
    32   15   75 1    
    33   16   17 1    
    34   17   18 1    
    35   17   76 1    
    36   17   77 1    
    37   18   19 1    
    38   18   27 1    
    39   18   78 1    
    40   19   20 am   BACKBONE|DICT|INTERRES
    41   19   79 1    
    42   20   21 2    
    43   20   22 1    
    44   22   23 1    
    45   22   24 1    
    46   22   80 1    
    47   23   81 1    
    48   23   82 1    
    49   23   83 1    
    50   24   25 am   BACKBONE|DICT|INTERRES
    51   24   84 1    
    52   25   26 2    
    53   27   28 2    
    54   27   29 am   BACKBONE|DICT|INTERRES
    55   29   30 1    
    56   29   85 1    
    57   30   31 1    
    58   30   32 1    
    59   30   86 1    
    60   31   87 1    
    61   31   88 1    
    62   31   89 1    
    63   32   33 2    
    64   32   34 am   BACKBONE|DICT|INTERRES
    65   34   35 1    
    66   34   90 1    
    67   35   36 1    
    68   35   37 1    
    69   35   91 1    
    70   36   92 1    
    71   36   93 1    
    72   36   94 1    
    73   37   38 2    
    74   37   39 am   BACKBONE|DICT|INTERRES
    75   39   40 1    
    76   39   95 1    
    77   40   41 1    
    78   40   42 1    
    79   40   96 1    
    80   41   97 1    
    81   41   98 1    
    82   41   99 1    
    83   42   43 2    
    84   42   44 am   BACKBONE|DICT|INTERRES
    85   44   45 1    
    86   44  100 1    
    87   45   46 1    
    88   45   47 1    
    89   45  101 1    
    90   46  102 1    
    91   46  103 1    
    92   46  104 1    
    93   47   48 2    
    94   47   49 am   BACKBONE|DICT|INTERRES
    95   49   50 1    
    96   49  105 1    
    97   50   51 1    
    98   50   52 1    
    99   50  106 1    
   100   51  107 1    
   101   51  108 1    
   102   51  109 1    
   103   52   53 2    
   104   52   54 am   BACKBONE|DICT|INTERRES
   105   54   55 1    
   106   54  110 1    
   107   55   56 1    
   108   55   59 1    
   109   55  111 1    
   110   56   57 am   BACKBONE|DICT|INTERRES
   111   56   58 2    
   112   57  112 1    
   113   57  113 1    
   114   59   60 1    
   115   59  114 1    
   116   59  115 1    
   117   60   61 1    
   118   61  116 1    
   119   61  117 1    
@<TRIPOS>SUBSTRUCTURE
     1 UNK         1 GROUP             0       ****    0 ROOT    
