@<TRIPOS>MOLECULE
3R8
117   119    1
SMALL
USER_CHARGES


@<TRIPOS>ATOM
      1 CA         13.3437  -23.3888  -45.0855 C.3       0 UNK        -0.2013 
      2 C          14.4516  -24.2094  -45.7285 C.2       0 UNK         0.4866 
      3 O          14.6604  -24.1121  -46.9379 O.2       0 UNK        -0.5176 
      4 N          15.1576  -25.0204  -44.9293 N.am      1 UNK        -0.4884 
      5 CA         16.2687  -25.8775  -45.3636 C.3       1 UNK         0.0853 
      6 C6         16.7035  -26.8543  -44.2467 C.3       10 UNK        -0.0849 
      7 S7         15.4305  -28.1062  -43.8580 S.3       10 UNK        -0.2776 
      8 C8         16.1032  -29.6184  -44.6316 C.3       10 UNK         0.0316 
      9 C9         17.4818  -29.9726  -44.0900 C.ar      10 UNK        -0.0863 
     10 C10        17.6254  -30.4998  -42.8034 C.ar      10 UNK        -0.1009 
     11 C11        18.8975  -30.7569  -42.2836 C.ar      10 UNK        -0.0712 
     12 C12        20.0301  -30.4732  -43.0546 C.ar      10 UNK        -0.0894 
     13 C13        19.8976  -29.9545  -44.3456 C.ar      10 UNK        -0.0745 
     14 C14        18.6198  -29.7343  -44.8664 C.ar      10 UNK        -0.0972 
     15 C15        21.1295  -29.6304  -45.1805 C.3       10 UNK         0.0209 
     16 S16        21.1650  -27.8860  -45.7137 S.3       10 UNK        -0.2568 
     17 C17        21.6235  -27.0360  -44.1688 C.3       10 UNK        -0.0983 
     18 CA         21.7717  -25.5098  -44.3893 C.3       3 UNK         0.0876 
     19 N          20.4844  -24.8565  -44.6470 N.am      3 UNK        -0.4424 
     20 C          20.3446  -23.6753  -45.2647 C.2       2 UNK         0.4918 
     21 O          21.2919  -23.0561  -45.7527 O.2       2 UNK        -0.4875 
     22 CA         18.9283  -23.0579  -45.3299 C.3       2 UNK         0.0481 
     23 CB         18.6987  -22.2583  -46.6303 C.3       2 UNK        -0.1831 
     24 N          17.8241  -24.0007  -45.0985 N.am      2 UNK        -0.4498 
     25 C          17.4871  -25.0639  -45.8467 C.2       1 UNK         0.5027 
     26 O          18.0902  -25.4187  -46.8597 O.2       1 UNK        -0.4969 
     27 C          22.4598  -24.8341  -43.1869 C.2       3 UNK         0.5005 
     28 O          21.7925  -24.5110  -42.2003 O.2       3 UNK        -0.5279 
     29 N          23.7807  -24.6341  -43.2908 N.am      4 UNK        -0.4463 
     30 CA         24.6057  -23.9570  -42.2829 C.3       4 UNK         0.0283 
     31 CB         25.8914  -23.4457  -42.9547 C.3       4 UNK        -0.1875 
     32 C          24.9534  -24.8329  -41.0644 C.2       4 UNK         0.4949 
     33 O          25.4051  -24.2972  -40.0517 O.2       4 UNK        -0.5039 
     34 N          24.7571  -26.1498  -41.1780 N.am      5 UNK        -0.4663 
     35 CA         25.0006  -27.1449  -40.1387 C.3       5 UNK         0.0242 
     36 CB         26.4481  -27.6590  -40.2517 C.3       5 UNK        -0.1982 
     37 C          23.9904  -28.2861  -40.3048 C.2       5 UNK         0.5017 
     38 O          23.3355  -28.3743  -41.3472 O.2       5 UNK        -0.5012 
     39 N          23.8972  -29.1465  -39.2812 N.am      6 UNK        -0.4439 
     40 CA         23.0166  -30.3192  -39.2538 C.3       6 UNK         0.0297 
     41 CB         23.0545  -30.9623  -37.8577 C.3       6 UNK        -0.2006 
     42 C          23.3507  -31.3617  -40.3340 C.2       6 UNK         0.4892 
     43 O          22.4305  -31.9536  -40.8958 O.2       6 UNK        -0.5089 
     44 N          24.6507  -31.5529  -40.6111 N.am      7 UNK        -0.4243 
     45 CA         25.2085  -32.4503  -41.6295 C.3       7 UNK         0.0196 
     46 CB         24.9898  -31.8460  -43.0365 C.3       7 UNK        -0.2007 
     47 C          24.6784  -33.8900  -41.4720 C.2       7 UNK         0.5020 
     48 O          24.9967  -34.5428  -40.4767 O.2       7 UNK        -0.5147 
     49 N          23.8490  -34.3411  -42.4225 N.am      8 UNK        -0.4734 
     50 CA         23.1757  -35.6430  -42.4196 C.3       8 UNK         0.0238 
     51 CB         22.4579  -35.8372  -43.7655 C.3       8 UNK        -0.1912 
     52 C          22.1902  -35.8491  -41.2529 C.2       8 UNK         0.5038 
     53 O          21.9203  -37.0002  -40.9064 O.2       8 UNK        -0.5046 
     54 N          21.6802  -34.7572  -40.6658 N.am      9 UNK        -0.4200 
     55 CA         20.8184  -34.7832  -39.4731 C.3       9 UNK         0.0839 
     56 C          21.5935  -35.0328  -38.1455 C.2       9 UNK         0.5513 
     57 N          22.9226  -35.0222  -38.1288 N.am      9 UNK        -0.7519 
     58 O          20.9726  -35.2439  -37.1071 O.2       9 UNK        -0.4960 
     59 C59        19.9204  -33.5211  -39.3554 C.3       10 UNK        -0.0876 
     60 S60        18.9991  -33.1365  -40.8857 S.3       10 UNK        -0.2414 
     61 C61        19.0553  -31.3168  -40.8802 C.3       10 UNK         0.0169 
     62 H62        13.5335  -22.3253  -45.2288 H         1 UNK         0.0903 
     63 H63        12.3848  -23.6286  -45.5443 H         1 UNK         0.0903 
     64 H64        13.2637  -23.5777  -44.0152 H         1 UNK         0.0903 
     65 H65        14.9143  -25.0846  -43.9505 H         1 UNK         0.3096 
     66 H66        15.9232  -26.4633  -46.2188 H         1 UNK         0.1121 
     67 H67        16.9264  -26.3092  -43.3275 H         1 UNK         0.0849 
     68 H68        17.6359  -27.3460  -44.5171 H         1 UNK         0.0849 
     69 H69        15.4178  -30.4472  -44.4484 H         1 UNK         0.0865 
     70 H70        16.1344  -29.4832  -45.7140 H         1 UNK         0.0865 
     71 H71        16.7482  -30.6921  -42.2005 H         1 UNK         0.1346 
     72 H72        21.0148  -30.6545  -42.6457 H         1 UNK         0.1412 
     73 H73        18.5166  -29.3280  -45.8637 H         1 UNK         0.1426 
     74 H74        21.1291  -30.2678  -46.0656 H         1 UNK         0.0716 
     75 H75        22.0470  -29.8594  -44.6354 H         1 UNK         0.0716 
     76 H76        22.5642  -27.4703  -43.8249 H         1 UNK         0.0695 
     77 H77        20.8818  -27.2538  -43.3978 H         1 UNK         0.0695 
     78 H78        22.4075  -25.3581  -45.2651 H         1 UNK         0.0983 
     79 H79        19.6718  -25.2894  -44.2381 H         1 UNK         0.3095 
     80 H80        18.8829  -22.3477  -44.5031 H         1 UNK         0.0454 
     81 H81        19.4178  -21.4437  -46.7238 H         1 UNK         0.0851 
     82 H82        17.7043  -21.8126  -46.6525 H         1 UNK         0.0851 
     83 H83        18.8044  -22.8860  -47.5155 H         1 UNK         0.0851 
     84 H84        17.2511  -23.8056  -44.2888 H         1 UNK         0.2976 
     85 H85        24.2565  -24.9348  -44.1303 H         1 UNK         0.3116 
     86 H86        24.0532  -23.0916  -41.9105 H         1 UNK         0.0646 
     87 H87        26.5132  -22.8995  -42.2438 H         1 UNK         0.0847 
     88 H88        26.4943  -24.2639  -43.3506 H         1 UNK         0.0847 
     89 H89        25.6680  -22.7631  -43.7748 H         1 UNK         0.0847 
     90 H90        24.3071  -26.5148  -42.0076 H         1 UNK         0.3040 
     91 H91        24.8431  -26.6941  -39.1559 H         1 UNK         0.1015 
     92 H92        26.6737  -28.3873  -39.4721 H         1 UNK         0.0786 
     93 H93        27.1662  -26.8454  -40.1468 H         1 UNK         0.0786 
     94 H94        26.6291  -28.1413  -41.2134 H         1 UNK         0.0786 
     95 H95        24.4708  -28.9919  -38.4640 H         1 UNK         0.3172 
     96 H96        21.9990  -29.9700  -39.4397 H         1 UNK         0.0595 
     97 H97        22.7122  -30.2676  -37.0905 H         1 UNK         0.0839 
     98 H98        24.0590  -31.2921  -37.5896 H         1 UNK         0.0839 
     99 H99        22.4062  -31.8378  -37.8097 H         1 UNK         0.0839 
    100 H100       25.3254  -31.0384  -40.0639 H         1 UNK         0.2998 
    101 H101       26.2839  -32.5004  -41.4523 H         1 UNK         0.0822 
    102 H102       25.4224  -32.4793  -43.8124 H         1 UNK         0.0787 
    103 H103       23.9333  -31.7032  -43.2679 H         1 UNK         0.0787 
    104 H104       25.4714  -30.8712  -43.1176 H         1 UNK         0.0787 
    105 H105       23.6172  -33.7140  -43.1793 H         1 UNK         0.3055 
    106 H106       23.9456  -36.4121  -42.3249 H         1 UNK         0.1106 
    107 H107       23.1566  -35.7875  -44.6008 H         1 UNK         0.0828 
    108 H108       21.9711  -36.8125  -43.8114 H         1 UNK         0.0828 
    109 H109       21.6872  -35.0815  -43.9238 H         1 UNK         0.0828 
    110 H110       21.9610  -33.8346  -40.9865 H         1 UNK         0.2931 
    111 H111       20.1426  -35.6333  -39.5847 H         1 UNK         0.0412 
    112 H112       23.4038  -35.1916  -37.2598 H         1 UNK         0.3472 
    113 H113       23.4546  -34.8630  -38.9752 H         1 UNK         0.3472 
    114 H114       19.1928  -33.6479  -38.5516 H         1 UNK         0.0970 
    115 H115       20.5291  -32.6620  -39.0735 H         1 UNK         0.0970 
    116 H116       19.9965  -30.9648  -40.4591 H         1 UNK         0.0612 
    117 H117       18.2682  -30.9359  -40.2279 H         1 UNK         0.0612 
@<TRIPOS>BOND
     1    1    2 1    
     2    1   62 1    
     3    1   63 1    
     4    1   64 1    
     5    2    3 2    
     6    2    4 am   BACKBONE|DICT|INTERRES
     7    4    5 1    
     8    4   65 1    
     9    5    6 1    
    10    5   25 1    
    11    5   66 1    
    12    6    7 1    
    13    6   67 1    
    14    6   68 1    
    15    7    8 1    
    16    8    9 1    
    17    8   69 1    
    18    8   70 1    
    19    9   10 ar   
    20    9   14 ar   
    21   10   11 ar   
    22   10   71 1    
    23   11   12 ar   
    24   11   61 1    
    25   12   13 ar   
    26   12   72 1    
    27   13   14 ar   
    28   13   15 1    
    29   14   73 1    
    30   15   16 1    
    31   15   74 1    
    32   15   75 1    
    33   16   17 1    
    34   17   18 1    
    35   17   76 1    
    36   17   77 1    
    37   18   19 1    
    38   18   27 1    
    39   18   78 1    
    40   19   20 am   BACKBONE|DICT|INTERRES
    41   19   79 1    
    42   20   21 2    
    43   20   22 1    
    44   22   23 1    
    45   22   24 1    
    46   22   80 1    
    47   23   81 1    
    48   23   82 1    
    49   23   83 1    
    50   24   25 am   BACKBONE|DICT|INTERRES
    51   24   84 1    
    52   25   26 2    
    53   27   28 2    
    54   27   29 am   BACKBONE|DICT|INTERRES
    55   29   30 1    
    56   29   85 1    
    57   30   31 1    
    58   30   32 1    
    59   30   86 1    
    60   31   87 1    
    61   31   88 1    
    62   31   89 1    
    63   32   33 2    
    64   32   34 am   BACKBONE|DICT|INTERRES
    65   34   35 1    
    66   34   90 1    
    67   35   36 1    
    68   35   37 1    
    69   35   91 1    
    70   36   92 1    
    71   36   93 1    
    72   36   94 1    
    73   37   38 2    
    74   37   39 am   BACKBONE|DICT|INTERRES
    75   39   40 1    
    76   39   95 1    
    77   40   41 1    
    78   40   42 1    
    79   40   96 1    
    80   41   97 1    
    81   41   98 1    
    82   41   99 1    
    83   42   43 2    
    84   42   44 am   BACKBONE|DICT|INTERRES
    85   44   45 1    
    86   44  100 1    
    87   45   46 1    
    88   45   47 1    
    89   45  101 1    
    90   46  102 1    
    91   46  103 1    
    92   46  104 1    
    93   47   48 2    
    94   47   49 am   BACKBONE|DICT|INTERRES
    95   49   50 1    
    96   49  105 1    
    97   50   51 1    
    98   50   52 1    
    99   50  106 1    
   100   51  107 1    
   101   51  108 1    
   102   51  109 1    
   103   52   53 2    
   104   52   54 am   BACKBONE|DICT|INTERRES
   105   54   55 1    
   106   54  110 1    
   107   55   56 1    
   108   55   59 1    
   109   55  111 1    
   110   56   57 am   BACKBONE|DICT|INTERRES
   111   56   58 2    
   112   57  112 1    
   113   57  113 1    
   114   59   60 1    
   115   59  114 1    
   116   59  115 1    
   117   60   61 1    
   118   61  116 1    
   119   61  117 1    
@<TRIPOS>SUBSTRUCTURE
     1 UNK         1 GROUP             0       ****    0 ROOT    
