@<TRIPOS>MOLECULE
3R8
117   119    1
SMALL
USER_CHARGES


@<TRIPOS>ATOM
      1 CA         17.1923  -23.3509  -40.5676 C.3       0 UNK        -0.2013 
      2 C          17.0969  -23.5864  -42.0676 C.2       0 UNK         0.4866 
      3 O          16.9094  -22.6347  -42.8268 O.2       0 UNK        -0.5176 
      4 N          17.2132  -24.8486  -42.4980 N.am      1 UNK        -0.4884 
      5 CA         17.1955  -25.2659  -43.9053 C.3       1 UNK         0.0853 
      6 C6         17.0572  -26.8028  -44.0542 C.3       10 UNK        -0.0849 
      7 S7         15.6868  -27.5241  -43.0829 S.3       10 UNK        -0.2776 
      8 C8         15.5689  -29.2112  -43.7728 C.3       10 UNK         0.0316 
      9 C9         16.9340  -29.8671  -43.9323 C.ar      10 UNK        -0.0863 
     10 C10        17.6643  -30.2713  -42.8115 C.ar      10 UNK        -0.1009 
     11 C11        18.9463  -30.8094  -42.9577 C.ar      10 UNK        -0.0712 
     12 C12        19.4952  -30.9450  -44.2378 C.ar      10 UNK        -0.0894 
     13 C13        18.7717  -30.5499  -45.3678 C.ar      10 UNK        -0.0745 
     14 C14        17.4851  -30.0275  -45.2062 C.ar      10 UNK        -0.0972 
     15 C15        19.3669  -30.6985  -46.7638 C.3       10 UNK         0.0209 
     16 S16        19.3295  -29.1343  -47.7068 S.3       10 UNK        -0.2568 
     17 C17        21.0702  -28.5714  -47.6725 C.3       10 UNK        -0.0983 
     18 CA         21.3958  -27.4851  -46.6086 C.3       3 UNK         0.0876 
     19 N          20.4169  -26.3959  -46.6284 N.am      3 UNK        -0.4424 
     20 C          20.6768  -25.1061  -46.8680 C.2       2 UNK         0.4918 
     21 O          21.7997  -24.6618  -47.1073 O.2       2 UNK        -0.4875 
     22 CA         19.4772  -24.1372  -46.8192 C.3       2 UNK         0.0481 
     23 CB         18.9439  -23.8821  -48.2379 C.3       2 UNK        -0.1831 
     24 N          18.3693  -24.5755  -45.9569 N.am      2 UNK        -0.4498 
     25 C          18.4694  -24.7905  -44.6370 C.2       1 UNK         0.5027 
     26 O          19.5313  -24.6925  -44.0161 O.2       1 UNK        -0.4969 
     27 C          21.5879  -28.0677  -45.1909 C.2       3 UNK         0.5005 
     28 O          22.1245  -29.1709  -45.0752 O.2       3 UNK        -0.5279 
     29 N          21.1653  -27.3404  -44.1389 N.am      4 UNK        -0.4463 
     30 CA         21.2236  -27.7930  -42.7423 C.3       4 UNK         0.0283 
     31 CB         20.5539  -26.7738  -41.8071 C.3       4 UNK        -0.1875 
     32 C          22.6396  -28.1243  -42.2495 C.2       4 UNK         0.4949 
     33 O          22.8295  -29.1819  -41.6494 O.2       4 UNK        -0.5039 
     34 N          23.5904  -27.2140  -42.5154 N.am      5 UNK        -0.4663 
     35 CA         25.0343  -27.3306  -42.2561 C.3       5 UNK         0.0242 
     36 CB         25.6789  -28.2307  -43.3302 C.3       5 UNK        -0.1982 
     37 C          25.3824  -27.7638  -40.8148 C.2       5 UNK         0.5017 
     38 O          26.1992  -28.6651  -40.6209 O.2       5 UNK        -0.5012 
     39 N          24.7279  -27.1174  -39.8371 N.am      6 UNK        -0.4439 
     40 CA         24.7938  -27.3926  -38.3944 C.3       6 UNK         0.0297 
     41 CB         26.2041  -27.1068  -37.8332 C.3       6 UNK        -0.2006 
     42 C          24.2659  -28.7968  -38.0297 C.2       6 UNK         0.4892 
     43 O          24.8908  -29.5070  -37.2400 O.2       6 UNK        -0.5089 
     44 N          23.1097  -29.1491  -38.6126 N.am      7 UNK        -0.4243 
     45 CA         22.3744  -30.4116  -38.4662 C.3       7 UNK         0.0196 
     46 CB         21.8699  -30.6017  -37.0196 C.3       7 UNK        -0.2007 
     47 C          23.1602  -31.6235  -39.0002 C.2       7 UNK         0.5020 
     48 O          23.2118  -32.6698  -38.3507 O.2       7 UNK        -0.5147 
     49 N          23.7319  -31.4745  -40.2034 N.am      8 UNK        -0.4734 
     50 CA         24.4940  -32.5136  -40.9096 C.3       8 UNK         0.0238 
     51 CB         25.1716  -31.8924  -42.1397 C.3       8 UNK        -0.1912 
     52 C          23.6500  -33.7331  -41.3243 C.2       8 UNK         0.5038 
     53 O          24.2074  -34.8090  -41.5442 O.2       8 UNK        -0.5046 
     54 N          22.3288  -33.5423  -41.4087 N.am      9 UNK        -0.4200 
     55 CA         21.3189  -34.5868  -41.6133 C.3       9 UNK         0.0839 
     56 C          21.1034  -35.5336  -40.3937 C.2       9 UNK         0.5513 
     57 N          21.6396  -35.2433  -39.2125 N.am      9 UNK        -0.7519 
     58 O          20.4445  -36.5614  -40.5291 O.2       9 UNK        -0.4960 
     59 C59        19.9875  -33.9797  -42.1327 C.3       10 UNK        -0.0876 
     60 S60        19.2399  -32.7590  -40.9930 S.3       10 UNK        -0.2414 
     61 C61        19.7602  -31.1769  -41.7254 C.3       10 UNK         0.0169 
     62 H62        16.2751  -22.8909  -40.2005 H         1 UNK         0.0903 
     63 H63        17.3498  -24.2788  -40.0180 H         1 UNK         0.0903 
     64 H64        18.0226  -22.6809  -40.3459 H         1 UNK         0.0903 
     65 H65        17.3478  -25.5931  -41.8296 H         1 UNK         0.3096 
     66 H66        16.3321  -24.7916  -44.3774 H         1 UNK         0.1121 
     67 H67        17.9786  -27.3023  -43.7479 H         1 UNK         0.0849 
     68 H68        16.9049  -27.0646  -45.1032 H         1 UNK         0.0849 
     69 H69        14.9449  -29.8221  -43.1189 H         1 UNK         0.0865 
     70 H70        15.0497  -29.1645  -44.7314 H         1 UNK         0.0865 
     71 H71        17.2459  -30.1400  -41.8227 H         1 UNK         0.1346 
     72 H72        20.4965  -31.3372  -44.3533 H         1 UNK         0.1412 
     73 H73        16.9241  -29.7174  -46.0775 H         1 UNK         0.1426 
     74 H74        18.7851  -31.4437  -47.3077 H         1 UNK         0.0716 
     75 H75        20.3860  -31.0845  -46.7155 H         1 UNK         0.0716 
     76 H76        21.2715  -28.1501  -48.6585 H         1 UNK         0.0695 
     77 H77        21.7431  -29.4273  -47.5983 H         1 UNK         0.0695 
     78 H78        22.3795  -27.0861  -46.8651 H         1 UNK         0.0983 
     79 H79        19.4594  -26.6731  -46.4697 H         1 UNK         0.3095 
     80 H80        19.8444  -23.1894  -46.4201 H         1 UNK         0.0454 
     81 H81        19.7384  -23.5264  -48.8957 H         1 UNK         0.0851 
     82 H82        18.1628  -23.1218  -48.2396 H         1 UNK         0.0851 
     83 H83        18.5338  -24.7886  -48.6851 H         1 UNK         0.0851 
     84 H84        17.4707  -24.6891  -46.4049 H         1 UNK         0.2976 
     85 H85        20.7554  -26.4279  -44.3039 H         1 UNK         0.3116 
     86 H86        20.6461  -28.7132  -42.6880 H         1 UNK         0.0646 
     87 H87        21.0135  -25.7877  -41.8816 H         1 UNK         0.0847 
     88 H88        19.4947  -26.6665  -42.0327 H         1 UNK         0.0847 
     89 H89        20.6243  -27.0905  -40.7656 H         1 UNK         0.0847 
     90 H90        23.3015  -26.3749  -42.9992 H         1 UNK         0.3040 
     91 H91        25.4569  -26.3313  -42.3735 H         1 UNK         0.1015 
     92 H92        26.7571  -28.3132  -43.1874 H         1 UNK         0.0786 
     93 H93        25.5163  -27.8282  -44.3300 H         1 UNK         0.0786 
     94 H94        25.2645  -29.2376  -43.3103 H         1 UNK         0.0786 
     95 H95        24.0780  -26.3951  -40.1162 H         1 UNK         0.3172 
     96 H96        24.1109  -26.6853  -37.9212 H         1 UNK         0.0595 
     97 H97        26.9441  -27.8134  -38.2101 H         1 UNK         0.0839 
     98 H98        26.2124  -27.1819  -36.7452 H         1 UNK         0.0839 
     99 H99        26.5383  -26.1016  -38.0897 H         1 UNK         0.0839 
    100 H100       22.7288  -28.5121  -39.2978 H         1 UNK         0.2998 
    101 H101       21.4948  -30.3231  -39.1054 H         1 UNK         0.0822 
    102 H102       21.2170  -31.4726  -36.9469 H         1 UNK         0.0787 
    103 H103       21.2960  -29.7386  -36.6825 H         1 UNK         0.0787 
    104 H104       22.6912  -30.7543  -36.3189 H         1 UNK         0.0787 
    105 H105       23.5995  -30.5903  -40.6928 H         1 UNK         0.3055 
    106 H106       25.2707  -32.8761  -40.2326 H         1 UNK         0.1106 
    107 H107       25.8600  -31.0987  -41.8502 H         1 UNK         0.0828 
    108 H108       25.7511  -32.6364  -42.6880 H         1 UNK         0.0828 
    109 H109       24.4397  -31.4720  -42.8309 H         1 UNK         0.0828 
    110 H110       21.9731  -32.6263  -41.1848 H         1 UNK         0.2931 
    111 H111       21.6973  -35.2300  -42.4102 H         1 UNK         0.0412 
    112 H112       22.1807  -34.3984  -39.0751 H         1 UNK         0.3472 
    113 H113       21.4917  -35.8723  -38.4393 H         1 UNK         0.3472 
    114 H114       20.1514  -33.5163  -43.1057 H         1 UNK         0.0970 
    115 H115       19.2560  -34.7692  -42.3145 H         1 UNK         0.0970 
    116 H116       20.8243  -31.2067  -41.9621 H         1 UNK         0.0612 
    117 H117       19.6423  -30.3937  -40.9751 H         1 UNK         0.0612 
@<TRIPOS>BOND
     1    1    2 1    
     2    1   62 1    
     3    1   63 1    
     4    1   64 1    
     5    2    3 2    
     6    2    4 am   BACKBONE|DICT|INTERRES
     7    4    5 1    
     8    4   65 1    
     9    5    6 1    
    10    5   25 1    
    11    5   66 1    
    12    6    7 1    
    13    6   67 1    
    14    6   68 1    
    15    7    8 1    
    16    8    9 1    
    17    8   69 1    
    18    8   70 1    
    19    9   10 ar   
    20    9   14 ar   
    21   10   11 ar   
    22   10   71 1    
    23   11   12 ar   
    24   11   61 1    
    25   12   13 ar   
    26   12   72 1    
    27   13   14 ar   
    28   13   15 1    
    29   14   73 1    
    30   15   16 1    
    31   15   74 1    
    32   15   75 1    
    33   16   17 1    
    34   17   18 1    
    35   17   76 1    
    36   17   77 1    
    37   18   19 1    
    38   18   27 1    
    39   18   78 1    
    40   19   20 am   BACKBONE|DICT|INTERRES
    41   19   79 1    
    42   20   21 2    
    43   20   22 1    
    44   22   23 1    
    45   22   24 1    
    46   22   80 1    
    47   23   81 1    
    48   23   82 1    
    49   23   83 1    
    50   24   25 am   BACKBONE|DICT|INTERRES
    51   24   84 1    
    52   25   26 2    
    53   27   28 2    
    54   27   29 am   BACKBONE|DICT|INTERRES
    55   29   30 1    
    56   29   85 1    
    57   30   31 1    
    58   30   32 1    
    59   30   86 1    
    60   31   87 1    
    61   31   88 1    
    62   31   89 1    
    63   32   33 2    
    64   32   34 am   BACKBONE|DICT|INTERRES
    65   34   35 1    
    66   34   90 1    
    67   35   36 1    
    68   35   37 1    
    69   35   91 1    
    70   36   92 1    
    71   36   93 1    
    72   36   94 1    
    73   37   38 2    
    74   37   39 am   BACKBONE|DICT|INTERRES
    75   39   40 1    
    76   39   95 1    
    77   40   41 1    
    78   40   42 1    
    79   40   96 1    
    80   41   97 1    
    81   41   98 1    
    82   41   99 1    
    83   42   43 2    
    84   42   44 am   BACKBONE|DICT|INTERRES
    85   44   45 1    
    86   44  100 1    
    87   45   46 1    
    88   45   47 1    
    89   45  101 1    
    90   46  102 1    
    91   46  103 1    
    92   46  104 1    
    93   47   48 2    
    94   47   49 am   BACKBONE|DICT|INTERRES
    95   49   50 1    
    96   49  105 1    
    97   50   51 1    
    98   50   52 1    
    99   50  106 1    
   100   51  107 1    
   101   51  108 1    
   102   51  109 1    
   103   52   53 2    
   104   52   54 am   BACKBONE|DICT|INTERRES
   105   54   55 1    
   106   54  110 1    
   107   55   56 1    
   108   55   59 1    
   109   55  111 1    
   110   56   57 am   BACKBONE|DICT|INTERRES
   111   56   58 2    
   112   57  112 1    
   113   57  113 1    
   114   59   60 1    
   115   59  114 1    
   116   59  115 1    
   117   60   61 1    
   118   61  116 1    
   119   61  117 1    
@<TRIPOS>SUBSTRUCTURE
     1 UNK         1 GROUP             0       ****    0 ROOT    
