@<TRIPOS>MOLECULE
3R8
117   119    1
SMALL
USER_CHARGES


@<TRIPOS>ATOM
      1 CA         13.4549  -24.1512  -47.4726 C.3       0 UNK        -0.2013 
      2 C          14.9284  -24.3950  -47.7625 C.2       0 UNK         0.4866 
      3 O          15.3637  -24.2357  -48.9035 O.2       0 UNK        -0.5176 
      4 N          15.6994  -24.7745  -46.7401 N.am      1 UNK        -0.4884 
      5 CA         17.1347  -25.0455  -46.8092 C.3       1 UNK         0.0853 
      6 C6         17.4620  -26.4191  -47.4617 C.3       10 UNK        -0.0849 
      7 S7         16.7024  -27.8569  -46.6259 S.3       10 UNK        -0.2776 
      8 C8         18.1408  -28.5055  -45.7212 C.3       10 UNK         0.0316 
      9 C9         17.7321  -29.4649  -44.6163 C.ar      10 UNK        -0.0863 
     10 C10        18.1301  -30.8032  -44.6618 C.ar      10 UNK        -0.1009 
     11 C11        17.8226  -31.6694  -43.6092 C.ar      10 UNK        -0.0712 
     12 C12        17.0933  -31.1940  -42.5154 C.ar      10 UNK        -0.0894 
     13 C13        16.6772  -29.8608  -42.4656 C.ar      10 UNK        -0.0745 
     14 C14        16.9963  -29.0017  -43.5213 C.ar      10 UNK        -0.0972 
     15 C15        15.8869  -29.3547  -41.2682 C.3       10 UNK         0.0209 
     16 S16        16.9837  -28.7226  -39.9584 S.3       10 UNK        -0.2568 
     17 C17        17.4286  -27.0773  -40.6086 C.3       10 UNK        -0.0983 
     18 CA         18.8185  -27.0643  -41.2909 C.3       3 UNK         0.0876 
     19 N          18.9253  -25.9642  -42.2471 N.am      3 UNK        -0.4424 
     20 C          19.8304  -25.8944  -43.2281 C.2       2 UNK         0.4918 
     21 O          20.6272  -26.7979  -43.4930 O.2       2 UNK        -0.4875 
     22 CA         19.8150  -24.6052  -44.0702 C.3       2 UNK         0.0481 
     23 CB         21.2367  -24.1242  -44.4050 C.3       2 UNK        -0.1831 
     24 N          19.0635  -24.7828  -45.3142 N.am      2 UNK        -0.4498 
     25 C          17.7292  -24.8786  -45.3971 C.2       1 UNK         0.5027 
     26 O          16.9775  -24.8280  -44.4177 O.2       1 UNK        -0.4969 
     27 C          19.9653  -26.9858  -40.2653 C.2       3 UNK         0.5005 
     28 O          20.2249  -25.9038  -39.7316 O.2       3 UNK        -0.5279 
     29 N          20.6147  -28.1319  -40.0121 N.am      4 UNK        -0.4463 
     30 CA         21.7507  -28.3246  -39.0996 C.3       4 UNK         0.0283 
     31 CB         21.3039  -28.1573  -37.6319 C.3       4 UNK        -0.1875 
     32 C          22.9765  -27.4575  -39.4569 C.2       4 UNK         0.4949 
     33 O          23.6669  -26.9628  -38.5644 O.2       4 UNK        -0.5039 
     34 N          23.2273  -27.2924  -40.7626 N.am      5 UNK        -0.4663 
     35 CA         24.3853  -26.5807  -41.3082 C.3       5 UNK         0.0242 
     36 CB         24.1228  -26.2658  -42.7883 C.3       5 UNK        -0.1982 
     37 C          25.6915  -27.3778  -41.1578 C.2       5 UNK         0.5017 
     38 O          26.7616  -26.7757  -41.0612 O.2       5 UNK        -0.5012 
     39 N          25.5769  -28.7088  -41.1389 N.am      6 UNK        -0.4439 
     40 CA         26.6568  -29.6671  -40.9418 C.3       6 UNK         0.0297 
     41 CB         27.2412  -30.0512  -42.3161 C.3       6 UNK        -0.2006 
     42 C          26.0974  -30.8856  -40.1937 C.2       6 UNK         0.4892 
     43 O          24.9180  -30.9005  -39.8296 O.2       6 UNK        -0.5089 
     44 N          26.9448  -31.9076  -40.0040 N.am      7 UNK        -0.4243 
     45 CA         26.5444  -33.2265  -39.4979 C.3       7 UNK         0.0196 
     46 CB         27.7936  -34.0894  -39.2592 C.3       7 UNK        -0.2007 
     47 C          25.5609  -33.9425  -40.4427 C.2       7 UNK         0.5020 
     48 O          24.6568  -34.6339  -39.9745 O.2       7 UNK        -0.5147 
     49 N          25.7098  -33.7065  -41.7535 N.am      8 UNK        -0.4734 
     50 CA         24.7797  -34.1187  -42.8067 C.3       8 UNK         0.0238 
     51 CB         25.5701  -34.3196  -44.1141 C.3       8 UNK        -0.1912 
     52 C          23.6215  -33.1085  -42.9577 C.2       8 UNK         0.5038 
     53 O          23.3760  -32.6248  -44.0640 O.2       8 UNK        -0.5046 
     54 N          22.9507  -32.8187  -41.8338 N.am      9 UNK        -0.4200 
     55 CA         21.7952  -31.9239  -41.6575 C.3       9 UNK         0.0839 
     56 C          21.9335  -30.5085  -42.3008 C.2       9 UNK         0.5513 
     57 N          20.8641  -29.9157  -42.8182 N.am      9 UNK        -0.7519 
     58 O          22.9936  -29.8909  -42.2360 O.2       9 UNK        -0.4960 
     59 C59        20.4335  -32.6566  -41.8515 C.3       10 UNK        -0.0876 
     60 S60        20.1007  -33.2537  -43.5463 S.3       10 UNK        -0.2414 
     61 C61        18.2886  -33.1166  -43.6520 C.3       10 UNK         0.0169 
     62 H62        12.8387  -24.8103  -48.0836 H         1 UNK         0.0903 
     63 H63        13.2102  -24.3328  -46.4262 H         1 UNK         0.0903 
     64 H64        13.1909  -23.1208  -47.7091 H         1 UNK         0.0903 
     65 H65        15.3231  -24.8556  -45.8025 H         1 UNK         0.3096 
     66 H66        17.5862  -24.2616  -47.4222 H         1 UNK         0.1121 
     67 H67        18.5412  -26.5627  -47.5374 H         1 UNK         0.0849 
     68 H68        17.1069  -26.4190  -48.4933 H         1 UNK         0.0849 
     69 H69        18.8184  -28.9870  -46.4281 H         1 UNK         0.0865 
     70 H70        18.7007  -27.6861  -45.2736 H         1 UNK         0.0865 
     71 H71        18.7043  -31.1696  -45.5023 H         1 UNK         0.1346 
     72 H72        16.8538  -31.8595  -41.6970 H         1 UNK         0.1412 
     73 H73        16.6878  -27.9653  -43.4872 H         1 UNK         0.1426 
     74 H74        15.2858  -30.1665  -40.8558 H         1 UNK         0.0716 
     75 H75        15.1780  -28.5832  -41.5728 H         1 UNK         0.0716 
     76 H76        17.3785  -26.3505  -39.7952 H         1 UNK         0.0695 
     77 H77        16.6572  -26.7697  -41.3162 H         1 UNK         0.0695 
     78 H78        18.9320  -27.9886  -41.8600 H         1 UNK         0.0983 
     79 H79        18.2989  -25.1844  -42.1083 H         1 UNK         0.3095 
     80 H80        19.3334  -23.8155  -43.4892 H         1 UNK         0.0454 
     81 H81        21.7997  -24.8697  -44.9682 H         1 UNK         0.0851 
     82 H82        21.7944  -23.9083  -43.4935 H         1 UNK         0.0851 
     83 H83        21.2180  -23.2053  -44.9911 H         1 UNK         0.0851 
     84 H84        19.6133  -24.8546  -46.1583 H         1 UNK         0.2976 
     85 H85        20.3235  -28.9552  -40.5212 H         1 UNK         0.3116 
     86 H86        22.0727  -29.3593  -39.2270 H         1 UNK         0.0646 
     87 H87        21.0211  -27.1278  -37.4100 H         1 UNK         0.0847 
     88 H88        22.1067  -28.4285  -36.9452 H         1 UNK         0.0847 
     89 H89        20.4521  -28.7966  -37.4004 H         1 UNK         0.0847 
     90 H90        22.6391  -27.7748  -41.4303 H         1 UNK         0.3040 
     91 H91        24.5030  -25.6398  -40.7660 H         1 UNK         0.1015 
     92 H92        23.9940  -27.1750  -43.3779 H         1 UNK         0.0786 
     93 H93        24.9508  -25.7050  -43.2239 H         1 UNK         0.0786 
     94 H94        23.2238  -25.6642  -42.9059 H         1 UNK         0.0786 
     95 H95        24.6499  -29.1228  -41.2059 H         1 UNK         0.3172 
     96 H96        27.4362  -29.2231  -40.3192 H         1 UNK         0.0595 
     97 H97        28.0989  -30.7172  -42.2193 H         1 UNK         0.0839 
     98 H98        27.5865  -29.1701  -42.8576 H         1 UNK         0.0839 
     99 H99        26.5001  -30.5530  -42.9402 H         1 UNK         0.0839 
    100 H100       27.9058  -31.8065  -40.2981 H         1 UNK         0.2998 
    101 H101       26.0375  -33.0807  -38.5414 H         1 UNK         0.0822 
    102 H102       27.5201  -35.0683  -38.8626 H         1 UNK         0.0787 
    103 H103       28.3539  -34.2562  -40.1802 H         1 UNK         0.0787 
    104 H104       28.4647  -33.6252  -38.5362 H         1 UNK         0.0787 
    105 H105       26.4646  -33.1000  -42.0382 H         1 UNK         0.3055 
    106 H106       24.3323  -35.0786  -42.5381 H         1 UNK         0.1106 
    107 H107       24.9188  -34.6749  -44.9138 H         1 UNK         0.0828 
    108 H108       26.0299  -33.3914  -44.4558 H         1 UNK         0.0828 
    109 H109       26.3599  -35.0607  -43.9906 H         1 UNK         0.0828 
    110 H110       23.2870  -33.2543  -40.9846 H         1 UNK         0.2931 
    111 H111       21.8346  -31.6933  -40.5922 H         1 UNK         0.0412 
    112 H112       20.0060  -30.4301  -42.9511 H         1 UNK         0.3472 
    113 H113       20.9628  -28.9926  -43.2202 H         1 UNK         0.3472 
    114 H114       19.6187  -32.0175  -41.5111 H         1 UNK         0.0970 
    115 H115       20.3985  -33.5251  -41.1923 H         1 UNK         0.0970 
    116 H116       17.9552  -33.5711  -44.5860 H         1 UNK         0.0612 
    117 H117       17.8379  -33.6997  -42.8473 H         1 UNK         0.0612 
@<TRIPOS>BOND
     1    1    2 1    
     2    1   62 1    
     3    1   63 1    
     4    1   64 1    
     5    2    3 2    
     6    2    4 am   BACKBONE|DICT|INTERRES
     7    4    5 1    
     8    4   65 1    
     9    5    6 1    
    10    5   25 1    
    11    5   66 1    
    12    6    7 1    
    13    6   67 1    
    14    6   68 1    
    15    7    8 1    
    16    8    9 1    
    17    8   69 1    
    18    8   70 1    
    19    9   10 ar   
    20    9   14 ar   
    21   10   11 ar   
    22   10   71 1    
    23   11   12 ar   
    24   11   61 1    
    25   12   13 ar   
    26   12   72 1    
    27   13   14 ar   
    28   13   15 1    
    29   14   73 1    
    30   15   16 1    
    31   15   74 1    
    32   15   75 1    
    33   16   17 1    
    34   17   18 1    
    35   17   76 1    
    36   17   77 1    
    37   18   19 1    
    38   18   27 1    
    39   18   78 1    
    40   19   20 am   BACKBONE|DICT|INTERRES
    41   19   79 1    
    42   20   21 2    
    43   20   22 1    
    44   22   23 1    
    45   22   24 1    
    46   22   80 1    
    47   23   81 1    
    48   23   82 1    
    49   23   83 1    
    50   24   25 am   BACKBONE|DICT|INTERRES
    51   24   84 1    
    52   25   26 2    
    53   27   28 2    
    54   27   29 am   BACKBONE|DICT|INTERRES
    55   29   30 1    
    56   29   85 1    
    57   30   31 1    
    58   30   32 1    
    59   30   86 1    
    60   31   87 1    
    61   31   88 1    
    62   31   89 1    
    63   32   33 2    
    64   32   34 am   BACKBONE|DICT|INTERRES
    65   34   35 1    
    66   34   90 1    
    67   35   36 1    
    68   35   37 1    
    69   35   91 1    
    70   36   92 1    
    71   36   93 1    
    72   36   94 1    
    73   37   38 2    
    74   37   39 am   BACKBONE|DICT|INTERRES
    75   39   40 1    
    76   39   95 1    
    77   40   41 1    
    78   40   42 1    
    79   40   96 1    
    80   41   97 1    
    81   41   98 1    
    82   41   99 1    
    83   42   43 2    
    84   42   44 am   BACKBONE|DICT|INTERRES
    85   44   45 1    
    86   44  100 1    
    87   45   46 1    
    88   45   47 1    
    89   45  101 1    
    90   46  102 1    
    91   46  103 1    
    92   46  104 1    
    93   47   48 2    
    94   47   49 am   BACKBONE|DICT|INTERRES
    95   49   50 1    
    96   49  105 1    
    97   50   51 1    
    98   50   52 1    
    99   50  106 1    
   100   51  107 1    
   101   51  108 1    
   102   51  109 1    
   103   52   53 2    
   104   52   54 am   BACKBONE|DICT|INTERRES
   105   54   55 1    
   106   54  110 1    
   107   55   56 1    
   108   55   59 1    
   109   55  111 1    
   110   56   57 am   BACKBONE|DICT|INTERRES
   111   56   58 2    
   112   57  112 1    
   113   57  113 1    
   114   59   60 1    
   115   59  114 1    
   116   59  115 1    
   117   60   61 1    
   118   61  116 1    
   119   61  117 1    
@<TRIPOS>SUBSTRUCTURE
     1 UNK         1 GROUP             0       ****    0 ROOT    
