@<TRIPOS>MOLECULE
3R8
117   119    1
SMALL
USER_CHARGES


@<TRIPOS>ATOM
      1 CA         12.7831  -24.3133  -41.9007 C.3       0 UNK        -0.2013 
      2 C          14.0521  -24.2876  -42.7398 C.2       0 UNK         0.4866 
      3 O          14.8936  -23.4081  -42.5515 O.2       0 UNK        -0.5176 
      4 N          14.1913  -25.2381  -43.6712 N.am      1 UNK        -0.4884 
      5 CA         15.3783  -25.4206  -44.5121 C.3       1 UNK         0.0853 
      6 C6         15.0538  -26.2332  -45.7945 C.3       10 UNK        -0.0849 
      7 S7         14.2654  -27.8563  -45.4900 S.3       10 UNK        -0.2776 
      8 C8         15.3281  -28.9989  -46.4452 C.3       10 UNK         0.0316 
      9 C9         16.5694  -29.5336  -45.7239 C.ar      10 UNK        -0.0863 
     10 C10        16.6628  -29.5988  -44.3257 C.ar      10 UNK        -0.1009 
     11 C11        17.7769  -30.1777  -43.7085 C.ar      10 UNK        -0.0712 
     12 C12        18.7917  -30.7198  -44.5005 C.ar      10 UNK        -0.0894 
     13 C13        18.7238  -30.6546  -45.8925 C.ar      10 UNK        -0.0745 
     14 C14        17.6147  -30.0546  -46.4966 C.ar      10 UNK        -0.0972 
     15 C15        19.8260  -31.2847  -46.7328 C.3       10 UNK         0.0209 
     16 S16        21.4469  -30.5004  -46.4568 S.3       10 UNK        -0.2568 
     17 C17        21.2825  -28.9457  -47.4021 C.3       10 UNK        -0.0983 
     18 CA         21.4117  -27.6573  -46.5520 C.3       3 UNK         0.0876 
     19 N          20.3792  -27.5696  -45.5111 N.am      3 UNK        -0.4424 
     20 C          20.0012  -26.4221  -44.9350 C.2       2 UNK         0.4918 
     21 O          20.4103  -25.3119  -45.2798 O.2       2 UNK        -0.4875 
     22 CA         18.9825  -26.5158  -43.7997 C.3       2 UNK         0.0481 
     23 CB         19.5145  -25.8738  -42.5042 C.3       2 UNK        -0.1831 
     24 N          17.7617  -25.8624  -44.2503 N.am      2 UNK        -0.4498 
     25 C          16.5467  -26.0474  -43.7240 C.2       1 UNK         0.5027 
     26 O          16.3287  -26.7039  -42.7015 O.2       1 UNK        -0.4969 
     27 C          22.8370  -27.4664  -45.9822 C.2       3 UNK         0.5005 
     28 O          23.7283  -27.0172  -46.7051 O.2       3 UNK        -0.5279 
     29 N          23.0125  -27.7825  -44.6950 N.am      4 UNK        -0.4463 
     30 CA         24.2050  -27.5847  -43.8818 C.3       4 UNK         0.0283 
     31 CB         25.2549  -28.6706  -44.1897 C.3       4 UNK        -0.1875 
     32 C          23.7608  -27.6298  -42.4138 C.2       4 UNK         0.4949 
     33 O          22.6238  -28.0167  -42.1352 O.2       4 UNK        -0.5039 
     34 N          24.6623  -27.2499  -41.5057 N.am      5 UNK        -0.4663 
     35 CA         24.4896  -27.3769  -40.0592 C.3       5 UNK         0.0242 
     36 CB         24.5747  -25.9847  -39.4129 C.3       5 UNK        -0.1982 
     37 C          25.6004  -28.2880  -39.5281 C.2       5 UNK         0.5017 
     38 O          26.7087  -28.2649  -40.0711 O.2       5 UNK        -0.5012 
     39 N          25.2845  -29.0849  -38.4977 N.am      6 UNK        -0.4439 
     40 CA         26.1167  -30.1036  -37.8334 C.3       6 UNK         0.0297 
     41 CB         27.3976  -29.4981  -37.2262 C.3       6 UNK        -0.2006 
     42 C          26.4359  -31.3238  -38.7186 C.2       6 UNK         0.4892 
     43 O          26.2690  -32.4570  -38.2674 O.2       6 UNK        -0.5089 
     44 N          26.8463  -31.0756  -39.9683 N.am      7 UNK        -0.4243 
     45 CA         27.0048  -32.0720  -41.0301 C.3       7 UNK         0.0196 
     46 CB         27.8525  -31.4633  -42.1590 C.3       7 UNK        -0.2007 
     47 C          25.6578  -32.5777  -41.5823 C.2       7 UNK         0.5020 
     48 O          25.6258  -33.6344  -42.2133 O.2       7 UNK        -0.5147 
     49 N          24.5771  -31.8287  -41.3368 N.am      8 UNK        -0.4734 
     50 CA         23.1989  -32.1774  -41.6606 C.3       8 UNK         0.0238 
     51 CB         22.8437  -31.6607  -43.0678 C.3       8 UNK        -0.1912 
     52 C          22.2764  -31.5732  -40.5929 C.2       8 UNK         0.5038 
     53 O          22.7170  -30.7294  -39.8044 O.2       8 UNK        -0.5046 
     54 N          21.0133  -32.0149  -40.6128 N.am      9 UNK        -0.4200 
     55 CA         19.9201  -31.5917  -39.7214 C.3       9 UNK         0.0839 
     56 C          20.1280  -32.0366  -38.2409 C.2       9 UNK         0.5513 
     57 N          19.3841  -31.4789  -37.2940 N.am      9 UNK        -0.7519 
     58 O          20.9224  -32.9260  -37.9405 O.2       9 UNK        -0.4960 
     59 C59        19.5326  -30.0864  -39.8749 C.3       10 UNK        -0.0876 
     60 S60        19.4372  -29.5008  -41.6005 S.3       10 UNK        -0.2414 
     61 C61        17.8830  -30.2460  -42.1896 C.3       10 UNK         0.0169 
     62 H62        13.0335  -24.4299  -40.8466 H         1 UNK         0.0903 
     63 H63        12.2348  -23.3792  -42.0199 H         1 UNK         0.0903 
     64 H64        12.1229  -25.1327  -42.1848 H         1 UNK         0.0903 
     65 H65        13.4916  -25.9618  -43.7617 H         1 UNK         0.3096 
     66 H66        15.7077  -24.4279  -44.8287 H         1 UNK         0.1121 
     67 H67        14.3715  -25.6542  -46.4189 H         1 UNK         0.0849 
     68 H68        15.9515  -26.3654  -46.4014 H         1 UNK         0.0849 
     69 H69        14.7184  -29.8588  -46.7254 H         1 UNK         0.0865 
     70 H70        15.6138  -28.5188  -47.3825 H         1 UNK         0.0865 
     71 H71        15.8644  -29.2119  -43.7083 H         1 UNK         0.1346 
     72 H72        19.6433  -31.1910  -44.0294 H         1 UNK         0.1412 
     73 H73        17.5474  -30.0262  -47.5760 H         1 UNK         0.1426 
     74 H74        19.5819  -31.2546  -47.7959 H         1 UNK         0.0716 
     75 H75        19.9034  -32.3405  -46.4696 H         1 UNK         0.0716 
     76 H76        22.0345  -28.9510  -48.1933 H         1 UNK         0.0695 
     77 H77        20.3216  -28.9376  -47.9187 H         1 UNK         0.0695 
     78 H78        21.2535  -26.8198  -47.2357 H         1 UNK         0.0983 
     79 H79        19.9738  -28.4448  -45.2067 H         1 UNK         0.3095 
     80 H80        18.7650  -27.5663  -43.6128 H         1 UNK         0.0454 
     81 H81        20.4547  -26.3357  -42.2006 H         1 UNK         0.0851 
     82 H82        18.8147  -26.0038  -41.6789 H         1 UNK         0.0851 
     83 H83        19.6970  -24.8057  -42.6262 H         1 UNK         0.0851 
     84 H84        17.8659  -25.3026  -45.0867 H         1 UNK         0.2976 
     85 H85        22.2191  -28.1086  -44.1545 H         1 UNK         0.3116 
     86 H86        24.6183  -26.5958  -44.0900 H         1 UNK         0.0646 
     87 H87        26.1600  -28.5219  -43.6002 H         1 UNK         0.0847 
     88 H88        25.5508  -28.6529  -45.2386 H         1 UNK         0.0847 
     89 H89        24.8825  -29.6704  -43.9669 H         1 UNK         0.0847 
     90 H90        25.5978  -27.0098  -41.8065 H         1 UNK         0.3040 
     91 H91        23.5217  -27.8248  -39.8194 H         1 UNK         0.1015 
     92 H92        25.5370  -25.5076  -39.6037 H         1 UNK         0.0786 
     93 H93        24.4489  -26.0470  -38.3312 H         1 UNK         0.0786 
     94 H94        23.7935  -25.3260  -39.7927 H         1 UNK         0.0786 
     95 H95        24.3273  -29.0551  -38.1710 H         1 UNK         0.3172 
     96 H96        25.5112  -30.4730  -37.0040 H         1 UNK         0.0595 
     97 H97        27.9396  -30.2447  -36.6442 H         1 UNK         0.0839 
     98 H98        28.0822  -29.1281  -37.9897 H         1 UNK         0.0839 
     99 H99        27.1656  -28.6711  -36.5552 H         1 UNK         0.0839 
    100 H100       26.9640  -30.0986  -40.2269 H         1 UNK         0.2998 
    101 H101       27.5378  -32.9326  -40.6202 H         1 UNK         0.0822 
    102 H102       28.0137  -32.1859  -42.9603 H         1 UNK         0.0787 
    103 H103       27.3698  -30.5898  -42.5990 H         1 UNK         0.0787 
    104 H104       28.8344  -31.1576  -41.7971 H         1 UNK         0.0787 
    105 H105       24.6662  -31.0127  -40.7449 H         1 UNK         0.3055 
    106 H106       23.0873  -33.2638  -41.6295 H         1 UNK         0.1106 
    107 H107       23.5575  -32.0063  -43.8156 H         1 UNK         0.0828 
    108 H108       21.8602  -32.0125  -43.3790 H         1 UNK         0.0828 
    109 H109       22.8203  -30.5717  -43.1027 H         1 UNK         0.0828 
    110 H110       20.7643  -32.7271  -41.2824 H         1 UNK         0.2931 
    111 H111       19.0630  -32.1764  -40.0554 H         1 UNK         0.0412 
    112 H112       18.7028  -30.7684  -37.5088 H         1 UNK         0.3472 
    113 H113       19.5045  -31.7817  -36.3397 H         1 UNK         0.3472 
    114 H114       20.2661  -29.4603  -39.3636 H         1 UNK         0.0970 
    115 H115       18.5733  -29.8822  -39.3976 H         1 UNK         0.0970 
    116 H116       17.0444  -29.7345  -41.7144 H         1 UNK         0.0612 
    117 H117       17.8336  -31.2914  -41.8847 H         1 UNK         0.0612 
@<TRIPOS>BOND
     1    1    2 1    
     2    1   62 1    
     3    1   63 1    
     4    1   64 1    
     5    2    3 2    
     6    2    4 am   BACKBONE|DICT|INTERRES
     7    4    5 1    
     8    4   65 1    
     9    5    6 1    
    10    5   25 1    
    11    5   66 1    
    12    6    7 1    
    13    6   67 1    
    14    6   68 1    
    15    7    8 1    
    16    8    9 1    
    17    8   69 1    
    18    8   70 1    
    19    9   10 ar   
    20    9   14 ar   
    21   10   11 ar   
    22   10   71 1    
    23   11   12 ar   
    24   11   61 1    
    25   12   13 ar   
    26   12   72 1    
    27   13   14 ar   
    28   13   15 1    
    29   14   73 1    
    30   15   16 1    
    31   15   74 1    
    32   15   75 1    
    33   16   17 1    
    34   17   18 1    
    35   17   76 1    
    36   17   77 1    
    37   18   19 1    
    38   18   27 1    
    39   18   78 1    
    40   19   20 am   BACKBONE|DICT|INTERRES
    41   19   79 1    
    42   20   21 2    
    43   20   22 1    
    44   22   23 1    
    45   22   24 1    
    46   22   80 1    
    47   23   81 1    
    48   23   82 1    
    49   23   83 1    
    50   24   25 am   BACKBONE|DICT|INTERRES
    51   24   84 1    
    52   25   26 2    
    53   27   28 2    
    54   27   29 am   BACKBONE|DICT|INTERRES
    55   29   30 1    
    56   29   85 1    
    57   30   31 1    
    58   30   32 1    
    59   30   86 1    
    60   31   87 1    
    61   31   88 1    
    62   31   89 1    
    63   32   33 2    
    64   32   34 am   BACKBONE|DICT|INTERRES
    65   34   35 1    
    66   34   90 1    
    67   35   36 1    
    68   35   37 1    
    69   35   91 1    
    70   36   92 1    
    71   36   93 1    
    72   36   94 1    
    73   37   38 2    
    74   37   39 am   BACKBONE|DICT|INTERRES
    75   39   40 1    
    76   39   95 1    
    77   40   41 1    
    78   40   42 1    
    79   40   96 1    
    80   41   97 1    
    81   41   98 1    
    82   41   99 1    
    83   42   43 2    
    84   42   44 am   BACKBONE|DICT|INTERRES
    85   44   45 1    
    86   44  100 1    
    87   45   46 1    
    88   45   47 1    
    89   45  101 1    
    90   46  102 1    
    91   46  103 1    
    92   46  104 1    
    93   47   48 2    
    94   47   49 am   BACKBONE|DICT|INTERRES
    95   49   50 1    
    96   49  105 1    
    97   50   51 1    
    98   50   52 1    
    99   50  106 1    
   100   51  107 1    
   101   51  108 1    
   102   51  109 1    
   103   52   53 2    
   104   52   54 am   BACKBONE|DICT|INTERRES
   105   54   55 1    
   106   54  110 1    
   107   55   56 1    
   108   55   59 1    
   109   55  111 1    
   110   56   57 am   BACKBONE|DICT|INTERRES
   111   56   58 2    
   112   57  112 1    
   113   57  113 1    
   114   59   60 1    
   115   59  114 1    
   116   59  115 1    
   117   60   61 1    
   118   61  116 1    
   119   61  117 1    
@<TRIPOS>SUBSTRUCTURE
     1 UNK         1 GROUP             0       ****    0 ROOT    
