@<TRIPOS>MOLECULE
3R8
117   119    1
SMALL
USER_CHARGES


@<TRIPOS>ATOM
      1 CA         14.4481  -26.9668  -39.5093 C.3       0 UNK        -0.2013 
      2 C          15.0038  -26.3545  -40.7863 C.2       0 UNK         0.4866 
      3 O          15.4039  -25.1905  -40.7816 O.2       0 UNK        -0.5176 
      4 N          15.0202  -27.1284  -41.8788 N.am      1 UNK        -0.4884 
      5 CA         15.5753  -26.7561  -43.1848 C.3       1 UNK         0.0853 
      6 C6         15.0947  -27.7044  -44.3154 C.3       10 UNK        -0.0849 
      7 S7         15.1776  -29.4859  -43.8955 S.3       10 UNK        -0.2776 
      8 C8         15.4899  -30.2417  -45.5194 C.3       10 UNK         0.0316 
      9 C9         16.9595  -30.1656  -45.9018 C.ar      10 UNK        -0.0863 
     10 C10        17.8537  -31.1361  -45.4403 C.ar      10 UNK        -0.1009 
     11 C11        19.1993  -31.0953  -45.8154 C.ar      10 UNK        -0.0712 
     12 C12        19.6540  -30.0618  -46.6417 C.ar      10 UNK        -0.0894 
     13 C13        18.7664  -29.0912  -47.1161 C.ar      10 UNK        -0.0745 
     14 C14        17.4204  -29.1505  -46.7446 C.ar      10 UNK        -0.0972 
     15 C15        19.2379  -28.0085  -48.0757 C.3       10 UNK         0.0209 
     16 S16        19.3149  -26.3728  -47.2842 S.3       10 UNK        -0.2568 
     17 C17        20.9613  -26.4164  -46.5015 C.3       10 UNK        -0.0983 
     18 CA         20.9679  -25.6788  -45.1352 C.3       3 UNK         0.0876 
     19 N          20.0826  -26.3164  -44.1472 N.am      3 UNK        -0.4424 
     20 C          20.2589  -27.4894  -43.5268 C.2       2 UNK         0.4918 
     21 O          21.2536  -28.1971  -43.6811 O.2       2 UNK        -0.4875 
     22 CA         19.2118  -27.9006  -42.4749 C.3       2 UNK         0.0481 
     23 CB         19.5194  -27.2002  -41.1382 C.3       2 UNK        -0.1831 
     24 N          17.7932  -27.7304  -42.8252 N.am      2 UNK        -0.4498 
     25 C          17.1095  -26.6138  -43.1169 C.2       1 UNK         0.5027 
     26 O          17.6229  -25.5042  -43.2713 O.2       1 UNK        -0.4969 
     27 C          22.4033  -25.4182  -44.6076 C.2       3 UNK         0.5005 
     28 O          23.3291  -25.2643  -45.4065 O.2       3 UNK        -0.5279 
     29 N          22.5658  -25.3810  -43.2729 N.am      4 UNK        -0.4463 
     30 CA         23.8257  -25.2922  -42.5198 C.3       4 UNK         0.0283 
     31 CB         24.4732  -23.9032  -42.7015 C.3       4 UNK        -0.1875 
     32 C          24.8099  -26.4464  -42.8157 C.2       4 UNK         0.4949 
     33 O          26.0221  -26.2679  -42.6784 O.2       4 UNK        -0.5039 
     34 N          24.2858  -27.6112  -43.2236 N.am      5 UNK        -0.4663 
     35 CA         25.0609  -28.7727  -43.6581 C.3       5 UNK         0.0242 
     36 CB         24.1708  -29.6472  -44.5583 C.3       5 UNK        -0.1982 
     37 C          25.6466  -29.5583  -42.4715 C.2       5 UNK         0.5017 
     38 O          25.1549  -30.6430  -42.1557 O.2       5 UNK        -0.5012 
     39 N          26.6821  -28.9884  -41.8376 N.am      6 UNK        -0.4439 
     40 CA         27.5225  -29.5516  -40.7707 C.3       6 UNK         0.0297 
     41 CB         28.4273  -30.6713  -41.3307 C.3       6 UNK        -0.2006 
     42 C          26.7203  -29.9934  -39.5323 C.2       6 UNK         0.4892 
     43 O          26.5278  -29.1908  -38.6189 O.2       6 UNK        -0.5089 
     44 N          26.2499  -31.2488  -39.5392 N.am      7 UNK        -0.4243 
     45 CA         25.3554  -31.8397  -38.5391 C.3       7 UNK         0.0196 
     46 CB         25.3331  -33.3647  -38.7376 C.3       7 UNK        -0.2007 
     47 C          23.9222  -31.2696  -38.5695 C.2       7 UNK         0.5020 
     48 O          23.1476  -31.5640  -37.6592 O.2       7 UNK        -0.5147 
     49 N          23.5932  -30.4814  -39.6050 N.am      8 UNK        -0.4734 
     50 CA         22.3323  -29.7578  -39.8176 C.3       8 UNK         0.0238 
     51 CB         22.0394  -28.7875  -38.6501 C.3       8 UNK        -0.1912 
     52 C          21.1437  -30.6763  -40.1554 C.2       8 UNK         0.5038 
     53 O          19.9948  -30.2886  -39.9411 O.2       8 UNK        -0.5046 
     54 N          21.4441  -31.8590  -40.7090 N.am      9 UNK        -0.4200 
     55 CA         20.4864  -32.8266  -41.2738 C.3       9 UNK         0.0839 
     56 C          19.5005  -33.4599  -40.2452 C.2       9 UNK         0.5513 
     57 N          19.7826  -33.4127  -38.9485 N.am      9 UNK        -0.7519 
     58 O          18.4843  -34.0358  -40.6256 O.2       9 UNK        -0.4960 
     59 C59        19.7771  -32.2782  -42.5477 C.3       10 UNK        -0.0876 
     60 S60        20.9896  -31.7639  -43.8143 S.3       10 UNK        -0.2414 
     61 C61        20.1546  -32.1909  -45.3682 C.3       10 UNK         0.0169 
     62 H62        13.5941  -26.3892  -39.1566 H         1 UNK         0.0903 
     63 H63        14.1228  -27.9965  -39.6579 H         1 UNK         0.0903 
     64 H64        15.2092  -26.9613  -38.7294 H         1 UNK         0.0903 
     65 H65        14.6778  -28.0781  -41.8218 H         1 UNK         0.3096 
     66 H66        15.1930  -25.7605  -43.4233 H         1 UNK         0.1121 
     67 H67        14.0522  -27.4801  -44.5464 H         1 UNK         0.0849 
     68 H68        15.6418  -27.5041  -45.2372 H         1 UNK         0.0849 
     69 H69        15.1773  -31.2865  -45.4851 H         1 UNK         0.0865 
     70 H70        14.8643  -29.7666  -46.2769 H         1 UNK         0.0865 
     71 H71        17.4982  -31.9328  -44.8010 H         1 UNK         0.1346 
     72 H72        20.6950  -30.0286  -46.9326 H         1 UNK         0.1412 
     73 H73        16.7322  -28.4082  -47.1249 H         1 UNK         0.1426 
     74 H74        18.5441  -27.9546  -48.9158 H         1 UNK         0.0716 
     75 H75        20.2102  -28.2573  -48.5040 H         1 UNK         0.0716 
     76 H76        21.6544  -25.9540  -47.2063 H         1 UNK         0.0695 
     77 H77        21.2923  -27.4490  -46.3782 H         1 UNK         0.0695 
     78 H78        20.5541  -24.6827  -45.3003 H         1 UNK         0.0983 
     79 H79        19.2260  -25.8107  -43.9244 H         1 UNK         0.3095 
     80 H80        19.3448  -28.9723  -42.3233 H         1 UNK         0.0454 
     81 H81        20.5749  -27.2936  -40.8849 H         1 UNK         0.0851 
     82 H82        18.9483  -27.6428  -40.3220 H         1 UNK         0.0851 
     83 H83        19.2898  -26.1348  -41.1678 H         1 UNK         0.0851 
     84 H84        17.2474  -28.5818  -42.7908 H         1 UNK         0.2976 
     85 H85        21.7339  -25.5040  -42.7134 H         1 UNK         0.3116 
     86 H86        23.5569  -25.3940  -41.4674 H         1 UNK         0.0646 
     87 H87        25.3284  -23.7786  -42.0361 H         1 UNK         0.0847 
     88 H88        23.7694  -23.1031  -42.4730 H         1 UNK         0.0847 
     89 H89        24.8318  -23.7543  -43.7204 H         1 UNK         0.0847 
     90 H90        23.2780  -27.6910  -43.3115 H         1 UNK         0.3040 
     91 H91        25.8994  -28.4274  -44.2673 H         1 UNK         0.1015 
     92 H92        23.8173  -29.0932  -45.4283 H         1 UNK         0.0786 
     93 H93        23.2964  -30.0109  -44.0196 H         1 UNK         0.0786 
     94 H94        24.7153  -30.5186  -44.9241 H         1 UNK         0.0786 
     95 H95        26.9052  -28.0370  -42.1157 H         1 UNK         0.3172 
     96 H96        28.1764  -28.7432  -40.4395 H         1 UNK         0.0595 
     97 H97        27.8584  -31.4756  -41.7979 H         1 UNK         0.0839 
     98 H98        29.0380  -31.1141  -40.5425 H         1 UNK         0.0839 
     99 H99        29.1125  -30.2784  -42.0820 H         1 UNK         0.0839 
    100 H100       26.4182  -31.8002  -40.3692 H         1 UNK         0.2998 
    101 H101       25.7655  -31.6255  -37.5499 H         1 UNK         0.0822 
    102 H102       24.9372  -33.6384  -39.7165 H         1 UNK         0.0787 
    103 H103       26.3322  -33.7916  -38.6470 H         1 UNK         0.0787 
    104 H104       24.7077  -33.8489  -37.9860 H         1 UNK         0.0787 
    105 H105       24.2809  -30.3866  -40.3467 H         1 UNK         0.3055 
    106 H106       22.4852  -29.1522  -40.7127 H         1 UNK         0.1106 
    107 H107       21.8305  -29.3180  -37.7213 H         1 UNK         0.0828 
    108 H108       22.8807  -28.1178  -38.4721 H         1 UNK         0.0828 
    109 H109       21.1693  -28.1649  -38.8534 H         1 UNK         0.0828 
    110 H110       22.4196  -32.0856  -40.8325 H         1 UNK         0.2931 
    111 H111       21.1010  -33.6678  -41.5963 H         1 UNK         0.0412 
    112 H112       20.6120  -32.9386  -38.6251 H         1 UNK         0.3472 
    113 H113       19.1487  -33.8333  -38.2875 H         1 UNK         0.3472 
    114 H114       19.1248  -33.0412  -42.9748 H         1 UNK         0.0970 
    115 H115       19.1348  -31.4308  -42.3043 H         1 UNK         0.0970 
    116 H116       19.6326  -33.1435  -45.2685 H         1 UNK         0.0612 
    117 H117       20.9154  -32.3456  -46.1347 H         1 UNK         0.0612 
@<TRIPOS>BOND
     1    1    2 1    
     2    1   62 1    
     3    1   63 1    
     4    1   64 1    
     5    2    3 2    
     6    2    4 am   BACKBONE|DICT|INTERRES
     7    4    5 1    
     8    4   65 1    
     9    5    6 1    
    10    5   25 1    
    11    5   66 1    
    12    6    7 1    
    13    6   67 1    
    14    6   68 1    
    15    7    8 1    
    16    8    9 1    
    17    8   69 1    
    18    8   70 1    
    19    9   10 ar   
    20    9   14 ar   
    21   10   11 ar   
    22   10   71 1    
    23   11   12 ar   
    24   11   61 1    
    25   12   13 ar   
    26   12   72 1    
    27   13   14 ar   
    28   13   15 1    
    29   14   73 1    
    30   15   16 1    
    31   15   74 1    
    32   15   75 1    
    33   16   17 1    
    34   17   18 1    
    35   17   76 1    
    36   17   77 1    
    37   18   19 1    
    38   18   27 1    
    39   18   78 1    
    40   19   20 am   BACKBONE|DICT|INTERRES
    41   19   79 1    
    42   20   21 2    
    43   20   22 1    
    44   22   23 1    
    45   22   24 1    
    46   22   80 1    
    47   23   81 1    
    48   23   82 1    
    49   23   83 1    
    50   24   25 am   BACKBONE|DICT|INTERRES
    51   24   84 1    
    52   25   26 2    
    53   27   28 2    
    54   27   29 am   BACKBONE|DICT|INTERRES
    55   29   30 1    
    56   29   85 1    
    57   30   31 1    
    58   30   32 1    
    59   30   86 1    
    60   31   87 1    
    61   31   88 1    
    62   31   89 1    
    63   32   33 2    
    64   32   34 am   BACKBONE|DICT|INTERRES
    65   34   35 1    
    66   34   90 1    
    67   35   36 1    
    68   35   37 1    
    69   35   91 1    
    70   36   92 1    
    71   36   93 1    
    72   36   94 1    
    73   37   38 2    
    74   37   39 am   BACKBONE|DICT|INTERRES
    75   39   40 1    
    76   39   95 1    
    77   40   41 1    
    78   40   42 1    
    79   40   96 1    
    80   41   97 1    
    81   41   98 1    
    82   41   99 1    
    83   42   43 2    
    84   42   44 am   BACKBONE|DICT|INTERRES
    85   44   45 1    
    86   44  100 1    
    87   45   46 1    
    88   45   47 1    
    89   45  101 1    
    90   46  102 1    
    91   46  103 1    
    92   46  104 1    
    93   47   48 2    
    94   47   49 am   BACKBONE|DICT|INTERRES
    95   49   50 1    
    96   49  105 1    
    97   50   51 1    
    98   50   52 1    
    99   50  106 1    
   100   51  107 1    
   101   51  108 1    
   102   51  109 1    
   103   52   53 2    
   104   52   54 am   BACKBONE|DICT|INTERRES
   105   54   55 1    
   106   54  110 1    
   107   55   56 1    
   108   55   59 1    
   109   55  111 1    
   110   56   57 am   BACKBONE|DICT|INTERRES
   111   56   58 2    
   112   57  112 1    
   113   57  113 1    
   114   59   60 1    
   115   59  114 1    
   116   59  115 1    
   117   60   61 1    
   118   61  116 1    
   119   61  117 1    
@<TRIPOS>SUBSTRUCTURE
     1 UNK         1 GROUP             0       ****    0 ROOT    
