@<TRIPOS>MOLECULE
3R8
117   119    1
SMALL
USER_CHARGES


@<TRIPOS>ATOM
      1 CA         15.4734  -28.5301  -39.7685 C.3       0 UNK        -0.2013 
      2 C          16.2112  -27.2806  -40.2193 C.2       0 UNK         0.4866 
      3 O          15.9515  -26.1955  -39.6980 O.2       0 UNK        -0.5176 
      4 N          17.1265  -27.4197  -41.1834 N.am      1 UNK        -0.4884 
      5 CA         17.9516  -26.3340  -41.7103 C.3       1 UNK         0.0853 
      6 C6         17.1819  -25.4651  -42.7537 C.3       10 UNK        -0.0849 
      7 S7         17.3538  -25.8815  -44.5287 S.3       10 UNK        -0.2776 
      8 C8         16.0738  -27.1516  -44.7898 C.3       10 UNK         0.0316 
      9 C9         16.6142  -28.5678  -44.6255 C.ar      10 UNK        -0.0863 
     10 C10        16.0683  -29.4250  -43.6655 C.ar      10 UNK        -0.1009 
     11 C11        16.5307  -30.7388  -43.5397 C.ar      10 UNK        -0.0712 
     12 C12        17.5480  -31.1941  -44.3820 C.ar      10 UNK        -0.0894 
     13 C13        18.1014  -30.3508  -45.3489 C.ar      10 UNK        -0.0745 
     14 C14        17.6269  -29.0404  -45.4691 C.ar      10 UNK        -0.0972 
     15 C15        19.1850  -30.8777  -46.2790 C.3       10 UNK         0.0209 
     16 S16        20.8548  -30.4633  -45.6852 S.3       10 UNK        -0.2568 
     17 C17        21.2196  -28.9895  -46.7046 C.3       10 UNK        -0.0983 
     18 CA         22.4374  -28.1378  -46.2403 C.3       3 UNK         0.0876 
     19 N          22.3446  -27.6979  -44.8510 N.am      3 UNK        -0.4424 
     20 C          21.5370  -26.7307  -44.4160 C.2       2 UNK         0.4918 
     21 O          20.8045  -26.0655  -45.1518 O.2       2 UNK        -0.4875 
     22 CA         21.6060  -26.4048  -42.9147 C.3       2 UNK         0.0481 
     23 CB         22.5728  -25.2340  -42.6759 C.3       2 UNK        -0.1831 
     24 N          20.2875  -26.0472  -42.3906 N.am      2 UNK        -0.4498 
     25 C          19.2920  -26.9211  -42.1898 C.2       1 UNK         0.5027 
     26 O          19.3998  -28.1387  -42.3508 O.2       1 UNK        -0.4969 
     27 C          23.8235  -28.7723  -46.4435 C.2       3 UNK         0.5005 
     28 O          24.8275  -28.0675  -46.3199 O.2       3 UNK        -0.5279 
     29 N          23.8697  -30.0810  -46.7296 N.am      4 UNK        -0.4463 
     30 CA         25.0955  -30.8851  -46.7766 C.3       4 UNK         0.0283 
     31 CB         24.7842  -32.2568  -47.3960 C.3       4 UNK        -0.1875 
     32 C          25.7404  -31.0506  -45.3876 C.2       4 UNK         0.4949 
     33 O          26.9646  -31.1442  -45.2947 O.2       4 UNK        -0.5039 
     34 N          24.9055  -31.0539  -44.3415 N.am      5 UNK        -0.4663 
     35 CA         25.3058  -30.9369  -42.9425 C.3       5 UNK         0.0242 
     36 CB         24.4631  -31.9094  -42.1044 C.3       5 UNK        -0.1982 
     37 C          25.0812  -29.4887  -42.4809 C.2       5 UNK         0.5017 
     38 O          24.1975  -28.8056  -43.0072 O.2       5 UNK        -0.5012 
     39 N          25.8861  -29.0457  -41.5091 N.am      6 UNK        -0.4439 
     40 CA         25.7975  -27.7130  -40.9137 C.3       6 UNK         0.0297 
     41 CB         27.1535  -27.3513  -40.2857 C.3       6 UNK        -0.2006 
     42 C          24.6867  -27.6514  -39.8546 C.2       6 UNK         0.4892 
     43 O          24.4746  -28.6309  -39.1359 O.2       6 UNK        -0.5089 
     44 N          24.0428  -26.4800  -39.7563 N.am      7 UNK        -0.4243 
     45 CA         23.0007  -26.0610  -38.8041 C.3       7 UNK         0.0196 
     46 CB         23.5355  -26.0698  -37.3586 C.3       7 UNK        -0.2007 
     47 C          21.6595  -26.8156  -38.8912 C.2       7 UNK         0.5020 
     48 O          20.6105  -26.1737  -38.8282 O.2       7 UNK        -0.5147 
     49 N          21.7044  -28.1429  -39.0132 N.am      8 UNK        -0.4734 
     50 CA         20.5541  -29.0416  -39.0524 C.3       8 UNK         0.0238 
     51 CB         20.3797  -29.6807  -37.6610 C.3       8 UNK        -0.1912 
     52 C          20.7439  -30.0980  -40.1505 C.2       8 UNK         0.5038 
     53 O          21.7656  -30.0973  -40.8388 O.2       8 UNK        -0.5046 
     54 N          19.7376  -30.9702  -40.2857 N.am      9 UNK        -0.4200 
     55 CA         19.5785  -31.9751  -41.3499 C.3       9 UNK         0.0839 
     56 C          20.7243  -33.0194  -41.4911 C.2       9 UNK         0.5513 
     57 N          21.5445  -33.2469  -40.4723 N.am      9 UNK        -0.7519 
     58 O          20.8545  -33.6474  -42.5382 O.2       9 UNK        -0.4960 
     59 C59        18.2192  -32.7178  -41.2232 C.3       10 UNK        -0.0876 
     60 S60        16.7859  -31.6230  -40.9275 S.3       10 UNK        -0.2414 
     61 C61        15.9069  -31.6756  -42.5174 C.3       10 UNK         0.0169 
     62 H62        14.5784  -28.2664  -39.2052 H         1 UNK         0.0903 
     63 H63        15.1630  -29.1309  -40.6217 H         1 UNK         0.0903 
     64 H64        16.1116  -29.1367  -39.1267 H         1 UNK         0.0903 
     65 H65        17.3577  -28.3275  -41.5728 H         1 UNK         0.3096 
     66 H66        18.2064  -25.6923  -40.8624 H         1 UNK         0.1121 
     67 H67        17.5386  -24.4382  -42.6611 H         1 UNK         0.0849 
     68 H68        16.1218  -25.4048  -42.5028 H         1 UNK         0.0849 
     69 H69        15.6856  -27.0474  -45.8038 H         1 UNK         0.0865 
     70 H70        15.2294  -26.9691  -44.1236 H         1 UNK         0.0865 
     71 H71        15.2708  -29.0748  -43.0254 H         1 UNK         0.1346 
     72 H72        17.9051  -32.2104  -44.2913 H         1 UNK         0.1412 
     73 H73        18.0432  -28.3837  -46.2201 H         1 UNK         0.1426 
     74 H74        19.0346  -30.4928  -47.2888 H         1 UNK         0.0716 
     75 H75        19.1092  -31.9631  -46.3603 H         1 UNK         0.0716 
     76 H76        20.3332  -28.3548  -46.7026 H         1 UNK         0.0695 
     77 H77        21.3460  -29.3011  -47.7431 H         1 UNK         0.0695 
     78 H78        22.4526  -27.2419  -46.8654 H         1 UNK         0.0983 
     79 H79        22.9807  -28.1524  -44.1948 H         1 UNK         0.3095 
     80 H80        21.9680  -27.2784  -42.3670 H         1 UNK         0.0454 
     81 H81        22.3056  -24.3623  -43.2751 H         1 UNK         0.0851 
     82 H82        23.5921  -25.5136  -42.9457 H         1 UNK         0.0851 
     83 H83        22.5798  -24.9257  -41.6317 H         1 UNK         0.0851 
     84 H84        20.1013  -25.0615  -42.2805 H         1 UNK         0.2976 
     85 H85        22.9892  -30.5769  -46.7904 H         1 UNK         0.3116 
     86 H86        25.8146  -30.3728  -47.4194 H         1 UNK         0.0646 
     87 H87        24.0575  -32.8139  -46.8032 H         1 UNK         0.0847 
     88 H88        25.6861  -32.8671  -47.4624 H         1 UNK         0.0847 
     89 H89        24.3882  -32.1562  -48.4066 H         1 UNK         0.0847 
     90 H90        23.9221  -30.9108  -44.5225 H         1 UNK         0.3040 
     91 H91        26.3620  -31.1895  -42.8246 H         1 UNK         0.1015 
     92 H92        23.3970  -31.7122  -42.2195 H         1 UNK         0.0786 
     93 H93        24.6962  -31.8217  -41.0423 H         1 UNK         0.0786 
     94 H94        24.6437  -32.9442  -42.3952 H         1 UNK         0.0786 
     95 H95        26.5443  -29.6847  -41.0871 H         1 UNK         0.3172 
     96 H96        25.5802  -26.9889  -41.7024 H         1 UNK         0.0595 
     97 H97        27.1311  -26.3485  -39.8567 H         1 UNK         0.0839 
     98 H98        27.9521  -27.3662  -41.0277 H         1 UNK         0.0839 
     99 H99        27.4254  -28.0404  -39.4847 H         1 UNK         0.0839 
    100 H100       24.3194  -25.7588  -40.4072 H         1 UNK         0.2998 
    101 H101       22.7802  -25.0225  -39.0569 H         1 UNK         0.0822 
    102 H102       22.7930  -25.6700  -36.6666 H         1 UNK         0.0787 
    103 H103       23.7817  -27.0771  -37.0210 H         1 UNK         0.0787 
    104 H104       24.4310  -25.4559  -37.2629 H         1 UNK         0.0787 
    105 H105       22.6169  -28.5817  -39.1275 H         1 UNK         0.3055 
    106 H106       19.6531  -28.4783  -39.3070 H         1 UNK         0.1106 
    107 H107       19.4911  -30.3108  -37.6140 H         1 UNK         0.0828 
    108 H108       21.2371  -30.3001  -37.3942 H         1 UNK         0.0828 
    109 H109       20.2680  -28.9186  -36.8893 H         1 UNK         0.0828 
    110 H110       18.9441  -30.8907  -39.6682 H         1 UNK         0.2931 
    111 H111       19.5644  -31.4120  -42.2850 H         1 UNK         0.0412 
    112 H112       21.4523  -32.7223  -39.6178 H         1 UNK         0.3472 
    113 H113       22.2788  -33.9293  -40.5717 H         1 UNK         0.3472 
    114 H114       18.0359  -33.3274  -42.1095 H         1 UNK         0.0970 
    115 H115       18.2560  -33.4207  -40.3884 H         1 UNK         0.0970 
    116 H116       15.8787  -32.6979  -42.8975 H         1 UNK         0.0612 
    117 H117       14.8676  -31.3913  -42.3459 H         1 UNK         0.0612 
@<TRIPOS>BOND
     1    1    2 1    
     2    1   62 1    
     3    1   63 1    
     4    1   64 1    
     5    2    3 2    
     6    2    4 am   BACKBONE|DICT|INTERRES
     7    4    5 1    
     8    4   65 1    
     9    5    6 1    
    10    5   25 1    
    11    5   66 1    
    12    6    7 1    
    13    6   67 1    
    14    6   68 1    
    15    7    8 1    
    16    8    9 1    
    17    8   69 1    
    18    8   70 1    
    19    9   10 ar   
    20    9   14 ar   
    21   10   11 ar   
    22   10   71 1    
    23   11   12 ar   
    24   11   61 1    
    25   12   13 ar   
    26   12   72 1    
    27   13   14 ar   
    28   13   15 1    
    29   14   73 1    
    30   15   16 1    
    31   15   74 1    
    32   15   75 1    
    33   16   17 1    
    34   17   18 1    
    35   17   76 1    
    36   17   77 1    
    37   18   19 1    
    38   18   27 1    
    39   18   78 1    
    40   19   20 am   BACKBONE|DICT|INTERRES
    41   19   79 1    
    42   20   21 2    
    43   20   22 1    
    44   22   23 1    
    45   22   24 1    
    46   22   80 1    
    47   23   81 1    
    48   23   82 1    
    49   23   83 1    
    50   24   25 am   BACKBONE|DICT|INTERRES
    51   24   84 1    
    52   25   26 2    
    53   27   28 2    
    54   27   29 am   BACKBONE|DICT|INTERRES
    55   29   30 1    
    56   29   85 1    
    57   30   31 1    
    58   30   32 1    
    59   30   86 1    
    60   31   87 1    
    61   31   88 1    
    62   31   89 1    
    63   32   33 2    
    64   32   34 am   BACKBONE|DICT|INTERRES
    65   34   35 1    
    66   34   90 1    
    67   35   36 1    
    68   35   37 1    
    69   35   91 1    
    70   36   92 1    
    71   36   93 1    
    72   36   94 1    
    73   37   38 2    
    74   37   39 am   BACKBONE|DICT|INTERRES
    75   39   40 1    
    76   39   95 1    
    77   40   41 1    
    78   40   42 1    
    79   40   96 1    
    80   41   97 1    
    81   41   98 1    
    82   41   99 1    
    83   42   43 2    
    84   42   44 am   BACKBONE|DICT|INTERRES
    85   44   45 1    
    86   44  100 1    
    87   45   46 1    
    88   45   47 1    
    89   45  101 1    
    90   46  102 1    
    91   46  103 1    
    92   46  104 1    
    93   47   48 2    
    94   47   49 am   BACKBONE|DICT|INTERRES
    95   49   50 1    
    96   49  105 1    
    97   50   51 1    
    98   50   52 1    
    99   50  106 1    
   100   51  107 1    
   101   51  108 1    
   102   51  109 1    
   103   52   53 2    
   104   52   54 am   BACKBONE|DICT|INTERRES
   105   54   55 1    
   106   54  110 1    
   107   55   56 1    
   108   55   59 1    
   109   55  111 1    
   110   56   57 am   BACKBONE|DICT|INTERRES
   111   56   58 2    
   112   57  112 1    
   113   57  113 1    
   114   59   60 1    
   115   59  114 1    
   116   59  115 1    
   117   60   61 1    
   118   61  116 1    
   119   61  117 1    
@<TRIPOS>SUBSTRUCTURE
     1 UNK         1 GROUP             0       ****    0 ROOT    
