@<TRIPOS>MOLECULE
3R8
117   119    1
SMALL
USER_CHARGES


@<TRIPOS>ATOM
      1 CA         24.7130  -28.6946  -46.3695 C.3       0 UNK        -0.2013 
      2 C          23.2741  -29.0704  -46.0475 C.2       0 UNK         0.4866 
      3 O          22.7684  -30.0601  -46.5766 O.2       0 UNK        -0.5176 
      4 N          22.6219  -28.2941  -45.1764 N.am      1 UNK        -0.4884 
      5 CA         21.2503  -28.5026  -44.7182 C.3       1 UNK         0.0853 
      6 C6         20.2658  -27.4917  -45.3639 C.3       10 UNK        -0.0849 
      7 S7         19.9676  -27.7244  -47.1497 S.3       10 UNK        -0.2776 
      8 C8         19.1586  -29.3607  -47.2656 C.3       10 UNK         0.0316 
      9 C9         18.2260  -29.6779  -46.1016 C.ar      10 UNK        -0.0863 
     10 C10        18.4543  -30.8159  -45.3237 C.ar      10 UNK        -0.1009 
     11 C11        17.6438  -31.1051  -44.2218 C.ar      10 UNK        -0.0712 
     12 C12        16.5775  -30.2521  -43.9186 C.ar      10 UNK        -0.0894 
     13 C13        16.3218  -29.1213  -44.7021 C.ar      10 UNK        -0.0745 
     14 C14        17.1453  -28.8437  -45.7973 C.ar      10 UNK        -0.0972 
     15 C15        15.1303  -28.2252  -44.3905 C.3       10 UNK         0.0209 
     16 S16        15.2600  -27.4156  -42.7638 S.3       10 UNK        -0.2568 
     17 C17        16.4981  -26.1092  -43.0631 C.3       10 UNK        -0.0983 
     18 CA         17.5468  -26.0549  -41.9259 C.3       3 UNK         0.0876 
     19 N          18.3535  -27.2804  -41.8717 N.am      3 UNK        -0.4424 
     20 C          19.1850  -27.6085  -40.8728 C.2       2 UNK         0.4918 
     21 O          19.3278  -26.9347  -39.8544 O.2       2 UNK        -0.4875 
     22 CA         20.0650  -28.8495  -41.0772 C.3       2 UNK         0.0481 
     23 CB         19.3949  -30.0852  -40.4637 C.3       2 UNK        -0.1831 
     24 N          20.3879  -29.0804  -42.4917 N.am      2 UNK        -0.4498 
     25 C          21.2253  -28.3050  -43.1965 C.2       1 UNK         0.5027 
     26 O          21.8912  -27.3895  -42.7015 O.2       1 UNK        -0.4969 
     27 C          18.4084  -24.7731  -42.0187 C.2       3 UNK         0.5005 
     28 O          17.9478  -23.7090  -41.6032 O.2       3 UNK        -0.5279 
     29 N          19.6449  -24.8986  -42.5243 N.am      4 UNK        -0.4463 
     30 CA         20.6626  -23.8437  -42.5422 C.3       4 UNK         0.0283 
     31 CB         21.4224  -23.9179  -43.8785 C.3       4 UNK        -0.1875 
     32 C          21.6521  -23.9610  -41.3653 C.2       4 UNK         0.4949 
     33 O          22.5285  -23.1053  -41.2434 O.2       4 UNK        -0.5039 
     34 N          21.5266  -25.0231  -40.5508 N.am      5 UNK        -0.4663 
     35 CA         22.4287  -25.4453  -39.4693 C.3       5 UNK         0.0242 
     36 CB         22.3697  -24.4488  -38.2922 C.3       5 UNK        -0.1982 
     37 C          23.8695  -25.7241  -39.9495 C.2       5 UNK         0.5017 
     38 O          24.8193  -25.5066  -39.1948 O.2       5 UNK        -0.5012 
     39 N          24.0061  -26.1808  -41.2015 N.am      6 UNK        -0.4439 
     40 CA         25.2841  -26.3543  -41.8927 C.3       6 UNK         0.0297 
     41 CB         25.1524  -25.7835  -43.3146 C.3       6 UNK        -0.2006 
     42 C          25.7504  -27.8173  -41.9445 C.2       6 UNK         0.4892 
     43 O          26.9466  -28.0474  -42.1267 O.2       6 UNK        -0.5089 
     44 N          24.8274  -28.7759  -41.7985 N.am      7 UNK        -0.4243 
     45 CA         25.0890  -30.2146  -41.8489 C.3       7 UNK         0.0196 
     46 CB         25.3509  -30.6642  -43.3041 C.3       7 UNK        -0.2007 
     47 C          23.9046  -30.9688  -41.2282 C.2       7 UNK         0.5020 
     48 O          23.0135  -30.3459  -40.6493 O.2       7 UNK        -0.5147 
     49 N          23.9090  -32.2956  -41.3805 N.am      8 UNK        -0.4734 
     50 CA         22.8071  -33.2042  -41.0705 C.3       8 UNK         0.0238 
     51 CB         23.0370  -33.8092  -39.6745 C.3       8 UNK        -0.1912 
     52 C          22.7807  -34.2731  -42.1836 C.2       8 UNK         0.5038 
     53 O          23.8257  -34.4786  -42.8063 O.2       8 UNK        -0.5046 
     54 N          21.6713  -34.9616  -42.4950 N.am      9 UNK        -0.4200 
     55 CA         20.3490  -35.0826  -41.8438 C.3       9 UNK         0.0839 
     56 C          20.3161  -36.0650  -40.6358 C.2       9 UNK         0.5513 
     57 N          21.3520  -36.8630  -40.4073 N.am      9 UNK        -0.7519 
     58 O          19.3318  -36.1197  -39.9036 O.2       9 UNK        -0.4960 
     59 C59        19.5703  -33.7624  -41.5698 C.3       10 UNK        -0.0876 
     60 S60        19.6532  -32.5405  -42.9265 S.3       10 UNK        -0.2414 
     61 C61        17.8963  -32.3462  -43.3715 C.3       10 UNK         0.0169 
     62 H62        25.1035  -27.9435  -45.6835 H         1 UNK         0.0903 
     63 H63        24.7782  -28.2995  -47.3829 H         1 UNK         0.0903 
     64 H64        25.3547  -29.5730  -46.3056 H         1 UNK         0.0903 
     65 H65        23.0942  -27.5226  -44.7274 H         1 UNK         0.3096 
     66 H66        20.9347  -29.5253  -44.9307 H         1 UNK         0.1121 
     67 H67        20.6409  -26.4749  -45.2390 H         1 UNK         0.0849 
     68 H68        19.3001  -27.4998  -44.8580 H         1 UNK         0.0849 
     69 H69        18.5947  -29.4105  -48.1978 H         1 UNK         0.0865 
     70 H70        19.9412  -30.1171  -47.3465 H         1 UNK         0.0865 
     71 H71        19.2746  -31.4770  -45.5693 H         1 UNK         0.1346 
     72 H72        15.9339  -30.4704  -43.0770 H         1 UNK         0.1412 
     73 H73        16.9575  -27.9714  -46.4090 H         1 UNK         0.1426 
     74 H74        14.9955  -27.4642  -45.1608 H         1 UNK         0.0716 
     75 H75        14.2250  -28.8336  -44.4037 H         1 UNK         0.0716 
     76 H76        15.9581  -25.1631  -43.1382 H         1 UNK         0.0695 
     77 H77        16.9830  -26.2630  -44.0289 H         1 UNK         0.0695 
     78 H78        17.0086  -25.9831  -40.9777 H         1 UNK         0.0983 
     79 H79        18.2473  -27.9174  -42.6470 H         1 UNK         0.3095 
     80 H80        20.9960  -28.6713  -40.5359 H         1 UNK         0.0454 
     81 H81        19.1007  -29.8991  -39.4298 H         1 UNK         0.0851 
     82 H82        20.0847  -30.9272  -40.4477 H         1 UNK         0.0851 
     83 H83        18.4989  -30.3801  -41.0104 H         1 UNK         0.0851 
     84 H84        19.8933  -29.8331  -42.9519 H         1 UNK         0.2976 
     85 H85        19.9490  -25.8122  -42.8261 H         1 UNK         0.3116 
     86 H86        20.1872  -22.8630  -42.4750 H         1 UNK         0.0646 
     87 H87        20.7436  -23.8438  -44.7283 H         1 UNK         0.0847 
     88 H88        22.1373  -23.0987  -43.9666 H         1 UNK         0.0847 
     89 H89        21.9852  -24.8470  -43.9737 H         1 UNK         0.0847 
     90 H90        20.7336  -25.6356  -40.6939 H         1 UNK         0.3040 
     91 H91        22.0461  -26.4019  -39.1093 H         1 UNK         0.1015 
     92 H92        22.7963  -23.4814  -38.5589 H         1 UNK         0.0786 
     93 H93        22.9260  -24.8237  -37.4323 H         1 UNK         0.0786 
     94 H94        21.3431  -24.2846  -37.9645 H         1 UNK         0.0786 
     95 H95        23.1653  -26.3938  -41.7335 H         1 UNK         0.3172 
     96 H96        26.0640  -25.7862  -41.3812 H         1 UNK         0.0595 
     97 H97        26.0831  -25.8978  -43.8723 H         1 UNK         0.0839 
     98 H98        24.9193  -24.7186  -43.2901 H         1 UNK         0.0839 
     99 H99        24.3667  -26.2821  -43.8801 H         1 UNK         0.0839 
    100 H100       23.8689  -28.5289  -41.5824 H         1 UNK         0.2998 
    101 H101       25.9696  -30.4280  -41.2393 H         1 UNK         0.0822 
    102 H102       26.1083  -30.0509  -43.7917 H         1 UNK         0.0787 
    103 H103       25.7111  -31.6926  -43.3449 H         1 UNK         0.0787 
    104 H104       24.4422  -30.6150  -43.9034 H         1 UNK         0.0787 
    105 H105       24.6437  -32.7300  -41.9267 H         1 UNK         0.3055 
    106 H106       21.8893  -32.6241  -41.0882 H         1 UNK         0.1106 
    107 H107       23.2268  -33.0323  -38.9336 H         1 UNK         0.0828 
    108 H108       22.1651  -34.3620  -39.3305 H         1 UNK         0.0828 
    109 H109       23.8872  -34.4924  -39.6650 H         1 UNK         0.0828 
    110 H110       21.7706  -35.6004  -43.2700 H         1 UNK         0.2931 
    111 H111       19.7605  -35.6037  -42.6000 H         1 UNK         0.0412 
    112 H112       22.1583  -36.8484  -41.0117 H         1 UNK         0.3472 
    113 H113       21.3180  -37.5031  -39.6289 H         1 UNK         0.3472 
    114 H114       18.5218  -34.0061  -41.3894 H         1 UNK         0.0970 
    115 H115       19.8979  -33.2974  -40.6408 H         1 UNK         0.0970 
    116 H116       17.5638  -33.2306  -43.9163 H         1 UNK         0.0612 
    117 H117       17.3039  -32.2964  -42.4566 H         1 UNK         0.0612 
@<TRIPOS>BOND
     1    1    2 1    
     2    1   62 1    
     3    1   63 1    
     4    1   64 1    
     5    2    3 2    
     6    2    4 am   BACKBONE|DICT|INTERRES
     7    4    5 1    
     8    4   65 1    
     9    5    6 1    
    10    5   25 1    
    11    5   66 1    
    12    6    7 1    
    13    6   67 1    
    14    6   68 1    
    15    7    8 1    
    16    8    9 1    
    17    8   69 1    
    18    8   70 1    
    19    9   10 ar   
    20    9   14 ar   
    21   10   11 ar   
    22   10   71 1    
    23   11   12 ar   
    24   11   61 1    
    25   12   13 ar   
    26   12   72 1    
    27   13   14 ar   
    28   13   15 1    
    29   14   73 1    
    30   15   16 1    
    31   15   74 1    
    32   15   75 1    
    33   16   17 1    
    34   17   18 1    
    35   17   76 1    
    36   17   77 1    
    37   18   19 1    
    38   18   27 1    
    39   18   78 1    
    40   19   20 am   BACKBONE|DICT|INTERRES
    41   19   79 1    
    42   20   21 2    
    43   20   22 1    
    44   22   23 1    
    45   22   24 1    
    46   22   80 1    
    47   23   81 1    
    48   23   82 1    
    49   23   83 1    
    50   24   25 am   BACKBONE|DICT|INTERRES
    51   24   84 1    
    52   25   26 2    
    53   27   28 2    
    54   27   29 am   BACKBONE|DICT|INTERRES
    55   29   30 1    
    56   29   85 1    
    57   30   31 1    
    58   30   32 1    
    59   30   86 1    
    60   31   87 1    
    61   31   88 1    
    62   31   89 1    
    63   32   33 2    
    64   32   34 am   BACKBONE|DICT|INTERRES
    65   34   35 1    
    66   34   90 1    
    67   35   36 1    
    68   35   37 1    
    69   35   91 1    
    70   36   92 1    
    71   36   93 1    
    72   36   94 1    
    73   37   38 2    
    74   37   39 am   BACKBONE|DICT|INTERRES
    75   39   40 1    
    76   39   95 1    
    77   40   41 1    
    78   40   42 1    
    79   40   96 1    
    80   41   97 1    
    81   41   98 1    
    82   41   99 1    
    83   42   43 2    
    84   42   44 am   BACKBONE|DICT|INTERRES
    85   44   45 1    
    86   44  100 1    
    87   45   46 1    
    88   45   47 1    
    89   45  101 1    
    90   46  102 1    
    91   46  103 1    
    92   46  104 1    
    93   47   48 2    
    94   47   49 am   BACKBONE|DICT|INTERRES
    95   49   50 1    
    96   49  105 1    
    97   50   51 1    
    98   50   52 1    
    99   50  106 1    
   100   51  107 1    
   101   51  108 1    
   102   51  109 1    
   103   52   53 2    
   104   52   54 am   BACKBONE|DICT|INTERRES
   105   54   55 1    
   106   54  110 1    
   107   55   56 1    
   108   55   59 1    
   109   55  111 1    
   110   56   57 am   BACKBONE|DICT|INTERRES
   111   56   58 2    
   112   57  112 1    
   113   57  113 1    
   114   59   60 1    
   115   59  114 1    
   116   59  115 1    
   117   60   61 1    
   118   61  116 1    
   119   61  117 1    
@<TRIPOS>SUBSTRUCTURE
     1 UNK         1 GROUP             0       ****    0 ROOT    
