@<TRIPOS>MOLECULE
3R8
117   119    1
SMALL
USER_CHARGES


@<TRIPOS>ATOM
      1 CA         15.4936  -22.8853  -46.5821 C.3       0 UNK        -0.2013 
      2 C          16.2930  -24.0690  -46.0589 C.2       0 UNK         0.4866 
      3 O          17.3906  -24.3292  -46.5482 O.2       0 UNK        -0.5176 
      4 N          15.7559  -24.7790  -45.0584 N.am      1 UNK        -0.4884 
      5 CA         16.3575  -25.9734  -44.4440 C.3       1 UNK         0.0853 
      6 C6         15.2705  -26.9197  -43.8703 C.3       10 UNK        -0.0849 
      7 S7         14.3943  -27.7754  -45.2276 S.3       10 UNK        -0.2776 
      8 C8         14.9862  -29.5017  -45.0924 C.3       10 UNK         0.0316 
      9 C9         16.4911  -29.6130  -44.8691 C.ar      10 UNK        -0.0863 
     10 C10        16.9792  -30.1426  -43.6706 C.ar      10 UNK        -0.1009 
     11 C11        18.3536  -30.2021  -43.4250 C.ar      10 UNK        -0.0712 
     12 C12        19.2456  -29.7416  -44.3972 C.ar      10 UNK        -0.0894 
     13 C13        18.7717  -29.2066  -45.6001 C.ar      10 UNK        -0.0745 
     14 C14        17.3936  -29.1618  -45.8371 C.ar      10 UNK        -0.0972 
     15 C15        19.7383  -28.6602  -46.6413 C.3       10 UNK         0.0209 
     16 S16        20.0854  -26.8889  -46.3789 S.3       10 UNK        -0.2568 
     17 C17        21.4657  -26.9692  -45.1921 C.3       10 UNK        -0.0983 
     18 CA         21.7079  -25.6488  -44.4153 C.3       3 UNK         0.0876 
     19 N          20.5239  -25.2607  -43.6514 N.am      3 UNK        -0.4424 
     20 C          20.2594  -24.0405  -43.1757 C.2       2 UNK         0.4918 
     21 O          21.0008  -23.0701  -43.3424 O.2       2 UNK        -0.4875 
     22 CA         18.9203  -23.8801  -42.4198 C.3       2 UNK         0.0481 
     23 CB         18.6491  -22.4245  -41.9968 C.3       2 UNK        -0.1831 
     24 N          17.7855  -24.3627  -43.2155 N.am      2 UNK        -0.4498 
     25 C          17.4594  -25.6489  -43.4106 C.2       1 UNK         0.5027 
     26 O          18.0376  -26.5719  -42.8352 O.2       1 UNK        -0.4969 
     27 C          22.9175  -25.8390  -43.4808 C.2       3 UNK         0.5005 
     28 O          22.7439  -26.1764  -42.3070 O.2       3 UNK        -0.5279 
     29 N          24.1311  -25.7617  -44.0486 N.am      4 UNK        -0.4463 
     30 CA         25.3718  -26.2242  -43.4053 C.3       4 UNK         0.0283 
     31 CB         26.5779  -25.8363  -44.2749 C.3       4 UNK        -0.1875 
     32 C          25.3702  -27.7434  -43.1302 C.2       4 UNK         0.4949 
     33 O          26.0349  -28.2011  -42.2010 O.2       4 UNK        -0.5039 
     34 N          24.5676  -28.4848  -43.9086 N.am      5 UNK        -0.4663 
     35 CA         24.2536  -29.9042  -43.7403 C.3       5 UNK         0.0242 
     36 CB         23.5231  -30.4057  -44.9972 C.3       5 UNK        -0.1982 
     37 C          23.4432  -30.2401  -42.4723 C.2       5 UNK         0.5017 
     38 O          23.2452  -31.4241  -42.2060 O.2       5 UNK        -0.5012 
     39 N          23.0198  -29.2396  -41.6814 N.am      6 UNK        -0.4439 
     40 CA         22.3681  -29.4255  -40.3776 C.3       6 UNK         0.0297 
     41 CB         21.9862  -28.0622  -39.7836 C.3       6 UNK        -0.2006 
     42 C          23.1912  -30.2496  -39.3684 C.2       6 UNK         0.4892 
     43 O          22.6033  -30.9347  -38.5312 O.2       6 UNK        -0.5089 
     44 N          24.5252  -30.2215  -39.5044 N.am      7 UNK        -0.4243 
     45 CA         25.4581  -31.0809  -38.7724 C.3       7 UNK         0.0196 
     46 CB         26.8935  -30.5962  -39.0321 C.3       7 UNK        -0.2007 
     47 C          25.3240  -32.5773  -39.1210 C.2       7 UNK         0.5020 
     48 O          25.6351  -33.4149  -38.2742 O.2       7 UNK        -0.5147 
     49 N          24.8674  -32.8924  -40.3422 N.am      8 UNK        -0.4734 
     50 CA         24.5669  -34.2548  -40.7871 C.3       8 UNK         0.0238 
     51 CB         24.8323  -34.3849  -42.2965 C.3       8 UNK        -0.1912 
     52 C          23.1209  -34.6506  -40.4487 C.2       8 UNK         0.5038 
     53 O          22.8893  -35.8161  -40.1237 O.2       8 UNK        -0.5046 
     54 N          22.1838  -33.6906  -40.5124 N.am      9 UNK        -0.4200 
     55 CA         20.7901  -33.8633  -40.0658 C.3       9 UNK         0.0839 
     56 C          20.6751  -34.1822  -38.5487 C.2       9 UNK         0.5513 
     57 N          21.4016  -33.4792  -37.6881 N.am      9 UNK        -0.7519 
     58 O          19.9207  -35.0676  -38.1544 O.2       9 UNK        -0.4960 
     59 C59        19.8861  -32.6509  -40.4079 C.3       10 UNK        -0.0876 
     60 S60        19.7653  -32.2701  -42.1871 S.3       10 UNK        -0.2414 
     61 C61        18.8654  -30.6905  -42.0784 C.3       10 UNK         0.0169 
     62 H62        16.0672  -21.9656  -46.4706 H         1 UNK         0.0903 
     63 H63        15.2721  -23.0221  -47.6403 H         1 UNK         0.0903 
     64 H64        14.5493  -22.7628  -46.0518 H         1 UNK         0.0903 
     65 H65        14.8483  -24.5170  -44.6990 H         1 UNK         0.3096 
     66 H66        16.8894  -26.5154  -45.2288 H         1 UNK         0.1121 
     67 H67        14.5466  -26.3609  -43.2749 H         1 UNK         0.0849 
     68 H68        15.6908  -27.6625  -43.1910 H         1 UNK         0.0849 
     69 H69        14.4412  -29.9904  -44.2832 H         1 UNK         0.0865 
     70 H70        14.7191  -30.0394  -46.0031 H         1 UNK         0.0865 
     71 H71        16.2864  -30.4810  -42.9122 H         1 UNK         0.1346 
     72 H72        20.3068  -29.7870  -44.2005 H         1 UNK         0.1412 
     73 H73        17.0194  -28.7411  -46.7608 H         1 UNK         0.1426 
     74 H74        19.3127  -28.7859  -47.6380 H         1 UNK         0.0716 
     75 H75        20.6689  -29.2293  -46.6386 H         1 UNK         0.0716 
     76 H76        21.2781  -27.7803  -44.4885 H         1 UNK         0.0695 
     77 H77        22.3531  -27.2527  -45.7604 H         1 UNK         0.0695 
     78 H78        21.9378  -24.8517  -45.1259 H         1 UNK         0.0983 
     79 H79        19.8592  -25.9987  -43.4462 H         1 UNK         0.3095 
     80 H80        18.9915  -24.4800  -41.5102 H         1 UNK         0.0454 
     81 H81        19.4512  -22.0462  -41.3616 H         1 UNK         0.0851 
     82 H82        18.5745  -21.7600  -42.8584 H         1 UNK         0.0851 
     83 H83        17.7233  -22.3422  -41.4274 H         1 UNK         0.0851 
     84 H84        17.2898  -23.6726  -43.7610 H         1 UNK         0.2976 
     85 H85        24.2042  -25.4693  -45.0136 H         1 UNK         0.3116 
     86 H86        25.4633  -25.7159  -42.4430 H         1 UNK         0.0646 
     87 H87        27.5121  -26.1467  -43.8046 H         1 UNK         0.0847 
     88 H88        26.6341  -24.7572  -44.4188 H         1 UNK         0.0847 
     89 H89        26.5378  -26.3063  -45.2584 H         1 UNK         0.0847 
     90 H90        24.0906  -28.0127  -44.6607 H         1 UNK         0.3040 
     91 H91        25.1989  -30.4450  -43.6565 H         1 UNK         0.1015 
     92 H92        24.1249  -30.2559  -45.8938 H         1 UNK         0.0786 
     93 H93        22.5706  -29.8972  -45.1419 H         1 UNK         0.0786 
     94 H94        23.3124  -31.4742  -44.9287 H         1 UNK         0.0786 
     95 H95        23.1900  -28.2816  -41.9661 H         1 UNK         0.3172 
     96 H96        21.4509  -29.9808  -40.5585 H         1 UNK         0.0595 
     97 H97        21.2803  -27.5352  -40.4260 H         1 UNK         0.0839 
     98 H98        22.8589  -27.4221  -39.6481 H         1 UNK         0.0839 
     99 H99        21.5093  -28.1779  -38.8093 H         1 UNK         0.0839 
    100 H100       24.9205  -29.6231  -40.2174 H         1 UNK         0.2998 
    101 H101       25.2457  -30.9737  -37.7064 H         1 UNK         0.0822 
    102 H102       27.0285  -29.5638  -38.7088 H         1 UNK         0.0787 
    103 H103       27.6162  -31.2032  -38.4847 H         1 UNK         0.0787 
    104 H104       27.1533  -30.6532  -40.0901 H         1 UNK         0.0787 
    105 H105       24.5727  -32.1491  -40.9666 H         1 UNK         0.3055 
    106 H106       25.2289  -34.9552  -40.2723 H         1 UNK         0.1106 
    107 H107       24.1654  -33.7571  -42.8876 H         1 UNK         0.0828 
    108 H108       25.8580  -34.1118  -42.5441 H         1 UNK         0.0828 
    109 H109       24.6825  -35.4135  -42.6272 H         1 UNK         0.0828 
    110 H110       22.4428  -32.7763  -40.8629 H         1 UNK         0.2931 
    111 H111       20.3934  -34.7261  -40.6047 H         1 UNK         0.0412 
    112 H112       21.3350  -33.6808  -36.7033 H         1 UNK         0.3472 
    113 H113       21.9642  -32.6957  -38.0071 H         1 UNK         0.3472 
    114 H114       20.2299  -31.7644  -39.8743 H         1 UNK         0.0970 
    115 H115       18.8701  -32.8350  -40.0522 H         1 UNK         0.0970 
    116 H116       19.5143  -29.9244  -41.6561 H         1 UNK         0.0612 
    117 H117       18.0354  -30.8039  -41.3791 H         1 UNK         0.0612 
@<TRIPOS>BOND
     1    1    2 1    
     2    1   62 1    
     3    1   63 1    
     4    1   64 1    
     5    2    3 2    
     6    2    4 am   BACKBONE|DICT|INTERRES
     7    4    5 1    
     8    4   65 1    
     9    5    6 1    
    10    5   25 1    
    11    5   66 1    
    12    6    7 1    
    13    6   67 1    
    14    6   68 1    
    15    7    8 1    
    16    8    9 1    
    17    8   69 1    
    18    8   70 1    
    19    9   10 ar   
    20    9   14 ar   
    21   10   11 ar   
    22   10   71 1    
    23   11   12 ar   
    24   11   61 1    
    25   12   13 ar   
    26   12   72 1    
    27   13   14 ar   
    28   13   15 1    
    29   14   73 1    
    30   15   16 1    
    31   15   74 1    
    32   15   75 1    
    33   16   17 1    
    34   17   18 1    
    35   17   76 1    
    36   17   77 1    
    37   18   19 1    
    38   18   27 1    
    39   18   78 1    
    40   19   20 am   BACKBONE|DICT|INTERRES
    41   19   79 1    
    42   20   21 2    
    43   20   22 1    
    44   22   23 1    
    45   22   24 1    
    46   22   80 1    
    47   23   81 1    
    48   23   82 1    
    49   23   83 1    
    50   24   25 am   BACKBONE|DICT|INTERRES
    51   24   84 1    
    52   25   26 2    
    53   27   28 2    
    54   27   29 am   BACKBONE|DICT|INTERRES
    55   29   30 1    
    56   29   85 1    
    57   30   31 1    
    58   30   32 1    
    59   30   86 1    
    60   31   87 1    
    61   31   88 1    
    62   31   89 1    
    63   32   33 2    
    64   32   34 am   BACKBONE|DICT|INTERRES
    65   34   35 1    
    66   34   90 1    
    67   35   36 1    
    68   35   37 1    
    69   35   91 1    
    70   36   92 1    
    71   36   93 1    
    72   36   94 1    
    73   37   38 2    
    74   37   39 am   BACKBONE|DICT|INTERRES
    75   39   40 1    
    76   39   95 1    
    77   40   41 1    
    78   40   42 1    
    79   40   96 1    
    80   41   97 1    
    81   41   98 1    
    82   41   99 1    
    83   42   43 2    
    84   42   44 am   BACKBONE|DICT|INTERRES
    85   44   45 1    
    86   44  100 1    
    87   45   46 1    
    88   45   47 1    
    89   45  101 1    
    90   46  102 1    
    91   46  103 1    
    92   46  104 1    
    93   47   48 2    
    94   47   49 am   BACKBONE|DICT|INTERRES
    95   49   50 1    
    96   49  105 1    
    97   50   51 1    
    98   50   52 1    
    99   50  106 1    
   100   51  107 1    
   101   51  108 1    
   102   51  109 1    
   103   52   53 2    
   104   52   54 am   BACKBONE|DICT|INTERRES
   105   54   55 1    
   106   54  110 1    
   107   55   56 1    
   108   55   59 1    
   109   55  111 1    
   110   56   57 am   BACKBONE|DICT|INTERRES
   111   56   58 2    
   112   57  112 1    
   113   57  113 1    
   114   59   60 1    
   115   59  114 1    
   116   59  115 1    
   117   60   61 1    
   118   61  116 1    
   119   61  117 1    
@<TRIPOS>SUBSTRUCTURE
     1 UNK         1 GROUP             0       ****    0 ROOT    
