@<TRIPOS>MOLECULE
3R8
117   119    1
SMALL
USER_CHARGES


@<TRIPOS>ATOM
      1 CA         16.7731  -23.1728  -41.8136 C.3       0 UNK        -0.2013 
      2 C          17.3114  -24.3467  -42.6183 C.2       0 UNK         0.4866 
      3 O          17.1920  -25.4924  -42.1816 O.2       0 UNK        -0.5176 
      4 N          17.8979  -24.0644  -43.7914 N.am      1 UNK        -0.4884 
      5 CA         18.4598  -25.0380  -44.7388 C.3       1 UNK         0.0853 
      6 C6         17.3654  -25.9928  -45.2940 C.3       10 UNK        -0.0849 
      7 S7         17.7645  -26.7205  -46.9207 S.3       10 UNK        -0.2776 
      8 C8         16.6160  -28.1323  -46.9670 C.3       10 UNK         0.0316 
      9 C9         17.0565  -29.2787  -46.0645 C.ar      10 UNK        -0.0863 
     10 C10        17.9318  -30.2582  -46.5480 C.ar      10 UNK        -0.1009 
     11 C11        18.2735  -31.3613  -45.7572 C.ar      10 UNK        -0.0712 
     12 C12        17.7345  -31.4690  -44.4731 C.ar      10 UNK        -0.0894 
     13 C13        16.8991  -30.4757  -43.9579 C.ar      10 UNK        -0.0745 
     14 C14        16.5489  -29.3910  -44.7651 C.ar      10 UNK        -0.0972 
     15 C15        16.3362  -30.6116  -42.5497 C.3       10 UNK         0.0209 
     16 S16        17.6409  -30.8601  -41.2991 S.3       10 UNK        -0.2568 
     17 C17        18.1293  -29.1589  -40.8651 C.3       10 UNK        -0.0983 
     18 CA         19.6440  -28.9077  -41.0902 C.3       3 UNK         0.0876 
     19 N          19.9374  -28.5350  -42.4783 N.am      3 UNK        -0.4424 
     20 C          21.1556  -28.2819  -42.9802 C.2       2 UNK         0.4918 
     21 O          22.2041  -28.4006  -42.3463 O.2       2 UNK        -0.4875 
     22 CA         21.2191  -27.7371  -44.4150 C.3       2 UNK         0.0481 
     23 CB         21.3516  -28.8869  -45.4206 C.3       2 UNK        -0.1831 
     24 N          20.0762  -26.8957  -44.7794 N.am      2 UNK        -0.4498 
     25 C          19.6940  -25.7717  -44.1572 C.2       1 UNK         0.5027 
     26 O          20.2805  -25.3160  -43.1713 O.2       1 UNK        -0.4969 
     27 C          20.1788  -27.8808  -40.0676 C.2       3 UNK         0.5005 
     28 O          20.6792  -28.2903  -39.0194 O.2       3 UNK        -0.5279 
     29 N          20.0802  -26.5823  -40.3854 N.am      4 UNK        -0.4463 
     30 CA         20.5989  -25.4993  -39.5493 C.3       4 UNK         0.0283 
     31 CB         19.6882  -24.2696  -39.6812 C.3       4 UNK        -0.1875 
     32 C          22.0430  -25.1319  -39.9182 C.2       4 UNK         0.4949 
     33 O          22.8459  -24.8740  -39.0215 O.2       4 UNK        -0.5039 
     34 N          22.3407  -25.0802  -41.2241 N.am      5 UNK        -0.4663 
     35 CA         23.6079  -24.5791  -41.7609 C.3       5 UNK         0.0242 
     36 CB         23.4426  -24.2828  -43.2599 C.3       5 UNK        -0.1982 
     37 C          24.8136  -25.5034  -41.5281 C.2       5 UNK         0.5017 
     38 O          25.9316  -24.9952  -41.4286 O.2       5 UNK        -0.5012 
     39 N          24.5861  -26.8222  -41.4670 N.am      6 UNK        -0.4439 
     40 CA         25.6487  -27.8236  -41.3287 C.3       6 UNK         0.0297 
     41 CB         26.0919  -28.2999  -42.7242 C.3       6 UNK        -0.2006 
     42 C          25.2525  -29.0204  -40.4545 C.2       6 UNK         0.4892 
     43 O          26.1229  -29.5717  -39.7810 O.2       6 UNK        -0.5089 
     44 N          23.9756  -29.4289  -40.5127 N.am      7 UNK        -0.4243 
     45 CA         23.3936  -30.6372  -39.9097 C.3       7 UNK         0.0196 
     46 CB         23.5227  -30.6314  -38.3721 C.3       7 UNK        -0.2007 
     47 C          23.8985  -31.9489  -40.5472 C.2       7 UNK         0.5020 
     48 O          23.6769  -33.0236  -39.9881 O.2       7 UNK        -0.5147 
     49 N          24.5282  -31.8527  -41.7287 N.am      8 UNK        -0.4734 
     50 CA         25.0885  -32.9708  -42.4980 C.3       8 UNK         0.0238 
     51 CB         25.9098  -32.4093  -43.6702 C.3       8 UNK        -0.1912 
     52 C          24.0325  -33.9676  -43.0075 C.2       8 UNK         0.5038 
     53 O          24.3630  -35.1306  -43.2424 O.2       8 UNK        -0.5046 
     54 N          22.7874  -33.4976  -43.1463 N.am      9 UNK        -0.4200 
     55 CA         21.6004  -34.3085  -43.4459 C.3       9 UNK         0.0839 
     56 C          21.1451  -35.2322  -42.2757 C.2       9 UNK         0.5513 
     57 N          21.6578  -35.0857  -41.0583 N.am      9 UNK        -0.7519 
     58 O          20.3073  -36.1062  -42.4819 O.2       9 UNK        -0.4960 
     59 C59        20.4254  -33.4216  -43.9300 C.3       10 UNK        -0.0876 
     60 S60        20.8096  -32.4948  -45.4573 S.3       10 UNK        -0.2414 
     61 C61        19.1911  -32.4523  -46.2999 C.3       10 UNK         0.0169 
     62 H62        15.6837  -23.1820  -41.8255 H         1 UNK         0.0903 
     63 H63        17.0995  -23.2392  -40.7769 H         1 UNK         0.0903 
     64 H64        17.1106  -22.2164  -42.2125 H         1 UNK         0.0903 
     65 H65        17.9964  -23.0968  -44.0667 H         1 UNK         0.3096 
     66 H66        18.8408  -24.4419  -45.5698 H         1 UNK         0.1121 
     67 H67        17.1503  -26.7733  -44.5661 H         1 UNK         0.0849 
     68 H68        16.4291  -25.4468  -45.4218 H         1 UNK         0.0849 
     69 H69        15.6134  -27.7964  -46.6971 H         1 UNK         0.0865 
     70 H70        16.5430  -28.4879  -47.9960 H         1 UNK         0.0865 
     71 H71        18.3272  -30.1727  -47.5511 H         1 UNK         0.1346 
     72 H72        17.9620  -32.3282  -43.8612 H         1 UNK         0.1412 
     73 H73        15.8618  -28.6459  -44.3882 H         1 UNK         0.1426 
     74 H74        15.7247  -29.7497  -42.2785 H         1 UNK         0.0716 
     75 H75        15.6704  -31.4754  -42.5294 H         1 UNK         0.0716 
     76 H76        17.8568  -29.0345  -39.8146 H         1 UNK         0.0695 
     77 H77        17.5275  -28.4307  -41.4124 H         1 UNK         0.0695 
     78 H78        20.1841  -29.8353  -40.8920 H         1 UNK         0.0983 
     79 H79        19.1398  -28.4229  -43.0863 H         1 UNK         0.3095 
     80 H80        22.1161  -27.1214  -44.4908 H         1 UNK         0.0454 
     81 H81        22.2035  -29.5245  -45.1798 H         1 UNK         0.0851 
     82 H82        20.4633  -29.5171  -45.4216 H         1 UNK         0.0851 
     83 H83        21.5010  -28.5164  -46.4346 H         1 UNK         0.0851 
     84 H84        19.5309  -27.1907  -45.5809 H         1 UNK         0.2976 
     85 H85        19.6844  -26.3205  -41.2810 H         1 UNK         0.3116 
     86 H86        20.5880  -25.8057  -38.5009 H         1 UNK         0.0646 
     87 H87        18.6666  -24.5040  -39.3825 H         1 UNK         0.0847 
     88 H88        20.0349  -23.4569  -39.0416 H         1 UNK         0.0847 
     89 H89        19.6646  -23.8916  -40.7039 H         1 UNK         0.0847 
     90 H90        21.6033  -25.2649  -41.9015 H         1 UNK         0.3040 
     91 H91        23.8291  -23.6352  -41.2570 H         1 UNK         0.1015 
     92 H92        23.2205  -25.1860  -43.8272 H         1 UNK         0.0786 
     93 H93        24.3544  -23.8525  -43.6765 H         1 UNK         0.0786 
     94 H94        22.6375  -23.5694  -43.4375 H         1 UNK         0.0786 
     95 H95        23.6345  -27.1553  -41.5735 H         1 UNK         0.3172 
     96 H96        26.5118  -27.3701  -40.8362 H         1 UNK         0.0595 
     97 H97        25.2601  -28.7206  -43.2907 H         1 UNK         0.0839 
     98 H98        26.8637  -29.0676  -42.6518 H         1 UNK         0.0839 
     99 H99        26.5095  -27.4787  -43.3069 H         1 UNK         0.0839 
    100 H100       23.3441  -28.9435  -41.1480 H         1 UNK         0.2998 
    101 H101       22.3291  -30.5938  -40.1402 H         1 UNK         0.0822 
    102 H102       22.9391  -31.4392  -37.9292 H         1 UNK         0.0787 
    103 H103       24.5546  -30.7643  -38.0469 H         1 UNK         0.0787 
    104 H104       23.1519  -29.6975  -37.9491 H         1 UNK         0.0787 
    105 H105       24.6570  -30.9296  -42.1149 H         1 UNK         0.3055 
    106 H106       25.7598  -33.5249  -41.8381 H         1 UNK         0.1106 
    107 H107       26.7208  -31.7713  -43.3183 H         1 UNK         0.0828 
    108 H108       26.3634  -33.2147  -44.2498 H         1 UNK         0.0828 
    109 H109       25.2927  -31.8246  -44.3537 H         1 UNK         0.0828 
    110 H110       22.6220  -32.5241  -42.9437 H         1 UNK         0.2931 
    111 H111       21.8665  -34.9770  -44.2671 H         1 UNK         0.0412 
    112 H112       21.3477  -35.6988  -40.3211 H         1 UNK         0.3472 
    113 H113       22.3555  -34.3786  -40.8592 H         1 UNK         0.3472 
    114 H114       19.5470  -34.0428  -44.1145 H         1 UNK         0.0970 
    115 H115       20.1440  -32.7101  -43.1513 H         1 UNK         0.0970 
    116 H116       19.3705  -32.2940  -47.3643 H         1 UNK         0.0612 
    117 H117       18.7003  -33.4231  -46.2202 H         1 UNK         0.0612 
@<TRIPOS>BOND
     1    1    2 1    
     2    1   62 1    
     3    1   63 1    
     4    1   64 1    
     5    2    3 2    
     6    2    4 am   BACKBONE|DICT|INTERRES
     7    4    5 1    
     8    4   65 1    
     9    5    6 1    
    10    5   25 1    
    11    5   66 1    
    12    6    7 1    
    13    6   67 1    
    14    6   68 1    
    15    7    8 1    
    16    8    9 1    
    17    8   69 1    
    18    8   70 1    
    19    9   10 ar   
    20    9   14 ar   
    21   10   11 ar   
    22   10   71 1    
    23   11   12 ar   
    24   11   61 1    
    25   12   13 ar   
    26   12   72 1    
    27   13   14 ar   
    28   13   15 1    
    29   14   73 1    
    30   15   16 1    
    31   15   74 1    
    32   15   75 1    
    33   16   17 1    
    34   17   18 1    
    35   17   76 1    
    36   17   77 1    
    37   18   19 1    
    38   18   27 1    
    39   18   78 1    
    40   19   20 am   BACKBONE|DICT|INTERRES
    41   19   79 1    
    42   20   21 2    
    43   20   22 1    
    44   22   23 1    
    45   22   24 1    
    46   22   80 1    
    47   23   81 1    
    48   23   82 1    
    49   23   83 1    
    50   24   25 am   BACKBONE|DICT|INTERRES
    51   24   84 1    
    52   25   26 2    
    53   27   28 2    
    54   27   29 am   BACKBONE|DICT|INTERRES
    55   29   30 1    
    56   29   85 1    
    57   30   31 1    
    58   30   32 1    
    59   30   86 1    
    60   31   87 1    
    61   31   88 1    
    62   31   89 1    
    63   32   33 2    
    64   32   34 am   BACKBONE|DICT|INTERRES
    65   34   35 1    
    66   34   90 1    
    67   35   36 1    
    68   35   37 1    
    69   35   91 1    
    70   36   92 1    
    71   36   93 1    
    72   36   94 1    
    73   37   38 2    
    74   37   39 am   BACKBONE|DICT|INTERRES
    75   39   40 1    
    76   39   95 1    
    77   40   41 1    
    78   40   42 1    
    79   40   96 1    
    80   41   97 1    
    81   41   98 1    
    82   41   99 1    
    83   42   43 2    
    84   42   44 am   BACKBONE|DICT|INTERRES
    85   44   45 1    
    86   44  100 1    
    87   45   46 1    
    88   45   47 1    
    89   45  101 1    
    90   46  102 1    
    91   46  103 1    
    92   46  104 1    
    93   47   48 2    
    94   47   49 am   BACKBONE|DICT|INTERRES
    95   49   50 1    
    96   49  105 1    
    97   50   51 1    
    98   50   52 1    
    99   50  106 1    
   100   51  107 1    
   101   51  108 1    
   102   51  109 1    
   103   52   53 2    
   104   52   54 am   BACKBONE|DICT|INTERRES
   105   54   55 1    
   106   54  110 1    
   107   55   56 1    
   108   55   59 1    
   109   55  111 1    
   110   56   57 am   BACKBONE|DICT|INTERRES
   111   56   58 2    
   112   57  112 1    
   113   57  113 1    
   114   59   60 1    
   115   59  114 1    
   116   59  115 1    
   117   60   61 1    
   118   61  116 1    
   119   61  117 1    
@<TRIPOS>SUBSTRUCTURE
     1 UNK         1 GROUP             0       ****    0 ROOT    
