@<TRIPOS>MOLECULE
3R8
117   119    1
SMALL
USER_CHARGES


@<TRIPOS>ATOM
      1 CA         19.7763  -25.0816  -48.5312 C.3       0 UNK        -0.2013 
      2 C          19.4210  -25.7016  -47.1888 C.2       0 UNK         0.4866 
      3 O          20.3106  -26.1441  -46.4607 O.2       0 UNK        -0.5176 
      4 N          18.1285  -25.7239  -46.8393 N.am      1 UNK        -0.4884 
      5 CA         17.5774  -26.3184  -45.6118 C.3       1 UNK         0.0853 
      6 C6         16.0940  -26.7312  -45.7901 C.3       10 UNK        -0.0849 
      7 S7         15.9184  -28.0448  -47.0436 S.3       10 UNK        -0.2776 
      8 C8         15.4823  -29.4888  -46.0180 C.3       10 UNK         0.0316 
      9 C9         16.5542  -29.8509  -44.9940 C.ar      10 UNK        -0.0863 
     10 C10        17.8259  -30.2575  -45.4125 C.ar      10 UNK        -0.1009 
     11 C11        18.7868  -30.6474  -44.4755 C.ar      10 UNK        -0.0712 
     12 C12        18.4620  -30.6521  -43.1180 C.ar      10 UNK        -0.0894 
     13 C13        17.2081  -30.2178  -42.6774 C.ar      10 UNK        -0.0745 
     14 C14        16.2590  -29.8195  -43.6255 C.ar      10 UNK        -0.0972 
     15 C15        16.8410  -30.2204  -41.1927 C.3       10 UNK         0.0209 
     16 S16        18.2121  -29.7858  -40.0617 S.3       10 UNK        -0.2568 
     17 C17        18.5162  -28.0369  -40.4792 C.3       10 UNK        -0.0983 
     18 CA         19.8357  -27.8418  -41.2740 C.3       3 UNK         0.0876 
     19 N          19.8254  -26.6612  -42.1338 N.am      3 UNK        -0.4424 
     20 C          19.6636  -25.3788  -41.7794 C.2       2 UNK         0.4918 
     21 O          19.5892  -24.9860  -40.6148 O.2       2 UNK        -0.4875 
     22 CA         19.5470  -24.3674  -42.9355 C.3       2 UNK         0.0481 
     23 CB         20.9059  -23.7069  -43.2115 C.3       2 UNK        -0.1831 
     24 N          19.0587  -24.9981  -44.1660 N.am      2 UNK        -0.4498 
     25 C          17.8049  -25.4261  -44.3694 C.2       1 UNK         0.5027 
     26 O          16.8711  -25.1648  -43.6090 O.2       1 UNK        -0.4969 
     27 C          21.1075  -27.9206  -40.4125 C.2       3 UNK         0.5005 
     28 O          21.9785  -28.7375  -40.7125 O.2       3 UNK        -0.5279 
     29 N          21.2260  -27.0556  -39.3962 N.am      4 UNK        -0.4463 
     30 CA         22.3519  -27.0129  -38.4560 C.3       4 UNK         0.0283 
     31 CB         22.0691  -25.9779  -37.3561 C.3       4 UNK        -0.1875 
     32 C          23.7006  -26.7286  -39.1370 C.2       4 UNK         0.4949 
     33 O          24.6927  -27.3846  -38.8211 O.2       4 UNK        -0.5039 
     34 N          23.6975  -25.8030  -40.1068 N.am      5 UNK        -0.4663 
     35 CA         24.8629  -25.4550  -40.9290 C.3       5 UNK         0.0242 
     36 CB         24.5756  -24.1452  -41.6800 C.3       5 UNK        -0.1982 
     37 C          25.2769  -26.5633  -41.9170 C.2       5 UNK         0.5017 
     38 O          26.4161  -26.5558  -42.3834 O.2       5 UNK        -0.5012 
     39 N          24.3570  -27.4929  -42.2068 N.am      6 UNK        -0.4439 
     40 CA         24.5668  -28.6686  -43.0526 C.3       6 UNK         0.0297 
     41 CB         23.3351  -28.8387  -43.9610 C.3       6 UNK        -0.2006 
     42 C          24.8160  -29.9425  -42.2213 C.2       6 UNK         0.4892 
     43 O          24.8440  -31.0302  -42.7987 O.2       6 UNK        -0.5089 
     44 N          24.9463  -29.8058  -40.8896 N.am      7 UNK        -0.4243 
     45 CA         25.0940  -30.8775  -39.8940 C.3       7 UNK         0.0196 
     46 CB         26.4797  -31.5451  -40.0210 C.3       7 UNK        -0.2007 
     47 C          23.9343  -31.8960  -39.9219 C.2       7 UNK         0.5020 
     48 O          24.1529  -33.0847  -39.6861 O.2       7 UNK        -0.5147 
     49 N          22.7278  -31.4069  -40.2449 N.am      8 UNK        -0.4734 
     50 CA         21.4786  -32.1430  -40.4713 C.3       8 UNK         0.0238 
     51 CB         21.0164  -32.8668  -39.1891 C.3       8 UNK        -0.1912 
     52 C          21.4909  -33.0710  -41.7062 C.2       8 UNK         0.5038 
     53 O          20.5674  -33.8749  -41.8402 O.2       8 UNK        -0.5046 
     54 N          22.4984  -32.9239  -42.5842 N.am      9 UNK        -0.4200 
     55 CA         22.7523  -33.6907  -43.8175 C.3       9 UNK         0.0839 
     56 C          22.5757  -35.2350  -43.6864 C.2       9 UNK         0.5513 
     57 N          21.9406  -35.9058  -44.6390 N.am      9 UNK        -0.7519 
     58 O          23.0802  -35.8433  -42.7450 O.2       9 UNK        -0.4960 
     59 C59        22.1539  -33.0284  -45.0965 C.3       10 UNK        -0.0876 
     60 S60        20.3356  -32.8489  -45.1093 S.3       10 UNK        -0.2414 
     61 C61        20.1851  -31.0493  -44.9117 C.3       10 UNK         0.0169 
     62 H62        20.2834  -25.8140  -49.1588 H         1 UNK         0.0903 
     63 H63        18.8933  -24.7308  -49.0652 H         1 UNK         0.0903 
     64 H64        20.4457  -24.2339  -48.3875 H         1 UNK         0.0903 
     65 H65        17.4433  -25.3311  -47.4696 H         1 UNK         0.3096 
     66 H66        18.1358  -27.2353  -45.4073 H         1 UNK         0.1121 
     67 H67        15.4882  -25.8737  -46.0884 H         1 UNK         0.0849 
     68 H68        15.6682  -27.0873  -44.8500 H         1 UNK         0.0849 
     69 H69        14.5252  -29.2981  -45.5296 H         1 UNK         0.0865 
     70 H70        15.3198  -30.3459  -46.6729 H         1 UNK         0.0865 
     71 H71        18.0645  -30.2735  -46.4674 H         1 UNK         0.1346 
     72 H72        19.1967  -30.9909  -42.4034 H         1 UNK         0.1412 
     73 H73        15.2768  -29.5073  -43.2969 H         1 UNK         0.1426 
     74 H74        16.0094  -29.5393  -41.0045 H         1 UNK         0.0716 
     75 H75        16.4851  -31.2179  -40.9322 H         1 UNK         0.0716 
     76 H76        18.5020  -27.4437  -39.5635 H         1 UNK         0.0695 
     77 H77        17.6719  -27.6778  -41.0703 H         1 UNK         0.0695 
     78 H78        19.9150  -28.6672  -41.9804 H         1 UNK         0.0983 
     79 H79        19.9164  -26.8534  -43.1203 H         1 UNK         0.3095 
     80 H80        18.8399  -23.5921  -42.6338 H         1 UNK         0.0454 
     81 H81        20.8196  -22.9284  -43.9697 H         1 UNK         0.0851 
     82 H82        21.6431  -24.4312  -43.5597 H         1 UNK         0.0851 
     83 H83        21.3037  -23.2368  -42.3110 H         1 UNK         0.0851 
     84 H84        19.7482  -25.2485  -44.8711 H         1 UNK         0.2976 
     85 H85        20.5025  -26.3526  -39.2922 H         1 UNK         0.3116 
     86 H86        22.4235  -27.9967  -37.9871 H         1 UNK         0.0646 
     87 H87        21.1660  -26.2280  -36.7991 H         1 UNK         0.0847 
     88 H88        22.8893  -25.9377  -36.6378 H         1 UNK         0.0847 
     89 H89        21.9440  -24.9744  -37.7648 H         1 UNK         0.0847 
     90 H90        22.8353  -25.3135  -40.2993 H         1 UNK         0.3040 
     91 H91        25.7104  -25.2874  -40.2601 H         1 UNK         0.1015 
     92 H92        23.7526  -24.2569  -42.3853 H         1 UNK         0.0786 
     93 H93        25.4487  -23.8238  -42.2498 H         1 UNK         0.0786 
     94 H94        24.3252  -23.3370  -40.9924 H         1 UNK         0.0786 
     95 H95        23.4664  -27.4517  -41.7273 H         1 UNK         0.3172 
     96 H96        25.4413  -28.5228  -43.6897 H         1 UNK         0.0595 
     97 H97        22.4318  -29.0302  -43.3818 H         1 UNK         0.0839 
     98 H98        23.4656  -29.6739  -44.6501 H         1 UNK         0.0839 
     99 H99        23.1620  -27.9486  -44.5662 H         1 UNK         0.0839 
    100 H100       24.8816  -28.8720  -40.5030 H         1 UNK         0.2998 
    101 H101       25.0465  -30.3934  -38.9172 H         1 UNK         0.0822 
    102 H102       26.6515  -32.2501  -39.2068 H         1 UNK         0.0787 
    103 H103       26.5776  -32.0979  -40.9560 H         1 UNK         0.0787 
    104 H104       27.2804  -30.8066  -39.9823 H         1 UNK         0.0787 
    105 H105       22.6555  -30.4037  -40.4169 H         1 UNK         0.3055 
    106 H106       20.7345  -31.3777  -40.6908 H         1 UNK         0.1106 
    107 H107       20.9961  -32.1883  -38.3364 H         1 UNK         0.0828 
    108 H108       20.0073  -33.2637  -39.3067 H         1 UNK         0.0828 
    109 H109       21.6666  -33.7053  -38.9391 H         1 UNK         0.0828 
    110 H110       23.2185  -32.2455  -42.3635 H         1 UNK         0.2931 
    111 H111       23.8316  -33.5929  -43.9414 H         1 UNK         0.0412 
    112 H112       21.8509  -36.9069  -44.5615 H         1 UNK         0.3472 
    113 H113       21.4983  -35.4168  -45.4016 H         1 UNK         0.3472 
    114 H114       22.4518  -33.5828  -45.9878 H         1 UNK         0.0970 
    115 H115       22.6083  -32.0453  -45.2266 H         1 UNK         0.0970 
    116 H116       20.4527  -30.5565  -45.8477 H         1 UNK         0.0612 
    117 H117       20.9031  -30.7090  -44.1646 H         1 UNK         0.0612 
@<TRIPOS>BOND
     1    1    2 1    
     2    1   62 1    
     3    1   63 1    
     4    1   64 1    
     5    2    3 2    
     6    2    4 am   BACKBONE|DICT|INTERRES
     7    4    5 1    
     8    4   65 1    
     9    5    6 1    
    10    5   25 1    
    11    5   66 1    
    12    6    7 1    
    13    6   67 1    
    14    6   68 1    
    15    7    8 1    
    16    8    9 1    
    17    8   69 1    
    18    8   70 1    
    19    9   10 ar   
    20    9   14 ar   
    21   10   11 ar   
    22   10   71 1    
    23   11   12 ar   
    24   11   61 1    
    25   12   13 ar   
    26   12   72 1    
    27   13   14 ar   
    28   13   15 1    
    29   14   73 1    
    30   15   16 1    
    31   15   74 1    
    32   15   75 1    
    33   16   17 1    
    34   17   18 1    
    35   17   76 1    
    36   17   77 1    
    37   18   19 1    
    38   18   27 1    
    39   18   78 1    
    40   19   20 am   BACKBONE|DICT|INTERRES
    41   19   79 1    
    42   20   21 2    
    43   20   22 1    
    44   22   23 1    
    45   22   24 1    
    46   22   80 1    
    47   23   81 1    
    48   23   82 1    
    49   23   83 1    
    50   24   25 am   BACKBONE|DICT|INTERRES
    51   24   84 1    
    52   25   26 2    
    53   27   28 2    
    54   27   29 am   BACKBONE|DICT|INTERRES
    55   29   30 1    
    56   29   85 1    
    57   30   31 1    
    58   30   32 1    
    59   30   86 1    
    60   31   87 1    
    61   31   88 1    
    62   31   89 1    
    63   32   33 2    
    64   32   34 am   BACKBONE|DICT|INTERRES
    65   34   35 1    
    66   34   90 1    
    67   35   36 1    
    68   35   37 1    
    69   35   91 1    
    70   36   92 1    
    71   36   93 1    
    72   36   94 1    
    73   37   38 2    
    74   37   39 am   BACKBONE|DICT|INTERRES
    75   39   40 1    
    76   39   95 1    
    77   40   41 1    
    78   40   42 1    
    79   40   96 1    
    80   41   97 1    
    81   41   98 1    
    82   41   99 1    
    83   42   43 2    
    84   42   44 am   BACKBONE|DICT|INTERRES
    85   44   45 1    
    86   44  100 1    
    87   45   46 1    
    88   45   47 1    
    89   45  101 1    
    90   46  102 1    
    91   46  103 1    
    92   46  104 1    
    93   47   48 2    
    94   47   49 am   BACKBONE|DICT|INTERRES
    95   49   50 1    
    96   49  105 1    
    97   50   51 1    
    98   50   52 1    
    99   50  106 1    
   100   51  107 1    
   101   51  108 1    
   102   51  109 1    
   103   52   53 2    
   104   52   54 am   BACKBONE|DICT|INTERRES
   105   54   55 1    
   106   54  110 1    
   107   55   56 1    
   108   55   59 1    
   109   55  111 1    
   110   56   57 am   BACKBONE|DICT|INTERRES
   111   56   58 2    
   112   57  112 1    
   113   57  113 1    
   114   59   60 1    
   115   59  114 1    
   116   59  115 1    
   117   60   61 1    
   118   61  116 1    
   119   61  117 1    
@<TRIPOS>SUBSTRUCTURE
     1 UNK         1 GROUP             0       ****    0 ROOT    
