@<TRIPOS>MOLECULE
3R8
117   119    1
SMALL
USER_CHARGES


@<TRIPOS>ATOM
      1 CA         17.1904  -22.0281  -42.5564 C.3       0 UNK        -0.2013 
      2 C          17.1225  -23.1573  -43.5740 C.2       0 UNK         0.4866 
      3 O          16.3433  -23.0811  -44.5242 O.2       0 UNK        -0.5176 
      4 N          17.9342  -24.2012  -43.3836 N.am      1 UNK        -0.4884 
      5 CA         18.0636  -25.3602  -44.2644 C.3       1 UNK         0.0853 
      6 C6         16.8627  -26.3405  -44.1543 C.3       10 UNK        -0.0849 
      7 S7         16.5956  -27.2631  -45.7051 S.3       10 UNK        -0.2776 
      8 C8         15.5056  -28.6017  -45.1377 C.3       10 UNK         0.0316 
      9 C9         16.2850  -29.8170  -44.6538 C.ar      10 UNK        -0.0863 
     10 C10        16.7225  -30.7727  -45.5773 C.ar      10 UNK        -0.1009 
     11 C11        17.3396  -31.9511  -45.1464 C.ar      10 UNK        -0.0712 
     12 C12        17.5355  -32.1582  -43.7790 C.ar      10 UNK        -0.0894 
     13 C13        17.1195  -31.2038  -42.8461 C.ar      10 UNK        -0.0745 
     14 C14        16.5007  -30.0297  -43.2877 C.ar      10 UNK        -0.0972 
     15 C15        17.2754  -31.4937  -41.3616 C.3       10 UNK         0.0209 
     16 S16        19.0130  -31.4136  -40.8335 S.3       10 UNK        -0.2568 
     17 C17        19.1586  -29.7024  -40.2286 C.3       10 UNK        -0.0983 
     18 CA         20.4143  -28.9926  -40.7911 C.3       3 UNK         0.0876 
     19 N          20.2686  -28.6957  -42.2217 N.am      3 UNK        -0.4424 
     20 C          21.2676  -28.3399  -43.0415 C.2       2 UNK         0.4918 
     21 O          22.4337  -28.1912  -42.6864 O.2       2 UNK        -0.4875 
     22 CA         20.8825  -27.9905  -44.4899 C.3       2 UNK         0.0481 
     23 CB         20.7419  -29.2615  -45.3378 C.3       2 UNK        -0.1831 
     24 N          19.6608  -27.1891  -44.6053 N.am      2 UNK        -0.4498 
     25 C          19.4164  -26.0346  -43.9715 C.2       1 UNK         0.5027 
     26 O          20.1976  -25.5220  -43.1627 O.2       1 UNK        -0.4969 
     27 C          20.7691  -27.7626  -39.9209 C.2       3 UNK         0.5005 
     28 O          21.1649  -27.9511  -38.7689 O.2       3 UNK        -0.5279 
     29 N          20.6143  -26.5377  -40.4458 N.am      4 UNK        -0.4463 
     30 CA         21.0816  -25.3096  -39.7966 C.3       4 UNK         0.0283 
     31 CB         20.0995  -24.1592  -40.0756 C.3       4 UNK        -0.1875 
     32 C          22.4944  -24.9440  -40.2783 C.2       4 UNK         0.4949 
     33 O          23.2985  -24.4624  -39.4804 O.2       4 UNK        -0.5039 
     34 N          22.7690  -25.1695  -41.5711 N.am      5 UNK        -0.4663 
     35 CA         24.0501  -24.8778  -42.2170 C.3       5 UNK         0.0242 
     36 CB         23.8541  -24.8937  -43.7417 C.3       5 UNK        -0.1982 
     37 C          25.1825  -25.8383  -41.8114 C.2       5 UNK         0.5017 
     38 O          26.3326  -25.4048  -41.7279 O.2       5 UNK        -0.5012 
     39 N          24.8508  -27.1136  -41.5852 N.am      6 UNK        -0.4439 
     40 CA         25.7775  -28.1924  -41.2494 C.3       6 UNK         0.0297 
     41 CB         26.2876  -28.8358  -42.5540 C.3       6 UNK        -0.2006 
     42 C          25.0744  -29.2226  -40.3529 C.2       6 UNK         0.4892 
     43 O          23.8856  -29.0829  -40.0630 O.2       6 UNK        -0.5089 
     44 N          25.8227  -30.2458  -39.9214 N.am      7 UNK        -0.4243 
     45 CA         25.2827  -31.4058  -39.2127 C.3       7 UNK         0.0196 
     46 CB         26.4182  -32.1254  -38.4646 C.3       7 UNK        -0.2007 
     47 C          24.5909  -32.3449  -40.2147 C.2       7 UNK         0.5020 
     48 O          25.2617  -32.8571  -41.1139 O.2       7 UNK        -0.5147 
     49 N          23.2775  -32.5458  -40.0338 N.am      8 UNK        -0.4734 
     50 CA         22.3642  -33.3076  -40.9012 C.3       8 UNK         0.0238 
     51 CB         22.7678  -34.7994  -40.9478 C.3       8 UNK        -0.1912 
     52 C          22.2048  -32.6833  -42.3063 C.2       8 UNK         0.5038 
     53 O          22.6174  -31.5433  -42.5279 O.2       8 UNK        -0.5046 
     54 N          21.5683  -33.4232  -43.2247 N.am      9 UNK        -0.4200 
     55 CA         21.3978  -33.0202  -44.6285 C.3       9 UNK         0.0839 
     56 C          22.7402  -33.0090  -45.4171 C.2       9 UNK         0.5513 
     57 N          22.8342  -32.2143  -46.4741 N.am      9 UNK        -0.7519 
     58 O          23.6763  -33.7444  -45.1092 O.2       9 UNK        -0.4960 
     59 C59        20.3160  -33.8743  -45.3413 C.3       10 UNK        -0.0876 
     60 S60        19.4630  -32.9392  -46.6615 S.3       10 UNK        -0.2414 
     61 C61        17.7181  -33.0301  -46.1527 C.3       10 UNK         0.0169 
     62 H62        17.9099  -22.2344  -41.7642 H         1 UNK         0.0903 
     63 H63        17.4820  -21.0991  -43.0458 H         1 UNK         0.0903 
     64 H64        16.2140  -21.8790  -42.0962 H         1 UNK         0.0903 
     65 H65        18.6142  -24.1952  -42.6339 H         1 UNK         0.3096 
     66 H66        18.1258  -24.9758  -45.2853 H         1 UNK         0.1121 
     67 H67        16.9823  -27.0275  -43.3145 H         1 UNK         0.0849 
     68 H68        15.9401  -25.7929  -43.9564 H         1 UNK         0.0849 
     69 H69        14.8364  -28.2340  -44.3580 H         1 UNK         0.0865 
     70 H70        14.8594  -28.8960  -45.9662 H         1 UNK         0.0865 
     71 H71        16.5465  -30.6155  -46.6330 H         1 UNK         0.1346 
     72 H72        17.9882  -33.0754  -43.4306 H         1 UNK         0.1412 
     73 H73        16.1479  -29.3045  -42.5672 H         1 UNK         0.1426 
     74 H74        16.9019  -32.4987  -41.1599 H         1 UNK         0.0716 
     75 H75        16.6622  -30.8229  -40.7582 H         1 UNK         0.0716 
     76 H76        18.2594  -29.1319  -40.4674 H         1 UNK         0.0695 
     77 H77        19.1953  -29.7664  -39.1391 H         1 UNK         0.0695 
     78 H78        21.2640  -29.6730  -40.6921 H         1 UNK         0.0983 
     79 H79        19.3428  -28.8024  -42.6079 H         1 UNK         0.3095 
     80 H80        21.6948  -27.3946  -44.9103 H         1 UNK         0.0454 
     81 H81        21.6581  -29.8503  -45.2896 H         1 UNK         0.0851 
     82 H82        19.9204  -29.8916  -44.9927 H         1 UNK         0.0851 
     83 H83        20.5651  -29.0251  -46.3871 H         1 UNK         0.0851 
     84 H84        18.9436  -27.5425  -45.2266 H         1 UNK         0.2976 
     85 H85        20.3019  -26.4498  -41.4061 H         1 UNK         0.3116 
     86 H86        21.1209  -25.4507  -38.7144 H         1 UNK         0.0646 
     87 H87        20.3745  -23.2732  -39.5020 H         1 UNK         0.0847 
     88 H88        19.0815  -24.4252  -39.7908 H         1 UNK         0.0847 
     89 H89        20.0945  -23.8691  -41.1257 H         1 UNK         0.0847 
     90 H90        22.0340  -25.5330  -42.1663 H         1 UNK         0.3040 
     91 H91        24.3548  -23.8708  -41.9230 H         1 UNK         0.1015 
     92 H92        23.5456  -25.8776  -44.0971 H         1 UNK         0.0786 
     93 H93        24.7805  -24.6362  -44.2571 H         1 UNK         0.0786 
     94 H94        23.0978  -24.1728  -44.0531 H         1 UNK         0.0786 
     95 H95        23.8789  -27.4055  -41.6807 H         1 UNK         0.3172 
     96 H96        26.6213  -27.7885  -40.6862 H         1 UNK         0.0595 
     97 H97        27.0207  -29.6185  -42.3570 H         1 UNK         0.0839 
     98 H98        26.7710  -28.1007  -43.1975 H         1 UNK         0.0839 
     99 H99        25.4703  -29.2879  -43.1186 H         1 UNK         0.0839 
    100 H100       26.7845  -30.3092  -40.2216 H         1 UNK         0.2998 
    101 H101       24.5558  -31.0635  -38.4722 H         1 UNK         0.0822 
    102 H102       27.1932  -32.4798  -39.1456 H         1 UNK         0.0787 
    103 H103       26.8892  -31.4689  -37.7327 H         1 UNK         0.0787 
    104 H104       26.0377  -32.9933  -37.9245 H         1 UNK         0.0787 
    105 H105       22.8275  -32.0334  -39.2878 H         1 UNK         0.3055 
    106 H106       21.3830  -33.2442  -40.4286 H         1 UNK         0.1106 
    107 H107       23.6624  -34.9592  -41.5510 H         1 UNK         0.0828 
    108 H108       22.9669  -35.1870  -39.9487 H         1 UNK         0.0828 
    109 H109       21.9746  -35.4156  -41.3715 H         1 UNK         0.0828 
    110 H110       21.2790  -34.3591  -42.9855 H         1 UNK         0.2931 
    111 H111       21.0322  -31.9942  -44.5868 H         1 UNK         0.0412 
    112 H112       23.6890  -32.2055  -47.0083 H         1 UNK         0.3472 
    113 H113       22.0466  -31.6617  -46.7743 H         1 UNK         0.3472 
    114 H114       19.5724  -34.2197  -44.6238 H         1 UNK         0.0970 
    115 H115       20.7439  -34.7838  -45.7679 H         1 UNK         0.0970 
    116 H116       17.4969  -34.0196  -45.7500 H         1 UNK         0.0612 
    117 H117       17.0993  -32.9304  -47.0457 H         1 UNK         0.0612 
@<TRIPOS>BOND
     1    1    2 1    
     2    1   62 1    
     3    1   63 1    
     4    1   64 1    
     5    2    3 2    
     6    2    4 am   BACKBONE|DICT|INTERRES
     7    4    5 1    
     8    4   65 1    
     9    5    6 1    
    10    5   25 1    
    11    5   66 1    
    12    6    7 1    
    13    6   67 1    
    14    6   68 1    
    15    7    8 1    
    16    8    9 1    
    17    8   69 1    
    18    8   70 1    
    19    9   10 ar   
    20    9   14 ar   
    21   10   11 ar   
    22   10   71 1    
    23   11   12 ar   
    24   11   61 1    
    25   12   13 ar   
    26   12   72 1    
    27   13   14 ar   
    28   13   15 1    
    29   14   73 1    
    30   15   16 1    
    31   15   74 1    
    32   15   75 1    
    33   16   17 1    
    34   17   18 1    
    35   17   76 1    
    36   17   77 1    
    37   18   19 1    
    38   18   27 1    
    39   18   78 1    
    40   19   20 am   BACKBONE|DICT|INTERRES
    41   19   79 1    
    42   20   21 2    
    43   20   22 1    
    44   22   23 1    
    45   22   24 1    
    46   22   80 1    
    47   23   81 1    
    48   23   82 1    
    49   23   83 1    
    50   24   25 am   BACKBONE|DICT|INTERRES
    51   24   84 1    
    52   25   26 2    
    53   27   28 2    
    54   27   29 am   BACKBONE|DICT|INTERRES
    55   29   30 1    
    56   29   85 1    
    57   30   31 1    
    58   30   32 1    
    59   30   86 1    
    60   31   87 1    
    61   31   88 1    
    62   31   89 1    
    63   32   33 2    
    64   32   34 am   BACKBONE|DICT|INTERRES
    65   34   35 1    
    66   34   90 1    
    67   35   36 1    
    68   35   37 1    
    69   35   91 1    
    70   36   92 1    
    71   36   93 1    
    72   36   94 1    
    73   37   38 2    
    74   37   39 am   BACKBONE|DICT|INTERRES
    75   39   40 1    
    76   39   95 1    
    77   40   41 1    
    78   40   42 1    
    79   40   96 1    
    80   41   97 1    
    81   41   98 1    
    82   41   99 1    
    83   42   43 2    
    84   42   44 am   BACKBONE|DICT|INTERRES
    85   44   45 1    
    86   44  100 1    
    87   45   46 1    
    88   45   47 1    
    89   45  101 1    
    90   46  102 1    
    91   46  103 1    
    92   46  104 1    
    93   47   48 2    
    94   47   49 am   BACKBONE|DICT|INTERRES
    95   49   50 1    
    96   49  105 1    
    97   50   51 1    
    98   50   52 1    
    99   50  106 1    
   100   51  107 1    
   101   51  108 1    
   102   51  109 1    
   103   52   53 2    
   104   52   54 am   BACKBONE|DICT|INTERRES
   105   54   55 1    
   106   54  110 1    
   107   55   56 1    
   108   55   59 1    
   109   55  111 1    
   110   56   57 am   BACKBONE|DICT|INTERRES
   111   56   58 2    
   112   57  112 1    
   113   57  113 1    
   114   59   60 1    
   115   59  114 1    
   116   59  115 1    
   117   60   61 1    
   118   61  116 1    
   119   61  117 1    
@<TRIPOS>SUBSTRUCTURE
     1 UNK         1 GROUP             0       ****    0 ROOT    
