@<TRIPOS>MOLECULE
3R8
117   119    1
SMALL
USER_CHARGES


@<TRIPOS>ATOM
      1 CA         17.4435  -23.1850  -46.2553 C.3       0 UNK        -0.2013 
      2 C          16.0663  -23.7153  -45.8618 C.2       0 UNK         0.4866 
      3 O          15.1668  -22.9180  -45.6025 O.2       0 UNK        -0.5176 
      4 N          15.8389  -25.0356  -45.8175 N.am      1 UNK        -0.4884 
      5 CA         16.8069  -26.1238  -46.0048 C.3       1 UNK         0.0853 
      6 C6         16.1071  -27.4806  -46.2780 C.3       10 UNK        -0.0849 
      7 S7         14.7120  -27.8647  -45.1609 S.3       10 UNK        -0.2776 
      8 C8         14.6579  -29.6805  -45.2688 C.3       10 UNK         0.0316 
      9 C9         15.7310  -30.3106  -44.3972 C.ar      10 UNK        -0.0863 
     10 C10        16.9153  -30.7951  -44.9592 C.ar      10 UNK        -0.1009 
     11 C11        17.9156  -31.3352  -44.1456 C.ar      10 UNK        -0.0712 
     12 C12        17.7055  -31.4248  -42.7666 C.ar      10 UNK        -0.0894 
     13 C13        16.5276  -30.9378  -42.1926 C.ar      10 UNK        -0.0745 
     14 C14        15.5420  -30.3875  -43.0155 C.ar      10 UNK        -0.0972 
     15 C15        16.3153  -30.9787  -40.6839 C.3       10 UNK         0.0209 
     16 S16        17.6480  -30.1665  -39.7365 S.3       10 UNK        -0.2568 
     17 C17        17.8550  -28.5556  -40.5771 C.3       10 UNK        -0.0983 
     18 CA         19.2890  -28.4035  -41.1513 C.3       3 UNK         0.0876 
     19 N          19.3132  -27.5974  -42.3810 N.am      3 UNK        -0.4424 
     20 C          20.3878  -27.4506  -43.1664 C.2       2 UNK         0.4918 
     21 O          21.4648  -28.0008  -42.9275 O.2       2 UNK        -0.4875 
     22 CA         20.2707  -26.4925  -44.3709 C.3       2 UNK         0.0481 
     23 CB         21.4824  -26.5905  -45.3165 C.3       2 UNK        -0.1831 
     24 N          19.0519  -26.6320  -45.1749 N.am      2 UNK        -0.4498 
     25 C          17.8294  -26.1937  -44.8475 C.2       1 UNK         0.5027 
     26 O          17.5229  -25.8103  -43.7154 O.2       1 UNK        -0.4969 
     27 C          20.2729  -27.8832  -40.0746 C.2       3 UNK         0.5005 
     28 O          20.7945  -28.6732  -39.2879 O.2       3 UNK        -0.5279 
     29 N          20.5247  -26.5657  -40.0794 N.am      4 UNK        -0.4463 
     30 CA         21.4588  -25.8769  -39.1867 C.3       4 UNK         0.0283 
     31 CB         21.0926  -24.3834  -39.1489 C.3       4 UNK        -0.1875 
     32 C          22.9441  -26.0559  -39.5615 C.2       4 UNK         0.4949 
     33 O          23.8001  -25.6789  -38.7595 O.2       4 UNK        -0.5039 
     34 N          23.2427  -26.5900  -40.7562 N.am      5 UNK        -0.4663 
     35 CA         24.6103  -26.8678  -41.2088 C.3       5 UNK         0.0242 
     36 CB         24.6170  -27.0487  -42.7360 C.3       5 UNK        -0.1982 
     37 C          25.2078  -28.1018  -40.5106 C.2       5 UNK         0.5017 
     38 O          24.4743  -28.8865  -39.9032 O.2       5 UNK        -0.5012 
     39 N          26.5338  -28.2596  -40.6322 N.am      6 UNK        -0.4439 
     40 CA         27.3186  -29.3631  -40.0698 C.3       6 UNK         0.0297 
     41 CB         28.7915  -29.2068  -40.4829 C.3       6 UNK        -0.2006 
     42 C          26.7765  -30.7393  -40.4928 C.2       6 UNK         0.4892 
     43 O          26.7055  -31.0212  -41.6904 O.2       6 UNK        -0.5089 
     44 N          26.3656  -31.5330  -39.4937 N.am      7 UNK        -0.4243 
     45 CA         25.7320  -32.8545  -39.6025 C.3       7 UNK         0.0196 
     46 CB         26.7113  -33.8793  -40.2159 C.3       7 UNK        -0.2007 
     47 C          24.3590  -32.8598  -40.3133 C.2       7 UNK         0.5020 
     48 O          23.8871  -33.9419  -40.6630 O.2       7 UNK        -0.5147 
     49 N          23.7389  -31.6782  -40.4770 N.am      8 UNK        -0.4734 
     50 CA         22.4950  -31.3815  -41.1989 C.3       8 UNK         0.0238 
     51 CB         21.2934  -32.1324  -40.5938 C.3       8 UNK        -0.1912 
     52 C          22.6433  -31.6271  -42.7123 C.2       8 UNK         0.5038 
     53 O          22.6862  -32.7767  -43.1535 O.2       8 UNK        -0.5046 
     54 N          22.7238  -30.5338  -43.4797 N.am      9 UNK        -0.4200 
     55 CA         22.9473  -30.5038  -44.9364 C.3       9 UNK         0.0839 
     56 C          24.3509  -31.0033  -45.3986 C.2       9 UNK         0.5513 
     57 N          25.3391  -31.1363  -44.5223 N.am      9 UNK        -0.7519 
     58 O          24.5644  -31.2424  -46.5846 O.2       9 UNK        -0.4960 
     59 C59        21.7873  -31.1410  -45.7578 C.3       10 UNK        -0.0876 
     60 S60        20.1705  -30.3761  -45.4013 S.3       10 UNK        -0.2414 
     61 C61        19.2318  -31.7937  -44.7537 C.3       10 UNK         0.0169 
     62 H62        17.3984  -22.1105  -46.4318 H         1 UNK         0.0903 
     63 H63        18.1674  -23.3571  -45.4597 H         1 UNK         0.0903 
     64 H64        17.8053  -23.6483  -47.1722 H         1 UNK         0.0903 
     65 H65        14.9240  -25.3535  -45.5281 H         1 UNK         0.3096 
     66 H66        17.3754  -25.8901  -46.9070 H         1 UNK         0.1121 
     67 H67        16.8329  -28.2947  -46.2627 H         1 UNK         0.0849 
     68 H68        15.7063  -27.4739  -47.2930 H         1 UNK         0.0849 
     69 H69        13.6759  -30.0259  -44.9416 H         1 UNK         0.0865 
     70 H70        14.7597  -29.9957  -46.3086 H         1 UNK         0.0865 
     71 H71        17.0757  -30.7279  -46.0266 H         1 UNK         0.1346 
     72 H72        18.4664  -31.8513  -42.1320 H         1 UNK         0.1412 
     73 H73        14.6304  -29.9994  -42.5814 H         1 UNK         0.1426 
     74 H74        15.3694  -30.5063  -40.4145 H         1 UNK         0.0716 
     75 H75        16.2400  -32.0189  -40.3648 H         1 UNK         0.0716 
     76 H76        17.6111  -27.7533  -39.8778 H         1 UNK         0.0695 
     77 H77        17.1148  -28.4718  -41.3733 H         1 UNK         0.0695 
     78 H78        19.6477  -29.3911  -41.4494 H         1 UNK         0.0983 
     79 H79        18.4693  -27.0907  -42.6330 H         1 UNK         0.3095 
     80 H80        20.2737  -25.4846  -43.9511 H         1 UNK         0.0454 
     81 H81        21.4326  -25.8411  -46.1064 H         1 UNK         0.0851 
     82 H82        21.5447  -27.5712  -45.7884 H         1 UNK         0.0851 
     83 H83        22.4181  -26.4245  -44.7837 H         1 UNK         0.0851 
     84 H84        19.1948  -26.9967  -46.1060 H         1 UNK         0.2976 
     85 H85        20.0482  -25.9953  -40.7630 H         1 UNK         0.3116 
     86 H86        21.3314  -26.2820  -38.1805 H         1 UNK         0.0646 
     87 H87        20.0659  -24.2331  -38.8148 H         1 UNK         0.0847 
     88 H88        21.7370  -23.8397  -38.4565 H         1 UNK         0.0847 
     89 H89        21.2011  -23.9153  -40.1281 H         1 UNK         0.0847 
     90 H90        22.4932  -26.9380  -41.3406 H         1 UNK         0.3040 
     91 H91        25.2333  -26.0052  -40.9610 H         1 UNK         0.1015 
     92 H92        24.0649  -27.9359  -43.0437 H         1 UNK         0.0786 
     93 H93        25.6331  -27.1571  -43.1171 H         1 UNK         0.0786 
     94 H94        24.1806  -26.1847  -43.2361 H         1 UNK         0.0786 
     95 H95        27.0484  -27.5825  -41.1765 H         1 UNK         0.3172 
     96 H96        27.2622  -29.2779  -38.9825 H         1 UNK         0.0595 
     97 H97        28.9122  -29.2389  -41.5667 H         1 UNK         0.0839 
     98 H98        29.4004  -30.0097  -40.0650 H         1 UNK         0.0839 
     99 H99        29.2095  -28.2658  -40.1247 H         1 UNK         0.0839 
    100 H100       26.4436  -31.1748  -38.5513 H         1 UNK         0.2998 
    101 H101       25.5305  -33.1710  -38.5779 H         1 UNK         0.0822 
    102 H102       26.3136  -34.8927  -40.1481 H         1 UNK         0.0787 
    103 H103       26.9004  -33.6766  -41.2706 H         1 UNK         0.0787 
    104 H104       27.6691  -33.8751  -39.6957 H         1 UNK         0.0787 
    105 H105       24.2208  -30.8485  -40.1406 H         1 UNK         0.3055 
    106 H106       22.3140  -30.3157  -41.0444 H         1 UNK         0.1106 
    107 H107       21.2221  -31.9645  -39.5192 H         1 UNK         0.0828 
    108 H108       20.3644  -31.7777  -41.0336 H         1 UNK         0.0828 
    109 H109       21.3468  -33.2075  -40.7665 H         1 UNK         0.0828 
    110 H110       22.5778  -29.6214  -43.0609 H         1 UNK         0.2931 
    111 H111       22.9575  -29.4421  -45.1832 H         1 UNK         0.0412 
    112 H112       26.2405  -31.4478  -44.8467 H         1 UNK         0.3472 
    113 H113       25.2068  -30.9515  -43.5388 H         1 UNK         0.3472 
    114 H114       21.7420  -32.2178  -45.5890 H         1 UNK         0.0970 
    115 H115       21.9657  -31.0166  -46.8272 H         1 UNK         0.0970 
    116 H116       19.0388  -32.5021  -45.5604 H         1 UNK         0.0612 
    117 H117       19.8357  -32.3171  -44.0107 H         1 UNK         0.0612 
@<TRIPOS>BOND
     1    1    2 1    
     2    1   62 1    
     3    1   63 1    
     4    1   64 1    
     5    2    3 2    
     6    2    4 am   BACKBONE|DICT|INTERRES
     7    4    5 1    
     8    4   65 1    
     9    5    6 1    
    10    5   25 1    
    11    5   66 1    
    12    6    7 1    
    13    6   67 1    
    14    6   68 1    
    15    7    8 1    
    16    8    9 1    
    17    8   69 1    
    18    8   70 1    
    19    9   10 ar   
    20    9   14 ar   
    21   10   11 ar   
    22   10   71 1    
    23   11   12 ar   
    24   11   61 1    
    25   12   13 ar   
    26   12   72 1    
    27   13   14 ar   
    28   13   15 1    
    29   14   73 1    
    30   15   16 1    
    31   15   74 1    
    32   15   75 1    
    33   16   17 1    
    34   17   18 1    
    35   17   76 1    
    36   17   77 1    
    37   18   19 1    
    38   18   27 1    
    39   18   78 1    
    40   19   20 am   BACKBONE|DICT|INTERRES
    41   19   79 1    
    42   20   21 2    
    43   20   22 1    
    44   22   23 1    
    45   22   24 1    
    46   22   80 1    
    47   23   81 1    
    48   23   82 1    
    49   23   83 1    
    50   24   25 am   BACKBONE|DICT|INTERRES
    51   24   84 1    
    52   25   26 2    
    53   27   28 2    
    54   27   29 am   BACKBONE|DICT|INTERRES
    55   29   30 1    
    56   29   85 1    
    57   30   31 1    
    58   30   32 1    
    59   30   86 1    
    60   31   87 1    
    61   31   88 1    
    62   31   89 1    
    63   32   33 2    
    64   32   34 am   BACKBONE|DICT|INTERRES
    65   34   35 1    
    66   34   90 1    
    67   35   36 1    
    68   35   37 1    
    69   35   91 1    
    70   36   92 1    
    71   36   93 1    
    72   36   94 1    
    73   37   38 2    
    74   37   39 am   BACKBONE|DICT|INTERRES
    75   39   40 1    
    76   39   95 1    
    77   40   41 1    
    78   40   42 1    
    79   40   96 1    
    80   41   97 1    
    81   41   98 1    
    82   41   99 1    
    83   42   43 2    
    84   42   44 am   BACKBONE|DICT|INTERRES
    85   44   45 1    
    86   44  100 1    
    87   45   46 1    
    88   45   47 1    
    89   45  101 1    
    90   46  102 1    
    91   46  103 1    
    92   46  104 1    
    93   47   48 2    
    94   47   49 am   BACKBONE|DICT|INTERRES
    95   49   50 1    
    96   49  105 1    
    97   50   51 1    
    98   50   52 1    
    99   50  106 1    
   100   51  107 1    
   101   51  108 1    
   102   51  109 1    
   103   52   53 2    
   104   52   54 am   BACKBONE|DICT|INTERRES
   105   54   55 1    
   106   54  110 1    
   107   55   56 1    
   108   55   59 1    
   109   55  111 1    
   110   56   57 am   BACKBONE|DICT|INTERRES
   111   56   58 2    
   112   57  112 1    
   113   57  113 1    
   114   59   60 1    
   115   59  114 1    
   116   59  115 1    
   117   60   61 1    
   118   61  116 1    
   119   61  117 1    
@<TRIPOS>SUBSTRUCTURE
     1 UNK         1 GROUP             0       ****    0 ROOT    
