@<TRIPOS>MOLECULE
3R8
117   119    1
SMALL
USER_CHARGES


@<TRIPOS>ATOM
      1 CA         20.5648  -29.3647  -42.6894 C.3       0 UNK        -0.2013 
      2 C          20.0549  -27.9435  -42.5359 C.2       0 UNK         0.4866 
      3 O          20.7605  -27.1051  -41.9773 O.2       0 UNK        -0.5176 
      4 N          18.8302  -27.6969  -43.0134 N.am      1 UNK        -0.4884 
      5 CA         18.0477  -26.4686  -42.8553 C.3       1 UNK         0.0853 
      6 C6         16.5259  -26.7159  -43.0912 C.3       10 UNK        -0.0849 
      7 S7         15.8752  -28.2197  -42.2769 S.3       10 UNK        -0.2776 
      8 C8         15.4571  -29.2778  -43.7079 C.3       10 UNK         0.0316 
      9 C9         16.6858  -29.9222  -44.3421 C.ar      10 UNK        -0.0863 
     10 C10        17.0897  -31.2018  -43.9444 C.ar      10 UNK        -0.1009 
     11 C11        18.1994  -31.8125  -44.5375 C.ar      10 UNK        -0.0712 
     12 C12        18.9218  -31.1248  -45.5164 C.ar      10 UNK        -0.0894 
     13 C13        18.5450  -29.8374  -45.9059 C.ar      10 UNK        -0.0745 
     14 C14        17.4074  -29.2544  -45.3390 C.ar      10 UNK        -0.0972 
     15 C15        19.3852  -29.0741  -46.9193 C.3       10 UNK         0.0209 
     16 S16        20.9541  -28.5334  -46.1680 S.3       10 UNK        -0.2568 
     17 C17        21.6014  -27.3752  -47.4207 C.3       10 UNK        -0.0983 
     18 CA         21.5868  -25.8956  -46.9572 C.3       3 UNK         0.0876 
     19 N          20.2472  -25.4843  -46.5299 N.am      3 UNK        -0.4424 
     20 C          19.8000  -24.2242  -46.4720 C.2       2 UNK         0.4918 
     21 O          20.4391  -23.2494  -46.8672 O.2       2 UNK        -0.4875 
     22 CA         18.4098  -24.0161  -45.8430 C.3       2 UNK         0.0481 
     23 CB         17.3406  -23.8997  -46.9408 C.3       2 UNK        -0.1831 
     24 N          18.0184  -25.0705  -44.8970 N.am      2 UNK        -0.4498 
     25 C          18.6216  -25.3238  -43.7238 C.2       1 UNK         0.5027 
     26 O          19.6045  -24.6938  -43.3338 O.2       1 UNK        -0.4969 
     27 C          22.6735  -25.6034  -45.8929 C.2       3 UNK         0.5005 
     28 O          23.8578  -25.6306  -46.2310 O.2       3 UNK        -0.5279 
     29 N          22.2625  -25.3175  -44.6449 N.am      4 UNK        -0.4463 
     30 CA         23.0838  -24.9199  -43.4955 C.3       4 UNK         0.0283 
     31 CB         23.7675  -23.5602  -43.7542 C.3       4 UNK        -0.1875 
     32 C          24.0697  -25.9961  -42.9997 C.2       4 UNK         0.4949 
     33 O          25.0600  -25.6537  -42.3516 O.2       4 UNK        -0.5039 
     34 N          23.7806  -27.2775  -43.2724 N.am      5 UNK        -0.4663 
     35 CA         24.5656  -28.4140  -42.7724 C.3       5 UNK         0.0242 
     36 CB         24.3639  -29.6353  -43.6843 C.3       5 UNK        -0.1982 
     37 C          24.2746  -28.7483  -41.2944 C.2       5 UNK         0.5017 
     38 O          25.0568  -29.4822  -40.6886 O.2       5 UNK        -0.5012 
     39 N          23.1835  -28.1931  -40.7392 N.am      6 UNK        -0.4439 
     40 CA         22.7817  -28.1989  -39.3296 C.3       6 UNK         0.0297 
     41 CB         23.6722  -27.2218  -38.5293 C.3       6 UNK        -0.2006 
     42 C          22.7102  -29.6144  -38.7292 C.2       6 UNK         0.4892 
     43 O          21.7987  -30.3696  -39.0735 O.2       6 UNK        -0.5089 
     44 N          23.6769  -29.9539  -37.8637 N.am      7 UNK        -0.4243 
     45 CA         23.8070  -31.2224  -37.1372 C.3       7 UNK         0.0196 
     46 CB         25.0272  -31.1358  -36.2056 C.3       7 UNK        -0.2007 
     47 C          23.8913  -32.4838  -38.0179 C.2       7 UNK         0.5020 
     48 O          23.6932  -33.5832  -37.5005 O.2       7 UNK        -0.5147 
     49 N          24.1526  -32.3184  -39.3227 N.am      8 UNK        -0.4734 
     50 CA         24.0557  -33.3779  -40.3302 C.3       8 UNK         0.0238 
     51 CB         24.5726  -32.8434  -41.6742 C.3       8 UNK        -0.1912 
     52 C          22.6284  -33.9371  -40.4972 C.2       8 UNK         0.5038 
     53 O          22.4924  -35.1137  -40.8364 O.2       8 UNK        -0.5046 
     54 N          21.6096  -33.0999  -40.2533 N.am      9 UNK        -0.4200 
     55 CA         20.1835  -33.4638  -40.2979 C.3       9 UNK         0.0839 
     56 C          19.4620  -33.2060  -38.9482 C.2       9 UNK         0.5513 
     57 N          19.9009  -32.2615  -38.1248 N.am      9 UNK        -0.7519 
     58 O          18.4880  -33.8864  -38.6370 O.2       9 UNK        -0.4960 
     59 C59        19.4350  -32.7537  -41.4555 C.3       10 UNK        -0.0876 
     60 S60        20.1194  -33.1862  -43.0921 S.3       10 UNK        -0.2414 
     61 C61        18.6272  -33.2149  -44.1327 C.3       10 UNK         0.0169 
     62 H62        20.9916  -29.7254  -41.7542 H         1 UNK         0.0903 
     63 H63        19.7653  -30.0431  -42.9786 H         1 UNK         0.0903 
     64 H64        21.3276  -29.4055  -43.4598 H         1 UNK         0.0903 
     65 H65        18.3297  -28.4558  -43.4583 H         1 UNK         0.3096 
     66 H66        18.1660  -26.1508  -41.8168 H         1 UNK         0.1121 
     67 H67        15.9571  -25.8637  -42.7142 H         1 UNK         0.0849 
     68 H68        16.2768  -26.7824  -44.1488 H         1 UNK         0.0849 
     69 H69        14.7704  -30.0557  -43.3701 H         1 UNK         0.0865 
     70 H70        14.9032  -28.7017  -44.4508 H         1 UNK         0.0865 
     71 H71        16.5338  -31.7272  -43.1796 H         1 UNK         0.1346 
     72 H72        19.7963  -31.5835  -45.9580 H         1 UNK         0.1412 
     73 H73        17.0972  -28.2719  -45.6638 H         1 UNK         0.1426 
     74 H74        18.8392  -28.2076  -47.2952 H         1 UNK         0.0716 
     75 H75        19.5949  -29.7094  -47.7811 H         1 UNK         0.0716 
     76 H76        21.0160  -27.4749  -48.3360 H         1 UNK         0.0695 
     77 H77        22.6126  -27.6864  -47.6900 H         1 UNK         0.0695 
     78 H78        21.8546  -25.2866  -47.8238 H         1 UNK         0.0983 
     79 H79        19.6546  -26.2225  -46.1817 H         1 UNK         0.3095 
     80 H80        18.4385  -23.0722  -45.2947 H         1 UNK         0.0454 
     81 H81        17.5891  -23.1037  -47.6444 H         1 UNK         0.0851 
     82 H82        16.3631  -23.6619  -46.5212 H         1 UNK         0.0851 
     83 H83        17.2462  -24.8223  -47.5149 H         1 UNK         0.0851 
     84 H84        17.2087  -25.6160  -45.1516 H         1 UNK         0.2976 
     85 H85        21.2657  -25.3138  -44.4571 H         1 UNK         0.3116 
     86 H86        22.3797  -24.7747  -42.6748 H         1 UNK         0.0646 
     87 H87        24.5426  -23.6355  -44.5173 H         1 UNK         0.0847 
     88 H88        23.0470  -22.8097  -44.0793 H         1 UNK         0.0847 
     89 H89        24.2408  -23.1796  -42.8483 H         1 UNK         0.0847 
     90 H90        22.9515  -27.4790  -43.8126 H         1 UNK         0.3040 
     91 H91        25.6222  -28.1416  -42.8286 H         1 UNK         0.1015 
     92 H92        25.1165  -30.3953  -43.4717 H         1 UNK         0.0786 
     93 H93        24.4661  -29.3712  -44.7372 H         1 UNK         0.0786 
     94 H94        23.3921  -30.1041  -43.5465 H         1 UNK         0.0786 
     95 H95        22.5606  -27.6678  -41.3469 H         1 UNK         0.3172 
     96 H96        21.7626  -27.8101  -39.3022 H         1 UNK         0.0595 
     97 H97        24.7288  -27.4880  -38.5770 H         1 UNK         0.0839 
     98 H98        23.3803  -27.1874  -37.4786 H         1 UNK         0.0839 
     99 H99        23.5772  -26.2072  -38.9169 H         1 UNK         0.0839 
    100 H100       24.3985  -29.2697  -37.6890 H         1 UNK         0.2998 
    101 H101       22.9123  -31.3314  -36.5208 H         1 UNK         0.0822 
    102 H102       25.1382  -32.0486  -35.6183 H         1 UNK         0.0787 
    103 H103       25.9521  -30.9951  -36.7668 H         1 UNK         0.0787 
    104 H104       24.9319  -30.3104  -35.4997 H         1 UNK         0.0787 
    105 H105       24.3367  -31.3802  -39.6594 H         1 UNK         0.3055 
    106 H106       24.6979  -34.2023  -40.0125 H         1 UNK         0.1106 
    107 H107       23.9410  -32.0376  -42.0478 H         1 UNK         0.0828 
    108 H108       25.5911  -32.4637  -41.5903 H         1 UNK         0.0828 
    109 H109       24.5787  -33.6293  -42.4307 H         1 UNK         0.0828 
    110 H110       21.8153  -32.1560  -39.9447 H         1 UNK         0.2931 
    111 H111       20.0936  -34.5381  -40.4701 H         1 UNK         0.0412 
    112 H112       20.6442  -31.6271  -38.4023 H         1 UNK         0.3472 
    113 H113       19.4225  -32.1168  -37.2501 H         1 UNK         0.3472 
    114 H114       18.3770  -33.0215  -41.4363 H         1 UNK         0.0970 
    115 H115       19.4734  -31.6722  -41.3260 H         1 UNK         0.0970 
    116 H116       18.8430  -33.7940  -45.0316 H         1 UNK         0.0612 
    117 H117       17.8212  -33.7420  -43.6202 H         1 UNK         0.0612 
@<TRIPOS>BOND
     1    1    2 1    
     2    1   62 1    
     3    1   63 1    
     4    1   64 1    
     5    2    3 2    
     6    2    4 am   BACKBONE|DICT|INTERRES
     7    4    5 1    
     8    4   65 1    
     9    5    6 1    
    10    5   25 1    
    11    5   66 1    
    12    6    7 1    
    13    6   67 1    
    14    6   68 1    
    15    7    8 1    
    16    8    9 1    
    17    8   69 1    
    18    8   70 1    
    19    9   10 ar   
    20    9   14 ar   
    21   10   11 ar   
    22   10   71 1    
    23   11   12 ar   
    24   11   61 1    
    25   12   13 ar   
    26   12   72 1    
    27   13   14 ar   
    28   13   15 1    
    29   14   73 1    
    30   15   16 1    
    31   15   74 1    
    32   15   75 1    
    33   16   17 1    
    34   17   18 1    
    35   17   76 1    
    36   17   77 1    
    37   18   19 1    
    38   18   27 1    
    39   18   78 1    
    40   19   20 am   BACKBONE|DICT|INTERRES
    41   19   79 1    
    42   20   21 2    
    43   20   22 1    
    44   22   23 1    
    45   22   24 1    
    46   22   80 1    
    47   23   81 1    
    48   23   82 1    
    49   23   83 1    
    50   24   25 am   BACKBONE|DICT|INTERRES
    51   24   84 1    
    52   25   26 2    
    53   27   28 2    
    54   27   29 am   BACKBONE|DICT|INTERRES
    55   29   30 1    
    56   29   85 1    
    57   30   31 1    
    58   30   32 1    
    59   30   86 1    
    60   31   87 1    
    61   31   88 1    
    62   31   89 1    
    63   32   33 2    
    64   32   34 am   BACKBONE|DICT|INTERRES
    65   34   35 1    
    66   34   90 1    
    67   35   36 1    
    68   35   37 1    
    69   35   91 1    
    70   36   92 1    
    71   36   93 1    
    72   36   94 1    
    73   37   38 2    
    74   37   39 am   BACKBONE|DICT|INTERRES
    75   39   40 1    
    76   39   95 1    
    77   40   41 1    
    78   40   42 1    
    79   40   96 1    
    80   41   97 1    
    81   41   98 1    
    82   41   99 1    
    83   42   43 2    
    84   42   44 am   BACKBONE|DICT|INTERRES
    85   44   45 1    
    86   44  100 1    
    87   45   46 1    
    88   45   47 1    
    89   45  101 1    
    90   46  102 1    
    91   46  103 1    
    92   46  104 1    
    93   47   48 2    
    94   47   49 am   BACKBONE|DICT|INTERRES
    95   49   50 1    
    96   49  105 1    
    97   50   51 1    
    98   50   52 1    
    99   50  106 1    
   100   51  107 1    
   101   51  108 1    
   102   51  109 1    
   103   52   53 2    
   104   52   54 am   BACKBONE|DICT|INTERRES
   105   54   55 1    
   106   54  110 1    
   107   55   56 1    
   108   55   59 1    
   109   55  111 1    
   110   56   57 am   BACKBONE|DICT|INTERRES
   111   56   58 2    
   112   57  112 1    
   113   57  113 1    
   114   59   60 1    
   115   59  114 1    
   116   59  115 1    
   117   60   61 1    
   118   61  116 1    
   119   61  117 1    
@<TRIPOS>SUBSTRUCTURE
     1 UNK         1 GROUP             0       ****    0 ROOT    
