@<TRIPOS>MOLECULE
3R8
117   119    1
SMALL
USER_CHARGES


@<TRIPOS>ATOM
      1 CA         16.5924  -22.2398  -45.8819 C.3       0 UNK        -0.2013 
      2 C          17.1385  -23.2660  -44.9004 C.2       0 UNK         0.4866 
      3 O          17.4520  -22.9124  -43.7637 O.2       0 UNK        -0.5176 
      4 N          17.2551  -24.5283  -45.3380 N.am      1 UNK        -0.4884 
      5 CA         17.7413  -25.6828  -44.5654 C.3       1 UNK         0.0853 
      6 C6         16.7981  -26.0995  -43.4018 C.3       10 UNK        -0.0849 
      7 S7         15.1639  -26.6388  -44.0117 S.3       10 UNK        -0.2776 
      8 C8         14.9763  -28.2814  -43.2236 C.3       10 UNK         0.0316 
      9 C9         15.9764  -29.3556  -43.6621 C.ar      10 UNK        -0.0863 
     10 C10        16.2291  -30.4308  -42.8023 C.ar      10 UNK        -0.1009 
     11 C11        17.1231  -31.4454  -43.1611 C.ar      10 UNK        -0.0712 
     12 C12        17.7669  -31.3848  -44.3998 C.ar      10 UNK        -0.0894 
     13 C13        17.5302  -30.3184  -45.2689 C.ar      10 UNK        -0.0745 
     14 C14        16.6233  -29.3187  -44.9037 C.ar      10 UNK        -0.0972 
     15 C15        18.2288  -30.2544  -46.6174 C.3       10 UNK         0.0209 
     16 S16        19.4386  -28.8976  -46.6822 S.3       10 UNK        -0.2568 
     17 C17        20.9802  -29.6625  -46.0422 C.3       10 UNK        -0.0983 
     18 CA         21.8143  -28.7697  -45.0699 C.3       3 UNK         0.0876 
     19 N          21.5605  -27.3424  -45.2692 N.am      3 UNK        -0.4424 
     20 C          22.1764  -26.3134  -44.6770 C.2       2 UNK         0.4918 
     21 O          23.1647  -26.4259  -43.9555 O.2       2 UNK        -0.4875 
     22 CA         21.5196  -24.9322  -44.8737 C.3       2 UNK         0.0481 
     23 CB         22.1375  -24.2089  -46.0795 C.3       2 UNK        -0.1831 
     24 N          20.0598  -25.0088  -45.0379 N.am      2 UNK        -0.4498 
     25 C          19.2146  -25.5220  -44.1283 C.2       1 UNK         0.5027 
     26 O          19.5817  -25.9120  -43.0183 O.2       1 UNK        -0.4969 
     27 C          21.6665  -29.2066  -43.5964 C.2       3 UNK         0.5005 
     28 O          22.4961  -29.9850  -43.1226 O.2       3 UNK        -0.5279 
     29 N          20.6568  -28.6825  -42.8864 N.am      4 UNK        -0.4463 
     30 CA         20.4467  -28.9322  -41.4579 C.3       4 UNK         0.0283 
     31 CB         18.9979  -28.6089  -41.0685 C.3       4 UNK        -0.1875 
     32 C          21.4204  -28.1347  -40.5816 C.2       4 UNK         0.4949 
     33 O          21.8809  -28.6551  -39.5672 O.2       4 UNK        -0.5039 
     34 N          21.7277  -26.8957  -40.9908 N.am      5 UNK        -0.4663 
     35 CA         22.6841  -26.0152  -40.3111 C.3       5 UNK         0.0242 
     36 CB         22.5769  -24.5985  -40.8972 C.3       5 UNK        -0.1982 
     37 C          24.1377  -26.5218  -40.3783 C.2       5 UNK         0.5017 
     38 O          24.9228  -26.2048  -39.4844 O.2       5 UNK        -0.5012 
     39 N          24.4609  -27.2808  -41.4342 N.am      6 UNK        -0.4439 
     40 CA         25.7441  -27.9368  -41.6702 C.3       6 UNK         0.0297 
     41 CB         25.8749  -28.2491  -43.1754 C.3       6 UNK        -0.2006 
     42 C          25.9284  -29.1719  -40.7646 C.2       6 UNK         0.4892 
     43 O          26.2784  -29.0183  -39.5940 O.2       6 UNK        -0.5089 
     44 N          25.7442  -30.3758  -41.3242 N.am      7 UNK        -0.4243 
     45 CA         26.0461  -31.6498  -40.6622 C.3       7 UNK         0.0196 
     46 CB         26.4180  -32.6923  -41.7302 C.3       7 UNK        -0.2007 
     47 C          24.9233  -32.1748  -39.7488 C.2       7 UNK         0.5020 
     48 O          25.1739  -33.1211  -39.0022 O.2       7 UNK        -0.5147 
     49 N          23.7269  -31.5710  -39.8191 N.am      8 UNK        -0.4734 
     50 CA         22.5059  -31.9195  -39.0739 C.3       8 UNK         0.0238 
     51 CB         22.6769  -31.5651  -37.5807 C.3       8 UNK        -0.1912 
     52 C          22.0576  -33.3853  -39.2931 C.2       8 UNK         0.5038 
     53 O          22.0792  -34.1687  -38.3432 O.2       8 UNK        -0.5046 
     54 N          21.6620  -33.7915  -40.5076 N.am      9 UNK        -0.4200 
     55 CA         21.5796  -33.0122  -41.7511 C.3       9 UNK         0.0839 
     56 C          22.6013  -33.5444  -42.7857 C.2       9 UNK         0.5513 
     57 N          23.1631  -32.6645  -43.6004 N.am      9 UNK        -0.7519 
     58 O          22.8544  -34.7436  -42.8824 O.2       9 UNK        -0.4960 
     59 C59        20.1535  -33.0317  -42.3549 C.3       10 UNK        -0.0876 
     60 S60        18.8775  -32.3864  -41.2209 S.3       10 UNK        -0.2414 
     61 C61        17.3715  -32.6155  -42.2186 C.3       10 UNK         0.0169 
     62 H62        16.3546  -22.6837  -46.8485 H         1 UNK         0.0903 
     63 H63        15.6838  -21.7884  -45.4844 H         1 UNK         0.0903 
     64 H64        17.3238  -21.4483  -46.0430 H         1 UNK         0.0903 
     65 H65        16.9642  -24.7408  -46.2828 H         1 UNK         0.3096 
     66 H66        17.7637  -26.5176  -45.2672 H         1 UNK         0.1121 
     67 H67        16.6632  -25.2800  -42.6944 H         1 UNK         0.0849 
     68 H68        17.2327  -26.9203  -42.8304 H         1 UNK         0.0849 
     69 H69        15.0308  -28.1461  -42.1421 H         1 UNK         0.0865 
     70 H70        13.9709  -28.6480  -43.4344 H         1 UNK         0.0865 
     71 H71        15.7279  -30.4794  -41.8449 H         1 UNK         0.1346 
     72 H72        18.4434  -32.1738  -44.6948 H         1 UNK         0.1412 
     73 H73        16.4263  -28.5140  -45.5973 H         1 UNK         0.1426 
     74 H74        18.7162  -31.1995  -46.8617 H         1 UNK         0.0716 
     75 H75        17.4801  -30.0902  -47.3937 H         1 UNK         0.0716 
     76 H76        21.5918  -29.8895  -46.9166 H         1 UNK         0.0695 
     77 H77        20.7520  -30.6353  -45.6010 H         1 UNK         0.0695 
     78 H78        22.8685  -28.9238  -45.3111 H         1 UNK         0.0983 
     79 H79        20.7676  -27.1429  -45.8624 H         1 UNK         0.3095 
     80 H80        21.7191  -24.3381  -43.9806 H         1 UNK         0.0454 
     81 H81        21.7414  -23.1986  -46.1825 H         1 UNK         0.0851 
     82 H82        21.9499  -24.7414  -47.0127 H         1 UNK         0.0851 
     83 H83        23.2190  -24.1202  -45.9671 H         1 UNK         0.0851 
     84 H84        19.6799  -24.6884  -45.9174 H         1 UNK         0.2976 
     85 H85        20.0536  -27.9954  -43.3183 H         1 UNK         0.3116 
     86 H86        20.6142  -29.9923  -41.2688 H         1 UNK         0.0646 
     87 H87        18.2941  -29.1067  -41.7304 H         1 UNK         0.0847 
     88 H88        18.7864  -28.9504  -40.0546 H         1 UNK         0.0847 
     89 H89        18.7925  -27.5390  -41.0984 H         1 UNK         0.0847 
     90 H90        21.2575  -26.5284  -41.8103 H         1 UNK         0.3040 
     91 H91        22.4029  -25.9718  -39.2564 H         1 UNK         0.1015 
     92 H92        22.9123  -24.5658  -41.9336 H         1 UNK         0.0786 
     93 H93        23.1971  -23.8990  -40.3351 H         1 UNK         0.0786 
     94 H94        21.5527  -24.2264  -40.8612 H         1 UNK         0.0786 
     95 H95        23.7546  -27.3997  -42.1507 H         1 UNK         0.3172 
     96 H96        26.5393  -27.2343  -41.4124 H         1 UNK         0.0595 
     97 H97        25.0540  -28.8649  -43.5446 H         1 UNK         0.0839 
     98 H98        26.8096  -28.7679  -43.3934 H         1 UNK         0.0839 
     99 H99        25.8784  -27.3304  -43.7626 H         1 UNK         0.0839 
    100 H100       25.4366  -30.4219  -42.2852 H         1 UNK         0.2998 
    101 H101       26.9230  -31.5096  -40.0260 H         1 UNK         0.0822 
    102 H102       26.6856  -33.6453  -41.2715 H         1 UNK         0.0787 
    103 H103       25.5944  -32.8838  -42.4157 H         1 UNK         0.0787 
    104 H104       27.2761  -32.3677  -42.3191 H         1 UNK         0.0787 
    105 H105       23.6377  -30.7961  -40.4623 H         1 UNK         0.3055 
    106 H106       21.6986  -31.2894  -39.4472 H         1 UNK         0.1106 
    107 H107       22.9196  -30.5099  -37.4534 H         1 UNK         0.0828 
    108 H108       21.7558  -31.7532  -37.0280 H         1 UNK         0.0828 
    109 H109       23.4658  -32.1504  -37.1076 H         1 UNK         0.0828 
    110 H110       21.4419  -34.7693  -40.6249 H         1 UNK         0.2931 
    111 H111       21.8232  -31.9700  -41.5652 H         1 UNK         0.0412 
    112 H112       22.9539  -31.6722  -43.5044 H         1 UNK         0.3472 
    113 H113       23.8101  -32.9816  -44.3042 H         1 UNK         0.3472 
    114 H114       20.1418  -32.4220  -43.2584 H         1 UNK         0.0970 
    115 H115       19.8749  -34.0437  -42.6553 H         1 UNK         0.0970 
    116 H116       17.4342  -33.5478  -42.7818 H         1 UNK         0.0612 
    117 H117       16.5248  -32.7312  -41.5403 H         1 UNK         0.0612 
@<TRIPOS>BOND
     1    1    2 1    
     2    1   62 1    
     3    1   63 1    
     4    1   64 1    
     5    2    3 2    
     6    2    4 am   BACKBONE|DICT|INTERRES
     7    4    5 1    
     8    4   65 1    
     9    5    6 1    
    10    5   25 1    
    11    5   66 1    
    12    6    7 1    
    13    6   67 1    
    14    6   68 1    
    15    7    8 1    
    16    8    9 1    
    17    8   69 1    
    18    8   70 1    
    19    9   10 ar   
    20    9   14 ar   
    21   10   11 ar   
    22   10   71 1    
    23   11   12 ar   
    24   11   61 1    
    25   12   13 ar   
    26   12   72 1    
    27   13   14 ar   
    28   13   15 1    
    29   14   73 1    
    30   15   16 1    
    31   15   74 1    
    32   15   75 1    
    33   16   17 1    
    34   17   18 1    
    35   17   76 1    
    36   17   77 1    
    37   18   19 1    
    38   18   27 1    
    39   18   78 1    
    40   19   20 am   BACKBONE|DICT|INTERRES
    41   19   79 1    
    42   20   21 2    
    43   20   22 1    
    44   22   23 1    
    45   22   24 1    
    46   22   80 1    
    47   23   81 1    
    48   23   82 1    
    49   23   83 1    
    50   24   25 am   BACKBONE|DICT|INTERRES
    51   24   84 1    
    52   25   26 2    
    53   27   28 2    
    54   27   29 am   BACKBONE|DICT|INTERRES
    55   29   30 1    
    56   29   85 1    
    57   30   31 1    
    58   30   32 1    
    59   30   86 1    
    60   31   87 1    
    61   31   88 1    
    62   31   89 1    
    63   32   33 2    
    64   32   34 am   BACKBONE|DICT|INTERRES
    65   34   35 1    
    66   34   90 1    
    67   35   36 1    
    68   35   37 1    
    69   35   91 1    
    70   36   92 1    
    71   36   93 1    
    72   36   94 1    
    73   37   38 2    
    74   37   39 am   BACKBONE|DICT|INTERRES
    75   39   40 1    
    76   39   95 1    
    77   40   41 1    
    78   40   42 1    
    79   40   96 1    
    80   41   97 1    
    81   41   98 1    
    82   41   99 1    
    83   42   43 2    
    84   42   44 am   BACKBONE|DICT|INTERRES
    85   44   45 1    
    86   44  100 1    
    87   45   46 1    
    88   45   47 1    
    89   45  101 1    
    90   46  102 1    
    91   46  103 1    
    92   46  104 1    
    93   47   48 2    
    94   47   49 am   BACKBONE|DICT|INTERRES
    95   49   50 1    
    96   49  105 1    
    97   50   51 1    
    98   50   52 1    
    99   50  106 1    
   100   51  107 1    
   101   51  108 1    
   102   51  109 1    
   103   52   53 2    
   104   52   54 am   BACKBONE|DICT|INTERRES
   105   54   55 1    
   106   54  110 1    
   107   55   56 1    
   108   55   59 1    
   109   55  111 1    
   110   56   57 am   BACKBONE|DICT|INTERRES
   111   56   58 2    
   112   57  112 1    
   113   57  113 1    
   114   59   60 1    
   115   59  114 1    
   116   59  115 1    
   117   60   61 1    
   118   61  116 1    
   119   61  117 1    
@<TRIPOS>SUBSTRUCTURE
     1 UNK         1 GROUP             0       ****    0 ROOT    
