@<TRIPOS>MOLECULE
3R8
117   119    1
SMALL
USER_CHARGES


@<TRIPOS>ATOM
      1 CA         13.4237  -27.8551  -41.7986 C.3       0 UNK        -0.2013 
      2 C          13.4717  -26.3570  -42.0857 C.2       0 UNK         0.4866 
      3 O          12.7634  -25.6101  -41.4130 O.2       0 UNK        -0.5176 
      4 N          14.2488  -25.8401  -43.0509 N.am      1 UNK        -0.4884 
      5 CA         15.2361  -26.4635  -43.9444 C.3       1 UNK         0.0853 
      6 C6         14.6436  -27.5088  -44.9316 C.3       10 UNK        -0.0849 
      7 S7         15.3375  -27.3404  -46.6117 S.3       10 UNK        -0.2776 
      8 C8         16.0758  -28.9801  -46.9043 C.3       10 UNK         0.0316 
      9 C9         17.4727  -29.0972  -46.3116 C.ar      10 UNK        -0.0863 
     10 C10        17.6712  -29.7210  -45.0761 C.ar      10 UNK        -0.1009 
     11 C11        18.9590  -29.8563  -44.5487 C.ar      10 UNK        -0.0712 
     12 C12        20.0524  -29.3782  -45.2755 C.ar      10 UNK        -0.0894 
     13 C13        19.8692  -28.7464  -46.5074 C.ar      10 UNK        -0.0745 
     14 C14        18.5752  -28.6060  -47.0187 C.ar      10 UNK        -0.0972 
     15 C15        21.0670  -28.2427  -47.3012 C.3       10 UNK         0.0209 
     16 S16        21.5752  -26.5654  -46.8014 S.3       10 UNK        -0.2568 
     17 C17        22.7442  -26.8919  -45.4372 C.3       10 UNK        -0.0983 
     18 CA         22.3915  -26.1276  -44.1351 C.3       3 UNK         0.0876 
     19 N          21.1587  -26.6034  -43.5155 N.am      3 UNK        -0.4424 
     20 C          19.9813  -25.9761  -43.5374 C.2       2 UNK         0.4918 
     21 O          19.7564  -24.9290  -44.1501 O.2       2 UNK        -0.4875 
     22 CA         18.8724  -26.6106  -42.6937 C.3       2 UNK         0.0481 
     23 CB         18.9422  -26.1350  -41.2318 C.3       2 UNK        -0.1831 
     24 N          17.5841  -26.2588  -43.2789 N.am      2 UNK        -0.4498 
     25 C          16.4660  -26.9834  -43.1728 C.2       1 UNK         0.5027 
     26 O          16.3836  -28.0128  -42.5006 O.2       1 UNK        -0.4969 
     27 C          23.4917  -26.3274  -43.0835 C.2       3 UNK         0.5005 
     28 O          23.4745  -27.3466  -42.3863 O.2       3 UNK        -0.5279 
     29 N          24.4447  -25.3889  -42.9993 N.am      4 UNK        -0.4463 
     30 CA         25.5328  -25.3909  -42.0103 C.3       4 UNK         0.0283 
     31 CB         26.3409  -24.0893  -42.1343 C.3       4 UNK        -0.1875 
     32 C          26.4669  -26.6120  -42.0967 C.2       4 UNK         0.4949 
     33 O          26.9812  -27.0531  -41.0694 O.2       4 UNK        -0.5039 
     34 N          26.6480  -27.1475  -43.3116 N.am      5 UNK        -0.4663 
     35 CA         27.4148  -28.3688  -43.5717 C.3       5 UNK         0.0242 
     36 CB         27.7855  -28.4189  -45.0630 C.3       5 UNK        -0.1982 
     37 C          26.6696  -29.6528  -43.1618 C.2       5 UNK         0.5017 
     38 O          27.3225  -30.6644  -42.9037 O.2       5 UNK        -0.5012 
     39 N          25.3309  -29.5981  -43.1242 N.am      6 UNK        -0.4439 
     40 CA         24.4629  -30.7104  -42.7354 C.3       6 UNK         0.0297 
     41 CB         23.1404  -30.6164  -43.5084 C.3       6 UNK        -0.2006 
     42 C          24.1986  -30.7176  -41.2233 C.2       6 UNK         0.4892 
     43 O          24.1333  -31.7980  -40.6353 O.2       6 UNK        -0.5089 
     44 N          24.0518  -29.5212  -40.6307 N.am      7 UNK        -0.4243 
     45 CA         23.8197  -29.2443  -39.2100 C.3       7 UNK         0.0196 
     46 CB         25.0876  -29.5563  -38.3837 C.3       7 UNK        -0.2007 
     47 C          22.5497  -29.9432  -38.6919 C.2       7 UNK         0.5020 
     48 O          21.4494  -29.4430  -38.9248 O.2       7 UNK        -0.5147 
     49 N          22.7194  -31.0946  -38.0276 N.am      8 UNK        -0.4734 
     50 CA         21.6392  -31.9651  -37.5527 C.3       8 UNK         0.0238 
     51 CB         22.2220  -32.9911  -36.5667 C.3       8 UNK        -0.1912 
     52 C          20.8692  -32.6791  -38.6816 C.2       8 UNK         0.5038 
     53 O          19.7668  -33.1664  -38.4289 O.2       8 UNK        -0.5046 
     54 N          21.4460  -32.7261  -39.8916 N.am      9 UNK        -0.4200 
     55 CA         20.8710  -33.3269  -41.1069 C.3       9 UNK         0.0839 
     56 C          20.8642  -34.8859  -41.1203 C.2       9 UNK         0.5513 
     57 N          21.5979  -35.5557  -40.2392 N.am      9 UNK        -0.7519 
     58 O          20.2083  -35.5032  -41.9553 O.2       9 UNK        -0.4960 
     59 C59        19.4979  -32.6952  -41.4989 C.3       10 UNK        -0.0876 
     60 S60        19.3735  -32.2857  -43.2744 S.3       10 UNK        -0.2414 
     61 C61        19.1638  -30.4826  -43.1779 C.3       10 UNK         0.0169 
     62 H62        12.4436  -28.1291  -41.4087 H         1 UNK         0.0903 
     63 H63        13.5969  -28.4653  -42.6794 H         1 UNK         0.0903 
     64 H64        14.1642  -28.1166  -41.0435 H         1 UNK         0.0903 
     65 H65        14.2047  -24.8354  -43.1568 H         1 UNK         0.3096 
     66 H66        15.5799  -25.6191  -44.5451 H         1 UNK         0.1121 
     67 H67        13.5659  -27.3673  -45.0277 H         1 UNK         0.0849 
     68 H68        14.7750  -28.5322  -44.5775 H         1 UNK         0.0849 
     69 H69        15.4211  -29.7624  -46.5170 H         1 UNK         0.0865 
     70 H70        16.1295  -29.1475  -47.9812 H         1 UNK         0.0865 
     71 H71        16.8241  -30.0942  -44.5169 H         1 UNK         0.1346 
     72 H72        21.0485  -29.4892  -44.8802 H         1 UNK         0.1412 
     73 H73        18.4253  -28.1220  -47.9744 H         1 UNK         0.1426 
     74 H74        21.9051  -28.9348  -47.2069 H         1 UNK         0.0716 
     75 H75        20.8193  -28.2222  -48.3635 H         1 UNK         0.0716 
     76 H76        23.7325  -26.5952  -45.7937 H         1 UNK         0.0695 
     77 H77        22.8063  -27.9642  -45.2481 H         1 UNK         0.0695 
     78 H78        22.3131  -25.0596  -44.3511 H         1 UNK         0.0983 
     79 H79        21.2883  -27.4038  -42.9118 H         1 UNK         0.3095 
     80 H80        18.9977  -27.6930  -42.7225 H         1 UNK         0.0454 
     81 H81        18.8178  -25.0544  -41.1541 H         1 UNK         0.0851 
     82 H82        18.1694  -26.6057  -40.6240 H         1 UNK         0.0851 
     83 H83        19.9032  -26.3880  -40.7820 H         1 UNK         0.0851 
     84 H84        17.6129  -25.4417  -43.8766 H         1 UNK         0.2976 
     85 H85        24.4003  -24.5902  -43.6170 H         1 UNK         0.3116 
     86 H86        25.0716  -25.4100  -41.0204 H         1 UNK         0.0646 
     87 H87        25.7137  -23.2133  -41.9681 H         1 UNK         0.0847 
     88 H88        27.1414  -24.0552  -41.3938 H         1 UNK         0.0847 
     89 H89        26.8036  -23.9915  -43.1172 H         1 UNK         0.0847 
     90 H90        26.2068  -26.7028  -44.1034 H         1 UNK         0.3040 
     91 H91        28.3389  -28.3290  -42.9900 H         1 UNK         0.1015 
     92 H92        26.9004  -28.4537  -45.6997 H         1 UNK         0.0786 
     93 H93        28.3825  -29.3042  -45.2869 H         1 UNK         0.0786 
     94 H94        28.3766  -27.5505  -45.3547 H         1 UNK         0.0786 
     95 H95        24.8823  -28.7037  -43.2729 H         1 UNK         0.3172 
     96 H96        24.9415  -31.6553  -43.0020 H         1 UNK         0.0595 
     97 H97        22.5715  -29.7336  -43.2181 H         1 UNK         0.0839 
     98 H98        22.5118  -31.4853  -43.3161 H         1 UNK         0.0839 
     99 H99        23.3103  -30.5750  -44.5843 H         1 UNK         0.0839 
    100 H100       24.0174  -28.7030  -41.2349 H         1 UNK         0.2998 
    101 H101       23.6329  -28.1719  -39.1328 H         1 UNK         0.0822 
    102 H102       24.9254  -29.3572  -37.3235 H         1 UNK         0.0787 
    103 H103       25.4080  -30.5937  -38.4826 H         1 UNK         0.0787 
    104 H104       25.9195  -28.9280  -38.7036 H         1 UNK         0.0787 
    105 H105       23.6626  -31.4406  -37.9216 H         1 UNK         0.3055 
    106 H106       20.9161  -31.3453  -37.0177 H         1 UNK         0.1106 
    107 H107       22.6943  -32.5001  -35.7157 H         1 UNK         0.0828 
    108 H108       21.4400  -33.6398  -36.1693 H         1 UNK         0.0828 
    109 H109       22.9661  -33.6315  -37.0417 H         1 UNK         0.0828 
    110 H110       22.3785  -32.3365  -39.9985 H         1 UNK         0.2931 
    111 H111       21.5940  -33.0631  -41.8777 H         1 UNK         0.0412 
    112 H112       21.5964  -36.5636  -40.2588 H         1 UNK         0.3472 
    113 H113       22.1543  -35.0635  -39.5591 H         1 UNK         0.3472 
    114 H114       18.6669  -33.3490  -41.2275 H         1 UNK         0.0970 
    115 H115       19.3251  -31.7809  -40.9297 H         1 UNK         0.0970 
    116 H116       18.3083  -30.2520  -42.5405 H         1 UNK         0.0612 
    117 H117       20.0372  -30.0462  -42.6907 H         1 UNK         0.0612 
@<TRIPOS>BOND
     1    1    2 1    
     2    1   62 1    
     3    1   63 1    
     4    1   64 1    
     5    2    3 2    
     6    2    4 am   BACKBONE|DICT|INTERRES
     7    4    5 1    
     8    4   65 1    
     9    5    6 1    
    10    5   25 1    
    11    5   66 1    
    12    6    7 1    
    13    6   67 1    
    14    6   68 1    
    15    7    8 1    
    16    8    9 1    
    17    8   69 1    
    18    8   70 1    
    19    9   10 ar   
    20    9   14 ar   
    21   10   11 ar   
    22   10   71 1    
    23   11   12 ar   
    24   11   61 1    
    25   12   13 ar   
    26   12   72 1    
    27   13   14 ar   
    28   13   15 1    
    29   14   73 1    
    30   15   16 1    
    31   15   74 1    
    32   15   75 1    
    33   16   17 1    
    34   17   18 1    
    35   17   76 1    
    36   17   77 1    
    37   18   19 1    
    38   18   27 1    
    39   18   78 1    
    40   19   20 am   BACKBONE|DICT|INTERRES
    41   19   79 1    
    42   20   21 2    
    43   20   22 1    
    44   22   23 1    
    45   22   24 1    
    46   22   80 1    
    47   23   81 1    
    48   23   82 1    
    49   23   83 1    
    50   24   25 am   BACKBONE|DICT|INTERRES
    51   24   84 1    
    52   25   26 2    
    53   27   28 2    
    54   27   29 am   BACKBONE|DICT|INTERRES
    55   29   30 1    
    56   29   85 1    
    57   30   31 1    
    58   30   32 1    
    59   30   86 1    
    60   31   87 1    
    61   31   88 1    
    62   31   89 1    
    63   32   33 2    
    64   32   34 am   BACKBONE|DICT|INTERRES
    65   34   35 1    
    66   34   90 1    
    67   35   36 1    
    68   35   37 1    
    69   35   91 1    
    70   36   92 1    
    71   36   93 1    
    72   36   94 1    
    73   37   38 2    
    74   37   39 am   BACKBONE|DICT|INTERRES
    75   39   40 1    
    76   39   95 1    
    77   40   41 1    
    78   40   42 1    
    79   40   96 1    
    80   41   97 1    
    81   41   98 1    
    82   41   99 1    
    83   42   43 2    
    84   42   44 am   BACKBONE|DICT|INTERRES
    85   44   45 1    
    86   44  100 1    
    87   45   46 1    
    88   45   47 1    
    89   45  101 1    
    90   46  102 1    
    91   46  103 1    
    92   46  104 1    
    93   47   48 2    
    94   47   49 am   BACKBONE|DICT|INTERRES
    95   49   50 1    
    96   49  105 1    
    97   50   51 1    
    98   50   52 1    
    99   50  106 1    
   100   51  107 1    
   101   51  108 1    
   102   51  109 1    
   103   52   53 2    
   104   52   54 am   BACKBONE|DICT|INTERRES
   105   54   55 1    
   106   54  110 1    
   107   55   56 1    
   108   55   59 1    
   109   55  111 1    
   110   56   57 am   BACKBONE|DICT|INTERRES
   111   56   58 2    
   112   57  112 1    
   113   57  113 1    
   114   59   60 1    
   115   59  114 1    
   116   59  115 1    
   117   60   61 1    
   118   61  116 1    
   119   61  117 1    
@<TRIPOS>SUBSTRUCTURE
     1 UNK         1 GROUP             0       ****    0 ROOT    
