@<TRIPOS>MOLECULE
3R8
117   119    1
SMALL
USER_CHARGES


@<TRIPOS>ATOM
      1 CA         15.9957  -23.0636  -46.3310 C.3       0 UNK        -0.2013 
      2 C          16.9125  -24.2430  -46.6185 C.2       0 UNK         0.4866 
      3 O          17.6729  -24.2066  -47.5860 O.2       0 UNK        -0.5176 
      4 N          16.8489  -25.2894  -45.7843 N.am      1 UNK        -0.4884 
      5 CA         17.6366  -26.5239  -45.9260 C.3       1 UNK         0.0853 
      6 C6         17.0339  -27.6978  -45.1137 C.3       10 UNK        -0.0849 
      7 S7         15.2404  -27.9580  -45.3796 S.3       10 UNK        -0.2776 
      8 C8         15.0220  -29.7588  -45.1218 C.3       10 UNK         0.0316 
      9 C9         15.9237  -30.3297  -44.0320 C.ar      10 UNK        -0.0863 
     10 C10        16.8126  -31.3656  -44.3359 C.ar      10 UNK        -0.1009 
     11 C11        17.7299  -31.8176  -43.3831 C.ar      10 UNK        -0.0712 
     12 C12        17.7375  -31.2451  -42.1090 C.ar      10 UNK        -0.0894 
     13 C13        16.8625  -30.1989  -41.7988 C.ar      10 UNK        -0.0745 
     14 C14        15.9323  -29.7716  -42.7496 C.ar      10 UNK        -0.0972 
     15 C15        16.9954  -29.4564  -40.4776 C.3       10 UNK         0.0209 
     16 S16        17.9778  -27.9291  -40.6811 S.3       10 UNK        -0.2568 
     17 C17        19.5610  -28.6216  -41.2710 C.3       10 UNK        -0.0983 
     18 CA         20.6963  -27.5960  -41.4746 C.3       3 UNK         0.0876 
     19 N          20.3687  -26.5753  -42.4772 N.am      3 UNK        -0.4424 
     20 C          21.2737  -25.8797  -43.1807 C.2       2 UNK         0.4918 
     21 O          22.4888  -25.9738  -42.9879 O.2       2 UNK        -0.4875 
     22 CA         20.7348  -24.8889  -44.2321 C.3       2 UNK         0.0481 
     23 CB         21.7562  -24.6080  -45.3543 C.3       2 UNK        -0.1831 
     24 N          19.4235  -25.2650  -44.7810 N.am      2 UNK        -0.4498 
     25 C          19.1218  -26.3361  -45.5361 C.2       1 UNK         0.5027 
     26 O          19.9479  -27.1722  -45.9026 O.2       1 UNK        -0.4969 
     27 C          21.2725  -27.0439  -40.1528 C.2       3 UNK         0.5005 
     28 O          21.6977  -27.8293  -39.3064 O.2       3 UNK        -0.5279 
     29 N          21.3475  -25.7117  -40.0151 N.am      4 UNK        -0.4463 
     30 CA         22.1609  -25.0335  -39.0025 C.3       4 UNK         0.0283 
     31 CB         21.8329  -23.5320  -39.0041 C.3       4 UNK        -0.1875 
     32 C          23.6716  -25.2574  -39.2194 C.2       4 UNK         0.4949 
     33 O          24.4203  -25.2807  -38.2426 O.2       4 UNK        -0.5039 
     34 N          24.0831  -25.4326  -40.4841 N.am      5 UNK        -0.4663 
     35 CA         25.4423  -25.7991  -40.8798 C.3       5 UNK         0.0242 
     36 CB         25.8865  -24.9211  -42.0624 C.3       5 UNK        -0.1982 
     37 C          25.5062  -27.2880  -41.2479 C.2       5 UNK         0.5017 
     38 O          26.3449  -28.0123  -40.7104 O.2       5 UNK        -0.5012 
     39 N          24.6092  -27.7298  -42.1411 N.am      6 UNK        -0.4439 
     40 CA         24.5105  -29.1059  -42.6345 C.3       6 UNK         0.0297 
     41 CB         23.8725  -29.0762  -44.0364 C.3       6 UNK        -0.2006 
     42 C          23.7309  -29.9948  -41.6471 C.2       6 UNK         0.4892 
     43 O          22.6407  -30.4616  -41.9772 O.2       6 UNK        -0.5089 
     44 N          24.3008  -30.1822  -40.4483 N.am      7 UNK        -0.4243 
     45 CA         23.6876  -30.7520  -39.2383 C.3       7 UNK         0.0196 
     46 CB         24.7785  -30.9461  -38.1726 C.3       7 UNK        -0.2007 
     47 C          22.8714  -32.0476  -39.4048 C.2       7 UNK         0.5020 
     48 O          21.8727  -32.2171  -38.7045 O.2       7 UNK        -0.5147 
     49 N          23.2994  -32.9306  -40.3134 N.am      8 UNK        -0.4734 
     50 CA         22.6060  -34.1768  -40.6538 C.3       8 UNK         0.0238 
     51 CB         23.3623  -35.3593  -40.0184 C.3       8 UNK        -0.1912 
     52 C          22.4419  -34.3477  -42.1749 C.2       8 UNK         0.5038 
     53 O          22.1780  -35.4651  -42.6231 O.2       8 UNK        -0.5046 
     54 N          22.6097  -33.2599  -42.9426 N.am      9 UNK        -0.4200 
     55 CA         22.6471  -33.2392  -44.4154 C.3       9 UNK         0.0839 
     56 C          23.7708  -34.1442  -45.0145 C.2       9 UNK         0.5513 
     57 N          23.6469  -34.6071  -46.2519 N.am      9 UNK        -0.7519 
     58 O          24.7995  -34.3820  -44.3839 O.2       9 UNK        -0.4960 
     59 C59        21.2377  -33.4351  -45.0480 C.3       10 UNK        -0.0876 
     60 S60        20.1369  -32.0377  -44.6525 S.3       10 UNK        -0.2414 
     61 C61        18.7753  -32.8522  -43.7655 C.3       10 UNK         0.0169 
     62 H62        15.3335  -22.8887  -47.1785 H         1 UNK         0.0903 
     63 H63        15.3787  -23.2316  -45.4484 H         1 UNK         0.0903 
     64 H64        16.5846  -22.1616  -46.1668 H         1 UNK         0.0903 
     65 H65        16.1795  -25.2855  -45.0268 H         1 UNK         0.3096 
     66 H66        17.6230  -26.8075  -46.9811 H         1 UNK         0.1121 
     67 H67        17.5642  -28.6187  -45.3652 H         1 UNK         0.0849 
     68 H68        17.1882  -27.5420  -44.0439 H         1 UNK         0.0849 
     69 H69        13.9807  -29.9581  -44.8656 H         1 UNK         0.0865 
     70 H70        15.2038  -30.2633  -46.0720 H         1 UNK         0.0865 
     71 H71        16.8336  -31.7857  -45.3324 H         1 UNK         0.1346 
     72 H72        18.4758  -31.5614  -41.3847 H         1 UNK         0.1412 
     73 H73        15.2719  -28.9462  -42.5198 H         1 UNK         0.1426 
     74 H74        17.4624  -30.0915  -39.7231 H         1 UNK         0.0716 
     75 H75        16.0065  -29.1987  -40.0956 H         1 UNK         0.0716 
     76 H76        19.3824  -29.1100  -42.2296 H         1 UNK         0.0695 
     77 H77        19.8792  -29.4145  -40.5908 H         1 UNK         0.0695 
     78 H78        21.5215  -28.1631  -41.9029 H         1 UNK         0.0983 
     79 H79        19.3866  -26.4301  -42.6591 H         1 UNK         0.3095 
     80 H80        20.5748  -23.9508  -43.6992 H         1 UNK         0.0454 
     81 H81        22.0427  -25.5187  -45.8808 H         1 UNK         0.0851 
     82 H82        22.6697  -24.1694  -44.9509 H         1 UNK         0.0851 
     83 H83        21.3585  -23.9066  -46.0875 H         1 UNK         0.0851 
     84 H84        18.6592  -24.6448  -44.5506 H         1 UNK         0.2976 
     85 H85        20.9414  -25.1368  -40.7383 H         1 UNK         0.3116 
     86 H86        21.8988  -25.4423  -38.0242 H         1 UNK         0.0646 
     87 H87        22.0668  -23.0659  -39.9621 H         1 UNK         0.0847 
     88 H88        22.4082  -23.0082  -38.2393 H         1 UNK         0.0847 
     89 H89        20.7786  -23.3548  -38.7910 H         1 UNK         0.0847 
     90 H90        23.3917  -25.4161  -41.2248 H         1 UNK         0.3040 
     91 H91        26.1385  -25.6307  -40.0548 H         1 UNK         0.1015 
     92 H92        25.2219  -25.0219  -42.9216 H         1 UNK         0.0786 
     93 H93        26.8910  -25.1898  -42.3921 H         1 UNK         0.0786 
     94 H94        25.9093  -23.8678  -41.7823 H         1 UNK         0.0786 
     95 H95        23.9296  -27.0713  -42.5139 H         1 UNK         0.3172 
     96 H96        25.5145  -29.5237  -42.7355 H         1 UNK         0.0595 
     97 H97        22.8518  -28.6915  -44.0138 H         1 UNK         0.0839 
     98 H98        23.8344  -30.0754  -44.4688 H         1 UNK         0.0839 
     99 H99        24.4475  -28.4524  -44.7208 H         1 UNK         0.0839 
    100 H100       25.1930  -29.7205  -40.3084 H         1 UNK         0.2998 
    101 H101       22.9921  -30.0003  -38.8644 H         1 UNK         0.0822 
    102 H102       25.2656  -30.0021  -37.9267 H         1 UNK         0.0787 
    103 H103       24.3573  -31.3409  -37.2467 H         1 UNK         0.0787 
    104 H104       25.5467  -31.6447  -38.5061 H         1 UNK         0.0787 
    105 H105       24.1338  -32.7153  -40.8416 H         1 UNK         0.3055 
    106 H106       21.5906  -34.1658  -40.2512 H         1 UNK         0.1106 
    107 H107       22.8438  -36.3023  -40.1964 H         1 UNK         0.0828 
    108 H108       24.3692  -35.4571  -40.4258 H         1 UNK         0.0828 
    109 H109       23.4472  -35.2400  -38.9382 H         1 UNK         0.0828 
    110 H110       22.7279  -32.3577  -42.4926 H         1 UNK         0.2931 
    111 H111       22.9725  -32.2311  -44.6698 H         1 UNK         0.0412 
    112 H112       22.8326  -34.4082  -46.8106 H         1 UNK         0.3472 
    113 H113       24.3897  -35.1704  -46.6365 H         1 UNK         0.3472 
    114 H114       20.7938  -34.3799  -44.7305 H         1 UNK         0.0970 
    115 H115       21.2907  -33.4742  -46.1360 H         1 UNK         0.0970 
    116 H116       18.3290  -33.6201  -44.3992 H         1 UNK         0.0612 
    117 H117       19.1661  -33.3561  -42.8799 H         1 UNK         0.0612 
@<TRIPOS>BOND
     1    1    2 1    
     2    1   62 1    
     3    1   63 1    
     4    1   64 1    
     5    2    3 2    
     6    2    4 am   BACKBONE|DICT|INTERRES
     7    4    5 1    
     8    4   65 1    
     9    5    6 1    
    10    5   25 1    
    11    5   66 1    
    12    6    7 1    
    13    6   67 1    
    14    6   68 1    
    15    7    8 1    
    16    8    9 1    
    17    8   69 1    
    18    8   70 1    
    19    9   10 ar   
    20    9   14 ar   
    21   10   11 ar   
    22   10   71 1    
    23   11   12 ar   
    24   11   61 1    
    25   12   13 ar   
    26   12   72 1    
    27   13   14 ar   
    28   13   15 1    
    29   14   73 1    
    30   15   16 1    
    31   15   74 1    
    32   15   75 1    
    33   16   17 1    
    34   17   18 1    
    35   17   76 1    
    36   17   77 1    
    37   18   19 1    
    38   18   27 1    
    39   18   78 1    
    40   19   20 am   BACKBONE|DICT|INTERRES
    41   19   79 1    
    42   20   21 2    
    43   20   22 1    
    44   22   23 1    
    45   22   24 1    
    46   22   80 1    
    47   23   81 1    
    48   23   82 1    
    49   23   83 1    
    50   24   25 am   BACKBONE|DICT|INTERRES
    51   24   84 1    
    52   25   26 2    
    53   27   28 2    
    54   27   29 am   BACKBONE|DICT|INTERRES
    55   29   30 1    
    56   29   85 1    
    57   30   31 1    
    58   30   32 1    
    59   30   86 1    
    60   31   87 1    
    61   31   88 1    
    62   31   89 1    
    63   32   33 2    
    64   32   34 am   BACKBONE|DICT|INTERRES
    65   34   35 1    
    66   34   90 1    
    67   35   36 1    
    68   35   37 1    
    69   35   91 1    
    70   36   92 1    
    71   36   93 1    
    72   36   94 1    
    73   37   38 2    
    74   37   39 am   BACKBONE|DICT|INTERRES
    75   39   40 1    
    76   39   95 1    
    77   40   41 1    
    78   40   42 1    
    79   40   96 1    
    80   41   97 1    
    81   41   98 1    
    82   41   99 1    
    83   42   43 2    
    84   42   44 am   BACKBONE|DICT|INTERRES
    85   44   45 1    
    86   44  100 1    
    87   45   46 1    
    88   45   47 1    
    89   45  101 1    
    90   46  102 1    
    91   46  103 1    
    92   46  104 1    
    93   47   48 2    
    94   47   49 am   BACKBONE|DICT|INTERRES
    95   49   50 1    
    96   49  105 1    
    97   50   51 1    
    98   50   52 1    
    99   50  106 1    
   100   51  107 1    
   101   51  108 1    
   102   51  109 1    
   103   52   53 2    
   104   52   54 am   BACKBONE|DICT|INTERRES
   105   54   55 1    
   106   54  110 1    
   107   55   56 1    
   108   55   59 1    
   109   55  111 1    
   110   56   57 am   BACKBONE|DICT|INTERRES
   111   56   58 2    
   112   57  112 1    
   113   57  113 1    
   114   59   60 1    
   115   59  114 1    
   116   59  115 1    
   117   60   61 1    
   118   61  116 1    
   119   61  117 1    
@<TRIPOS>SUBSTRUCTURE
     1 UNK         1 GROUP             0       ****    0 ROOT    
