@<TRIPOS>MOLECULE
3R8
117   119    1
SMALL
USER_CHARGES


@<TRIPOS>ATOM
      1 CA         23.6021  -24.9685  -47.0717 C.3       0 UNK        -0.2013 
      2 C          22.1096  -25.2632  -47.1020 C.2       0 UNK         0.4866 
      3 O          21.4220  -24.8093  -48.0160 O.2       0 UNK        -0.5176 
      4 N          21.6246  -26.0198  -46.1071 N.am      1 UNK        -0.4884 
      5 CA         20.2326  -26.4411  -45.8851 C.3       1 UNK         0.0853 
      6 C6         19.7527  -27.4525  -46.9628 C.3       10 UNK        -0.0849 
      7 S7         20.7038  -29.0119  -46.9156 S.3       10 UNK        -0.2776 
      8 C8         19.3829  -30.2666  -46.9581 C.3       10 UNK         0.0316 
      9 C9         18.6301  -30.3516  -45.6381 C.ar      10 UNK        -0.0863 
     10 C10        19.1865  -31.0437  -44.5597 C.ar      10 UNK        -0.1009 
     11 C11        18.5043  -31.1302  -43.3428 C.ar      10 UNK        -0.0712 
     12 C12        17.2489  -30.5301  -43.2099 C.ar      10 UNK        -0.0894 
     13 C13        16.6895  -29.8219  -44.2782 C.ar      10 UNK        -0.0745 
     14 C14        17.3779  -29.7473  -45.4926 C.ar      10 UNK        -0.0972 
     15 C15        15.3513  -29.1167  -44.1227 C.3       10 UNK         0.0209 
     16 S16        15.5767  -27.3384  -43.7965 S.3       10 UNK        -0.2568 
     17 C17        16.1009  -27.3387  -42.0483 C.3       10 UNK        -0.0983 
     18 CA         17.6375  -27.2624  -41.8719 C.3       3 UNK         0.0876 
     19 N          18.2224  -26.0856  -42.5189 N.am      3 UNK        -0.4424 
     20 C          19.5339  -25.8284  -42.5928 C.2       2 UNK         0.4918 
     21 O          20.4021  -26.5706  -42.1293 O.2       2 UNK        -0.4875 
     22 CA         19.9295  -24.5521  -43.3555 C.3       2 UNK         0.0481 
     23 CB         21.4523  -24.3178  -43.4413 C.3       2 UNK        -0.1831 
     24 N          19.2670  -24.4386  -44.6648 N.am      2 UNK        -0.4498 
     25 C          19.2729  -25.2263  -45.7574 C.2       1 UNK         0.5027 
     26 O          18.5194  -24.9680  -46.6961 O.2       1 UNK        -0.4969 
     27 C          18.0155  -27.3214  -40.3783 C.2       3 UNK         0.5005 
     28 O          17.8111  -26.3384  -39.6630 O.2       3 UNK        -0.5279 
     29 N          18.5879  -28.4593  -39.9606 N.am      4 UNK        -0.4463 
     30 CA         19.1422  -28.7670  -38.6341 C.3       4 UNK         0.0283 
     31 CB         18.0869  -28.5999  -37.5204 C.3       4 UNK        -0.1875 
     32 C          20.4592  -28.0353  -38.2977 C.2       4 UNK         0.4949 
     33 O          20.9976  -28.2659  -37.2143 O.2       4 UNK        -0.5039 
     34 N          20.9714  -27.1967  -39.2090 N.am      5 UNK        -0.4663 
     35 CA         22.2303  -26.4617  -39.0572 C.3       5 UNK         0.0242 
     36 CB         21.9726  -24.9682  -39.3139 C.3       5 UNK        -0.1982 
     37 C          23.3254  -26.9912  -39.9968 C.2       5 UNK         0.5017 
     38 O          24.5031  -26.9032  -39.6462 O.2       5 UNK        -0.5012 
     39 N          22.9335  -27.5188  -41.1656 N.am      6 UNK        -0.4439 
     40 CA         23.8190  -28.1193  -42.1644 C.3       6 UNK         0.0297 
     41 CB         22.9968  -28.4511  -43.4219 C.3       6 UNK        -0.2006 
     42 C          24.5131  -29.3905  -41.6489 C.2       6 UNK         0.4892 
     43 O          23.9222  -30.1448  -40.8735 O.2       6 UNK        -0.5089 
     44 N          25.7278  -29.6466  -42.1557 N.am      7 UNK        -0.4243 
     45 CA         26.5142  -30.8559  -41.8740 C.3       7 UNK         0.0196 
     46 CB         27.9050  -30.7212  -42.5140 C.3       7 UNK        -0.2007 
     47 C          25.8300  -32.1552  -42.3388 C.2       7 UNK         0.5020 
     48 O          26.0496  -33.2072  -41.7380 O.2       7 UNK        -0.5147 
     49 N          24.9729  -32.0473  -43.3648 N.am      8 UNK        -0.4734 
     50 CA         24.0996  -33.1118  -43.8672 C.3       8 UNK         0.0238 
     51 CB         23.3696  -32.6039  -45.1225 C.3       8 UNK        -0.1912 
     52 C          23.0796  -33.6264  -42.8333 C.2       8 UNK         0.5038 
     53 O          22.6133  -34.7579  -42.9723 O.2       8 UNK        -0.5046 
     54 N          22.7554  -32.8038  -41.8265 N.am      9 UNK        -0.4200 
     55 CA         21.8590  -33.1518  -40.7159 C.3       9 UNK         0.0839 
     56 C          22.5470  -33.9688  -39.5839 C.2       9 UNK         0.5513 
     57 N          23.8542  -34.2052  -39.6229 N.am      9 UNK        -0.7519 
     58 O          21.8761  -34.4075  -38.6533 O.2       9 UNK        -0.4960 
     59 C59        21.1214  -31.9083  -40.1456 C.3       10 UNK        -0.0876 
     60 S60        20.4182  -30.7995  -41.4146 S.3       10 UNK        -0.2414 
     61 C61        19.1452  -31.8511  -42.1708 C.3       10 UNK         0.0169 
     62 H62        24.0775  -25.3498  -47.9751 H         1 UNK         0.0903 
     63 H63        23.7707  -23.8929  -47.0261 H         1 UNK         0.0903 
     64 H64        24.0937  -25.4245  -46.2124 H         1 UNK         0.0903 
     65 H65        22.2766  -26.3625  -45.4183 H         1 UNK         0.3096 
     66 H66        20.2105  -26.9761  -44.9375 H         1 UNK         0.1121 
     67 H67        19.8367  -27.0268  -47.9641 H         1 UNK         0.0849 
     68 H68        18.6944  -27.6739  -46.8248 H         1 UNK         0.0849 
     69 H69        18.7008  -30.0530  -47.7826 H         1 UNK         0.0865 
     70 H70        19.8291  -31.2370  -47.1809 H         1 UNK         0.0865 
     71 H71        20.1609  -31.5021  -44.6609 H         1 UNK         0.1346 
     72 H72        16.7199  -30.5908  -42.2687 H         1 UNK         0.1412 
     73 H73        16.9399  -29.2050  -46.3195 H         1 UNK         0.1426 
     74 H74        14.7581  -29.5713  -43.3277 H         1 UNK         0.0716 
     75 H75        14.7704  -29.2345  -45.0387 H         1 UNK         0.0716 
     76 H76        15.7013  -28.2285  -41.5582 H         1 UNK         0.0695 
     77 H77        15.6216  -26.4881  -41.5595 H         1 UNK         0.0695 
     78 H78        18.0837  -28.1250  -42.3679 H         1 UNK         0.0983 
     79 H79        17.5686  -25.4352  -42.9289 H         1 UNK         0.3095 
     80 H80        19.5252  -23.7249  -42.7703 H         1 UNK         0.0454 
     81 H81        22.0100  -25.2239  -43.6655 H         1 UNK         0.0851 
     82 H82        21.8344  -23.9544  -42.4879 H         1 UNK         0.0851 
     83 H83        21.7049  -23.5676  -44.1905 H         1 UNK         0.0851 
     84 H84        18.6336  -23.6532  -44.7153 H         1 UNK         0.2976 
     85 H85        18.7584  -29.1811  -40.6504 H         1 UNK         0.3116 
     86 H86        19.3997  -29.8261  -38.6684 H         1 UNK         0.0646 
     87 H87        17.8367  -27.5530  -37.3478 H         1 UNK         0.0847 
     88 H88        18.4533  -29.0004  -36.5744 H         1 UNK         0.0847 
     89 H89        17.1666  -29.1320  -37.7602 H         1 UNK         0.0847 
     90 H90        20.4726  -27.0629  -40.0803 H         1 UNK         0.3040 
     91 H91        22.6111  -26.5636  -38.0385 H         1 UNK         0.1015 
     92 H92        21.5597  -24.7945  -40.3066 H         1 UNK         0.0786 
     93 H93        22.8950  -24.3910  -39.2352 H         1 UNK         0.0786 
     94 H94        21.2712  -24.5598  -38.5862 H         1 UNK         0.0786 
     95 H95        21.9474  -27.4910  -41.4003 H         1 UNK         0.3172 
     96 H96        24.5789  -27.3793  -42.4233 H         1 UNK         0.0595 
     97 H97        23.6322  -28.8264  -44.2249 H         1 UNK         0.0839 
     98 H98        22.4812  -27.5723  -43.8020 H         1 UNK         0.0839 
     99 H99        22.2416  -29.2126  -43.2222 H         1 UNK         0.0839 
    100 H100       26.1399  -28.9784  -42.7916 H         1 UNK         0.2998 
    101 H101       26.6382  -30.9248  -40.7910 H         1 UNK         0.0822 
    102 H102       28.5194  -31.5968  -42.2989 H         1 UNK         0.0787 
    103 H103       27.8438  -30.6250  -43.5989 H         1 UNK         0.0787 
    104 H104       28.4379  -29.8519  -42.1279 H         1 UNK         0.0787 
    105 H105       24.8702  -31.1401  -43.7945 H         1 UNK         0.3055 
    106 H106       24.7309  -33.9581  -44.1469 H         1 UNK         0.1106 
    107 H107       22.7204  -33.3766  -45.5370 H         1 UNK         0.0828 
    108 H108       22.7440  -31.7371  -44.9039 H         1 UNK         0.0828 
    109 H109       24.0731  -32.3220  -45.9060 H         1 UNK         0.0828 
    110 H110       23.1956  -31.8932  -41.7588 H         1 UNK         0.2931 
    111 H111       21.0910  -33.8173  -41.1127 H         1 UNK         0.0412 
    112 H112       24.4241  -33.8540  -40.3817 H         1 UNK         0.3472 
    113 H113       24.2797  -34.7404  -38.8825 H         1 UNK         0.3472 
    114 H114       21.8074  -31.3102  -39.5425 H         1 UNK         0.0970 
    115 H115       20.3200  -32.2173  -39.4720 H         1 UNK         0.0970 
    116 H116       19.5914  -32.7807  -42.5251 H         1 UNK         0.0612 
    117 H117       18.4002  -32.1220  -41.4211 H         1 UNK         0.0612 
@<TRIPOS>BOND
     1    1    2 1    
     2    1   62 1    
     3    1   63 1    
     4    1   64 1    
     5    2    3 2    
     6    2    4 am   BACKBONE|DICT|INTERRES
     7    4    5 1    
     8    4   65 1    
     9    5    6 1    
    10    5   25 1    
    11    5   66 1    
    12    6    7 1    
    13    6   67 1    
    14    6   68 1    
    15    7    8 1    
    16    8    9 1    
    17    8   69 1    
    18    8   70 1    
    19    9   10 ar   
    20    9   14 ar   
    21   10   11 ar   
    22   10   71 1    
    23   11   12 ar   
    24   11   61 1    
    25   12   13 ar   
    26   12   72 1    
    27   13   14 ar   
    28   13   15 1    
    29   14   73 1    
    30   15   16 1    
    31   15   74 1    
    32   15   75 1    
    33   16   17 1    
    34   17   18 1    
    35   17   76 1    
    36   17   77 1    
    37   18   19 1    
    38   18   27 1    
    39   18   78 1    
    40   19   20 am   BACKBONE|DICT|INTERRES
    41   19   79 1    
    42   20   21 2    
    43   20   22 1    
    44   22   23 1    
    45   22   24 1    
    46   22   80 1    
    47   23   81 1    
    48   23   82 1    
    49   23   83 1    
    50   24   25 am   BACKBONE|DICT|INTERRES
    51   24   84 1    
    52   25   26 2    
    53   27   28 2    
    54   27   29 am   BACKBONE|DICT|INTERRES
    55   29   30 1    
    56   29   85 1    
    57   30   31 1    
    58   30   32 1    
    59   30   86 1    
    60   31   87 1    
    61   31   88 1    
    62   31   89 1    
    63   32   33 2    
    64   32   34 am   BACKBONE|DICT|INTERRES
    65   34   35 1    
    66   34   90 1    
    67   35   36 1    
    68   35   37 1    
    69   35   91 1    
    70   36   92 1    
    71   36   93 1    
    72   36   94 1    
    73   37   38 2    
    74   37   39 am   BACKBONE|DICT|INTERRES
    75   39   40 1    
    76   39   95 1    
    77   40   41 1    
    78   40   42 1    
    79   40   96 1    
    80   41   97 1    
    81   41   98 1    
    82   41   99 1    
    83   42   43 2    
    84   42   44 am   BACKBONE|DICT|INTERRES
    85   44   45 1    
    86   44  100 1    
    87   45   46 1    
    88   45   47 1    
    89   45  101 1    
    90   46  102 1    
    91   46  103 1    
    92   46  104 1    
    93   47   48 2    
    94   47   49 am   BACKBONE|DICT|INTERRES
    95   49   50 1    
    96   49  105 1    
    97   50   51 1    
    98   50   52 1    
    99   50  106 1    
   100   51  107 1    
   101   51  108 1    
   102   51  109 1    
   103   52   53 2    
   104   52   54 am   BACKBONE|DICT|INTERRES
   105   54   55 1    
   106   54  110 1    
   107   55   56 1    
   108   55   59 1    
   109   55  111 1    
   110   56   57 am   BACKBONE|DICT|INTERRES
   111   56   58 2    
   112   57  112 1    
   113   57  113 1    
   114   59   60 1    
   115   59  114 1    
   116   59  115 1    
   117   60   61 1    
   118   61  116 1    
   119   61  117 1    
@<TRIPOS>SUBSTRUCTURE
     1 UNK         1 GROUP             0       ****    0 ROOT    
