@<TRIPOS>MOLECULE
3R8
117   119    1
SMALL
USER_CHARGES


@<TRIPOS>ATOM
      1 CA         15.5678  -25.1847  -48.7258 C.3       0 UNK        -0.2013 
      2 C          17.0362  -25.2190  -48.3292 C.2       0 UNK         0.4866 
      3 O          17.9027  -24.9443  -49.1601 O.2       0 UNK        -0.5176 
      4 N          17.3225  -25.5494  -47.0673 N.am      1 UNK        -0.4884 
      5 CA         18.6652  -25.6373  -46.4956 C.3       1 UNK         0.0853 
      6 C6         19.3917  -26.9630  -46.8603 C.3       10 UNK        -0.0849 
      7 S7         18.4577  -28.4783  -46.4335 S.3       10 UNK        -0.2776 
      8 C8         19.4109  -29.0928  -45.0136 C.3       10 UNK         0.0316 
      9 C9         18.5500  -29.9573  -44.1079 C.ar      10 UNK        -0.0863 
     10 C10        18.4386  -31.3325  -44.3298 C.ar      10 UNK        -0.1009 
     11 C11        17.6883  -32.1295  -43.4600 C.ar      10 UNK        -0.0712 
     12 C12        17.0439  -31.5374  -42.3697 C.ar      10 UNK        -0.0894 
     13 C13        17.1263  -30.1595  -42.1443 C.ar      10 UNK        -0.0745 
     14 C14        17.8740  -29.3749  -43.0326 C.ar      10 UNK        -0.0972 
     15 C15        16.3636  -29.5769  -40.9513 C.3       10 UNK         0.0209 
     16 S16        16.7197  -27.8327  -40.5391 S.3       10 UNK        -0.2568 
     17 C17        18.3075  -27.9469  -39.6406 C.3       10 UNK        -0.0983 
     18 CA         19.5503  -27.5530  -40.4833 C.3       3 UNK         0.0876 
     19 N          19.3304  -26.3275  -41.2630 N.am      3 UNK        -0.4424 
     20 C          20.1582  -25.8388  -42.1929 C.2       2 UNK         0.4918 
     21 O          21.2622  -26.3193  -42.4581 O.2       2 UNK        -0.4875 
     22 CA         19.6797  -24.5846  -42.9349 C.3       2 UNK         0.0481 
     23 CB         20.6157  -23.3939  -42.6743 C.3       2 UNK        -0.1831 
     24 N          19.6076  -24.8486  -44.3713 N.am      2 UNK        -0.4498 
     25 C          18.5523  -25.4070  -44.9779 C.2       1 UNK         0.5027 
     26 O          17.5148  -25.7261  -44.3890 O.2       1 UNK        -0.4969 
     27 C          20.7990  -27.4733  -39.5796 C.2       3 UNK         0.5005 
     28 O          21.4510  -28.4917  -39.3540 O.2       3 UNK        -0.5279 
     29 N          21.1072  -26.2655  -39.0833 N.am      4 UNK        -0.4463 
     30 CA         22.2769  -25.9812  -38.2491 C.3       4 UNK         0.0283 
     31 CB         22.0393  -24.6750  -37.4738 C.3       4 UNK        -0.1875 
     32 C          23.5877  -25.8942  -39.0507 C.2       4 UNK         0.4949 
     33 O          24.6496  -26.1573  -38.4862 O.2       4 UNK        -0.5039 
     34 N          23.5025  -25.5091  -40.3326 N.am      5 UNK        -0.4663 
     35 CA         24.6542  -25.4097  -41.2338 C.3       5 UNK         0.0242 
     36 CB         24.3591  -24.3844  -42.3396 C.3       5 UNK        -0.1982 
     37 C          25.0117  -26.7692  -41.8513 C.2       5 UNK         0.5017 
     38 O          26.1939  -27.0493  -42.0540 O.2       5 UNK        -0.5012 
     39 N          23.9852  -27.5777  -42.1468 N.am      6 UNK        -0.4439 
     40 CA         24.1050  -28.9337  -42.6776 C.3       6 UNK         0.0297 
     41 CB         22.7029  -29.4326  -43.0633 C.3       6 UNK        -0.2006 
     42 C          24.7555  -29.9005  -41.6731 C.2       6 UNK         0.4892 
     43 O          24.5518  -29.7699  -40.4637 O.2       6 UNK        -0.5089 
     44 N          25.4817  -30.8954  -42.1982 N.am      7 UNK        -0.4243 
     45 CA         26.0128  -32.0289  -41.4380 C.3       7 UNK         0.0196 
     46 CB         27.1930  -32.6453  -42.2113 C.3       7 UNK        -0.2007 
     47 C          24.8777  -33.0367  -41.1984 C.2       7 UNK         0.5020 
     48 O          24.7500  -34.0053  -41.9508 O.2       7 UNK        -0.5147 
     49 N          24.0087  -32.7181  -40.2295 N.am      8 UNK        -0.4734 
     50 CA         22.6886  -33.3065  -39.9638 C.3       8 UNK         0.0238 
     51 CB         22.7661  -34.8111  -39.6270 C.3       8 UNK        -0.1912 
     52 C          21.7036  -32.9973  -41.1043 C.2       8 UNK         0.5038 
     53 O          20.8108  -32.1718  -40.9162 O.2       8 UNK        -0.5046 
     54 N          21.9275  -33.6232  -42.2647 N.am      9 UNK        -0.4200 
     55 CA         21.2718  -33.3254  -43.5449 C.3       9 UNK         0.0839 
     56 C          22.2844  -33.0420  -44.6912 C.2       9 UNK         0.5513 
     57 N          23.5929  -33.1602  -44.4901 N.am      9 UNK        -0.7519 
     58 O          21.8724  -32.6808  -45.7899 O.2       9 UNK        -0.4960 
     59 C59        20.2550  -34.4224  -43.9608 C.3       10 UNK        -0.0876 
     60 S60        18.8385  -34.5764  -42.8208 S.3       10 UNK        -0.2414 
     61 C61        17.5540  -33.6273  -43.6975 C.3       10 UNK         0.0169 
     62 H62        14.9151  -25.4522  -47.8950 H         1 UNK         0.0903 
     63 H63        15.2934  -24.1863  -49.0652 H         1 UNK         0.0903 
     64 H64        15.3832  -25.8848  -49.5402 H         1 UNK         0.0903 
     65 H65        16.5876  -25.7448  -46.3975 H         1 UNK         0.3096 
     66 H66        19.2508  -24.8063  -46.8964 H         1 UNK         0.1121 
     67 H67        20.3848  -26.9941  -46.4084 H         1 UNK         0.0849 
     68 H68        19.5697  -26.9859  -47.9364 H         1 UNK         0.0849 
     69 H69        20.2730  -29.6581  -45.3719 H         1 UNK         0.0865 
     70 H70        19.8100  -28.2542  -44.4403 H         1 UNK         0.0865 
     71 H71        18.9467  -31.7831  -45.1716 H         1 UNK         0.1346 
     72 H72        16.4650  -32.1552  -41.6965 H         1 UNK         0.1412 
     73 H73        17.9403  -28.3047  -42.8999 H         1 UNK         0.1426 
     74 H74        16.5389  -30.1917  -40.0671 H         1 UNK         0.0716 
     75 H75        15.2974  -29.6536  -41.1679 H         1 UNK         0.0716 
     76 H76        18.4275  -28.9573  -39.2452 H         1 UNK         0.0695 
     77 H77        18.2183  -27.2949  -38.7692 H         1 UNK         0.0695 
     78 H78        19.7416  -28.3559  -41.1981 H         1 UNK         0.0983 
     79 H79        18.4314  -25.8858  -41.1297 H         1 UNK         0.3095 
     80 H80        18.6892  -24.3081  -42.5661 H         1 UNK         0.0454 
     81 H81        21.6039  -23.5503  -43.1037 H         1 UNK         0.0851 
     82 H82        20.7450  -23.2188  -41.6055 H         1 UNK         0.0851 
     83 H83        20.2120  -22.4769  -43.1037 H         1 UNK         0.0851 
     84 H84        20.4411  -24.6500  -44.9064 H         1 UNK         0.2976 
     85 H85        20.4995  -25.4894  -39.3026 H         1 UNK         0.3116 
     86 H86        22.3884  -26.7897  -37.5231 H         1 UNK         0.0646 
     87 H87        21.9133  -23.8226  -38.1426 H         1 UNK         0.0847 
     88 H88        22.8832  -24.4519  -36.8194 H         1 UNK         0.0847 
     89 H89        21.1530  -24.7424  -36.8426 H         1 UNK         0.0847 
     90 H90        22.5902  -25.3484  -40.7345 H         1 UNK         0.3040 
     91 H91        25.5208  -25.0583  -40.6685 H         1 UNK         0.1015 
     92 H92        23.5728  -24.7321  -43.0099 H         1 UNK         0.0786 
     93 H93        25.2463  -24.2093  -42.9495 H         1 UNK         0.0786 
     94 H94        24.0555  -23.4229  -41.9252 H         1 UNK         0.0786 
     95 H95        23.0449  -27.2401  -41.9758 H         1 UNK         0.3172 
     96 H96        24.7223  -28.8887  -43.5771 H         1 UNK         0.0595 
     97 H97        22.0450  -29.5000  -42.1948 H         1 UNK         0.0839 
     98 H98        22.7505  -30.4239  -43.5116 H         1 UNK         0.0839 
     99 H99        22.2330  -28.7701  -43.7899 H         1 UNK         0.0839 
    100 H100       25.5770  -30.9471  -43.2025 H         1 UNK         0.2998 
    101 H101       26.3835  -31.6845  -40.4698 H         1 UNK         0.0822 
    102 H102       28.0056  -31.9282  -42.3292 H         1 UNK         0.0787 
    103 H103       27.5968  -33.5082  -41.6801 H         1 UNK         0.0787 
    104 H104       26.8988  -32.9835  -43.2058 H         1 UNK         0.0787 
    105 H105       24.1763  -31.8343  -39.7599 H         1 UNK         0.3055 
    106 H106       22.3051  -32.7974  -39.0775 H         1 UNK         0.1106 
    107 H107       21.7781  -35.2007  -39.3783 H         1 UNK         0.0828 
    108 H108       23.1485  -35.4113  -40.4522 H         1 UNK         0.0828 
    109 H109       23.4086  -34.9872  -38.7645 H         1 UNK         0.0828 
    110 H110       22.7363  -34.2309  -42.3127 H         1 UNK         0.2931 
    111 H111       20.7305  -32.3863  -43.4348 H         1 UNK         0.0412 
    112 H112       23.9760  -33.4717  -43.6042 H         1 UNK         0.3472 
    113 H113       24.2141  -32.9733  -45.2610 H         1 UNK         0.3472 
    114 H114       20.7543  -35.3915  -44.0121 H         1 UNK         0.0970 
    115 H115       19.8716  -34.2380  -44.9658 H         1 UNK         0.0970 
    116 H116       17.5794  -33.8513  -44.7648 H         1 UNK         0.0612 
    117 H117       16.5779  -33.9652  -43.3462 H         1 UNK         0.0612 
@<TRIPOS>BOND
     1    1    2 1    
     2    1   62 1    
     3    1   63 1    
     4    1   64 1    
     5    2    3 2    
     6    2    4 am   BACKBONE|DICT|INTERRES
     7    4    5 1    
     8    4   65 1    
     9    5    6 1    
    10    5   25 1    
    11    5   66 1    
    12    6    7 1    
    13    6   67 1    
    14    6   68 1    
    15    7    8 1    
    16    8    9 1    
    17    8   69 1    
    18    8   70 1    
    19    9   10 ar   
    20    9   14 ar   
    21   10   11 ar   
    22   10   71 1    
    23   11   12 ar   
    24   11   61 1    
    25   12   13 ar   
    26   12   72 1    
    27   13   14 ar   
    28   13   15 1    
    29   14   73 1    
    30   15   16 1    
    31   15   74 1    
    32   15   75 1    
    33   16   17 1    
    34   17   18 1    
    35   17   76 1    
    36   17   77 1    
    37   18   19 1    
    38   18   27 1    
    39   18   78 1    
    40   19   20 am   BACKBONE|DICT|INTERRES
    41   19   79 1    
    42   20   21 2    
    43   20   22 1    
    44   22   23 1    
    45   22   24 1    
    46   22   80 1    
    47   23   81 1    
    48   23   82 1    
    49   23   83 1    
    50   24   25 am   BACKBONE|DICT|INTERRES
    51   24   84 1    
    52   25   26 2    
    53   27   28 2    
    54   27   29 am   BACKBONE|DICT|INTERRES
    55   29   30 1    
    56   29   85 1    
    57   30   31 1    
    58   30   32 1    
    59   30   86 1    
    60   31   87 1    
    61   31   88 1    
    62   31   89 1    
    63   32   33 2    
    64   32   34 am   BACKBONE|DICT|INTERRES
    65   34   35 1    
    66   34   90 1    
    67   35   36 1    
    68   35   37 1    
    69   35   91 1    
    70   36   92 1    
    71   36   93 1    
    72   36   94 1    
    73   37   38 2    
    74   37   39 am   BACKBONE|DICT|INTERRES
    75   39   40 1    
    76   39   95 1    
    77   40   41 1    
    78   40   42 1    
    79   40   96 1    
    80   41   97 1    
    81   41   98 1    
    82   41   99 1    
    83   42   43 2    
    84   42   44 am   BACKBONE|DICT|INTERRES
    85   44   45 1    
    86   44  100 1    
    87   45   46 1    
    88   45   47 1    
    89   45  101 1    
    90   46  102 1    
    91   46  103 1    
    92   46  104 1    
    93   47   48 2    
    94   47   49 am   BACKBONE|DICT|INTERRES
    95   49   50 1    
    96   49  105 1    
    97   50   51 1    
    98   50   52 1    
    99   50  106 1    
   100   51  107 1    
   101   51  108 1    
   102   51  109 1    
   103   52   53 2    
   104   52   54 am   BACKBONE|DICT|INTERRES
   105   54   55 1    
   106   54  110 1    
   107   55   56 1    
   108   55   59 1    
   109   55  111 1    
   110   56   57 am   BACKBONE|DICT|INTERRES
   111   56   58 2    
   112   57  112 1    
   113   57  113 1    
   114   59   60 1    
   115   59  114 1    
   116   59  115 1    
   117   60   61 1    
   118   61  116 1    
   119   61  117 1    
@<TRIPOS>SUBSTRUCTURE
     1 UNK         1 GROUP             0       ****    0 ROOT    
