@<TRIPOS>MOLECULE
3R8
117   119    1
SMALL
USER_CHARGES


@<TRIPOS>ATOM
      1 CA         19.3171  -24.3520  -49.1420 C.3       0 UNK        -0.2013 
      2 C          19.7538  -25.6574  -48.4945 C.2       0 UNK         0.4866 
      3 O          20.8391  -26.1554  -48.7934 O.2       0 UNK        -0.5176 
      4 N          18.9183  -26.2144  -47.6065 N.am      1 UNK        -0.4884 
      5 CA         19.1799  -27.4701  -46.8858 C.3       1 UNK         0.0853 
      6 C6         17.8576  -28.1220  -46.3993 C.3       10 UNK        -0.0849 
      7 S7         17.9064  -29.9388  -46.5319 S.3       10 UNK        -0.2776 
      8 C8         16.6272  -30.4265  -45.3320 C.3       10 UNK         0.0316 
      9 C9         17.0733  -30.2393  -43.8875 C.ar      10 UNK        -0.0863 
     10 C10        18.1588  -30.9644  -43.3896 C.ar      10 UNK        -0.1009 
     11 C11        18.5406  -30.8488  -42.0505 C.ar      10 UNK        -0.0712 
     12 C12        17.8192  -30.0031  -41.2016 C.ar      10 UNK        -0.0894 
     13 C13        16.7368  -29.2604  -41.6885 C.ar      10 UNK        -0.0745 
     14 C14        16.3735  -29.3806  -43.0344 C.ar      10 UNK        -0.0972 
     15 C15        15.9163  -28.3692  -40.7606 C.3       10 UNK         0.0209 
     16 S16        16.9190  -27.2048  -39.7788 S.3       10 UNK        -0.2568 
     17 C17        17.6697  -26.1463  -41.0629 C.3       10 UNK        -0.0983 
     18 CA         19.2074  -26.3253  -41.1319 C.3       3 UNK         0.0876 
     19 N          19.7263  -25.9806  -42.4590 N.am      3 UNK        -0.4424 
     20 C          20.9724  -26.2369  -42.8793 C.2       2 UNK         0.4918 
     21 O          21.7887  -26.9026  -42.2390 O.2       2 UNK        -0.4875 
     22 CA         21.3548  -25.6353  -44.2430 C.3       2 UNK         0.0481 
     23 CB         22.8195  -25.9193  -44.6357 C.3       2 UNK        -0.1831 
     24 N          20.4361  -26.0498  -45.3085 N.am      2 UNK        -0.4498 
     25 C          20.1972  -27.3026  -45.7322 C.2       1 UNK         0.5027 
     26 O          20.7464  -28.2980  -45.2605 O.2       1 UNK        -0.4969 
     27 C          19.9423  -25.5310  -40.0237 C.2       3 UNK         0.5005 
     28 O          20.5773  -24.5116  -40.3091 O.2       3 UNK        -0.5279 
     29 N          19.8854  -26.0389  -38.7847 N.am      4 UNK        -0.4463 
     30 CA         20.6157  -25.6061  -37.5808 C.3       4 UNK         0.0283 
     31 CB         20.3689  -24.1243  -37.2344 C.3       4 UNK        -0.1875 
     32 C          22.1185  -25.9380  -37.6342 C.2       4 UNK         0.4949 
     33 O          22.6468  -26.4750  -36.6607 O.2       4 UNK        -0.5039 
     34 N          22.7665  -25.6771  -38.7783 N.am      5 UNK        -0.4663 
     35 CA         24.0881  -26.2114  -39.1258 C.3       5 UNK         0.0242 
     36 CB         24.6325  -25.4780  -40.3625 C.3       5 UNK        -0.1982 
     37 C          24.0328  -27.7310  -39.3706 C.2       5 UNK         0.5017 
     38 O          24.9544  -28.4449  -38.9757 O.2       5 UNK        -0.5012 
     39 N          22.9288  -28.1804  -39.9874 N.am      6 UNK        -0.4439 
     40 CA         22.5316  -29.5637  -40.2593 C.3       6 UNK         0.0297 
     41 CB         22.3351  -30.3467  -38.9431 C.3       6 UNK        -0.2006 
     42 C          23.4539  -30.2838  -41.2593 C.2       6 UNK         0.4892 
     43 O          23.6072  -31.5027  -41.1745 O.2       6 UNK        -0.5089 
     44 N          24.0366  -29.5276  -42.2019 N.am      7 UNK        -0.4243 
     45 CA         25.0351  -30.0110  -43.1627 C.3       7 UNK         0.0196 
     46 CB         25.5922  -28.8295  -43.9716 C.3       7 UNK        -0.2007 
     47 C          24.5206  -31.1180  -44.0987 C.2       7 UNK         0.5020 
     48 O          25.2625  -32.0573  -44.3871 O.2       7 UNK        -0.5147 
     49 N          23.2537  -31.0173  -44.5247 N.am      8 UNK        -0.4734 
     50 CA         22.5852  -32.0227  -45.3595 C.3       8 UNK         0.0238 
     51 CB         21.3256  -31.4042  -45.9840 C.3       8 UNK        -0.1912 
     52 C          22.2349  -33.3247  -44.6134 C.2       8 UNK         0.5038 
     53 O          21.9624  -34.3296  -45.2716 O.2       8 UNK        -0.5046 
     54 N          22.2461  -33.2902  -43.2750 N.am      9 UNK        -0.4200 
     55 CA         21.9929  -34.4407  -42.3952 C.3       9 UNK         0.0839 
     56 C          23.2927  -35.1925  -41.9843 C.2       9 UNK         0.5513 
     57 N          24.4778  -34.7758  -42.4174 N.am      9 UNK        -0.7519 
     58 O          23.2236  -36.1908  -41.2719 O.2       9 UNK        -0.4960 
     59 C59        21.1468  -34.0351  -41.1577 C.3       10 UNK        -0.0876 
     60 S60        19.4862  -33.4237  -41.6111 S.3       10 UNK        -0.2414 
     61 C61        19.7429  -31.6244  -41.5344 C.3       10 UNK         0.0169 
     62 H62        20.0373  -23.5644  -48.9218 H         1 UNK         0.0903 
     63 H63        19.2626  -24.4704  -50.2239 H         1 UNK         0.0903 
     64 H64        18.3393  -24.0263  -48.7876 H         1 UNK         0.0903 
     65 H65        18.0358  -25.7638  -47.4061 H         1 UNK         0.3096 
     66 H66        19.6527  -28.1465  -47.6024 H         1 UNK         0.1121 
     67 H67        17.0175  -27.7945  -47.0140 H         1 UNK         0.0849 
     68 H68        17.6108  -27.8216  -45.3787 H         1 UNK         0.0849 
     69 H69        15.7106  -29.8714  -45.5378 H         1 UNK         0.0865 
     70 H70        16.3857  -31.4788  -45.4883 H         1 UNK         0.0865 
     71 H71        18.7012  -31.6324  -44.0442 H         1 UNK         0.1346 
     72 H72        18.0982  -29.9201  -40.1601 H         1 UNK         0.1412 
     73 H73        15.5261  -28.8248  -43.4125 H         1 UNK         0.1426 
     74 H74        15.3558  -29.0069  -40.0758 H         1 UNK         0.0716 
     75 H75        15.1745  -27.7991  -41.3223 H         1 UNK         0.0716 
     76 H76        17.2174  -26.4041  -42.0221 H         1 UNK         0.0695 
     77 H77        17.3958  -25.1057  -40.8780 H         1 UNK         0.0695 
     78 H78        19.4392  -27.3834  -40.9870 H         1 UNK         0.0983 
     79 H79        19.1324  -25.4065  -43.0377 H         1 UNK         0.3095 
     80 H80        21.2483  -24.5542  -44.1434 H         1 UNK         0.0454 
     81 H81        23.5084  -25.5439  -43.8782 H         1 UNK         0.0851 
     82 H82        23.0054  -26.9868  -44.7440 H         1 UNK         0.0851 
     83 H83        23.0783  -25.4374  -45.5783 H         1 UNK         0.0851 
     84 H84        19.9330  -25.3063  -45.7718 H         1 UNK         0.2976 
     85 H85        19.3148  -26.8646  -38.6547 H         1 UNK         0.3116 
     86 H86        20.1963  -26.1977  -36.7652 H         1 UNK         0.0646 
     87 H87        20.7992  -23.8800  -36.2624 H         1 UNK         0.0847 
     88 H88        19.3035  -23.9008  -37.1826 H         1 UNK         0.0847 
     89 H89        20.8195  -23.4480  -37.9609 H         1 UNK         0.0847 
     90 H90        22.2447  -25.1989  -39.5076 H         1 UNK         0.3040 
     91 H91        24.7661  -26.0318  -38.2883 H         1 UNK         0.1015 
     92 H92        24.7420  -24.4103  -40.1718 H         1 UNK         0.0786 
     93 H93        23.9795  -25.5972  -41.2276 H         1 UNK         0.0786 
     94 H94        25.6160  -25.8596  -40.6405 H         1 UNK         0.0786 
     95 H95        22.3205  -27.4814  -40.4004 H         1 UNK         0.3172 
     96 H96        21.5606  -29.4918  -40.7495 H         1 UNK         0.0595 
     97 H97        21.6493  -29.8292  -38.2724 H         1 UNK         0.0839 
     98 H98        23.2776  -30.4892  -38.4138 H         1 UNK         0.0839 
     99 H99        21.9206  -31.3376  -39.1263 H         1 UNK         0.0839 
    100 H100       23.8140  -28.5416  -42.2218 H         1 UNK         0.2998 
    101 H101       25.8556  -30.4366  -42.5808 H         1 UNK         0.0822 
    102 H102       26.4045  -29.1555  -44.6228 H         1 UNK         0.0787 
    103 H103       24.8307  -28.3802  -44.6078 H         1 UNK         0.0787 
    104 H104       25.9926  -28.0518  -43.3208 H         1 UNK         0.0787 
    105 H105       22.7097  -30.2081  -44.2563 H         1 UNK         0.3055 
    106 H106       23.2633  -32.2983  -46.1706 H         1 UNK         0.1106 
    107 H107       21.5758  -30.5630  -46.6304 H         1 UNK         0.0828 
    108 H108       20.7868  -32.1295  -46.5952 H         1 UNK         0.0828 
    109 H109       20.6355  -31.0431  -45.2217 H         1 UNK         0.0828 
    110 H110       22.5600  -32.4487  -42.8087 H         1 UNK         0.2931 
    111 H111       21.4051  -35.1758  -42.9482 H         1 UNK         0.0412 
    112 H112       24.5550  -33.9549  -43.0001 H         1 UNK         0.3472 
    113 H113       25.3070  -35.2797  -42.1451 H         1 UNK         0.3472 
    114 H114       21.6707  -33.2904  -40.5576 H         1 UNK         0.0970 
    115 H115       20.9986  -34.8945  -40.5011 H         1 UNK         0.0970 
    116 H116       19.9623  -31.3483  -40.5031 H         1 UNK         0.0612 
    117 H117       20.6142  -31.3530  -42.1303 H         1 UNK         0.0612 
@<TRIPOS>BOND
     1    1    2 1    
     2    1   62 1    
     3    1   63 1    
     4    1   64 1    
     5    2    3 2    
     6    2    4 am   BACKBONE|DICT|INTERRES
     7    4    5 1    
     8    4   65 1    
     9    5    6 1    
    10    5   25 1    
    11    5   66 1    
    12    6    7 1    
    13    6   67 1    
    14    6   68 1    
    15    7    8 1    
    16    8    9 1    
    17    8   69 1    
    18    8   70 1    
    19    9   10 ar   
    20    9   14 ar   
    21   10   11 ar   
    22   10   71 1    
    23   11   12 ar   
    24   11   61 1    
    25   12   13 ar   
    26   12   72 1    
    27   13   14 ar   
    28   13   15 1    
    29   14   73 1    
    30   15   16 1    
    31   15   74 1    
    32   15   75 1    
    33   16   17 1    
    34   17   18 1    
    35   17   76 1    
    36   17   77 1    
    37   18   19 1    
    38   18   27 1    
    39   18   78 1    
    40   19   20 am   BACKBONE|DICT|INTERRES
    41   19   79 1    
    42   20   21 2    
    43   20   22 1    
    44   22   23 1    
    45   22   24 1    
    46   22   80 1    
    47   23   81 1    
    48   23   82 1    
    49   23   83 1    
    50   24   25 am   BACKBONE|DICT|INTERRES
    51   24   84 1    
    52   25   26 2    
    53   27   28 2    
    54   27   29 am   BACKBONE|DICT|INTERRES
    55   29   30 1    
    56   29   85 1    
    57   30   31 1    
    58   30   32 1    
    59   30   86 1    
    60   31   87 1    
    61   31   88 1    
    62   31   89 1    
    63   32   33 2    
    64   32   34 am   BACKBONE|DICT|INTERRES
    65   34   35 1    
    66   34   90 1    
    67   35   36 1    
    68   35   37 1    
    69   35   91 1    
    70   36   92 1    
    71   36   93 1    
    72   36   94 1    
    73   37   38 2    
    74   37   39 am   BACKBONE|DICT|INTERRES
    75   39   40 1    
    76   39   95 1    
    77   40   41 1    
    78   40   42 1    
    79   40   96 1    
    80   41   97 1    
    81   41   98 1    
    82   41   99 1    
    83   42   43 2    
    84   42   44 am   BACKBONE|DICT|INTERRES
    85   44   45 1    
    86   44  100 1    
    87   45   46 1    
    88   45   47 1    
    89   45  101 1    
    90   46  102 1    
    91   46  103 1    
    92   46  104 1    
    93   47   48 2    
    94   47   49 am   BACKBONE|DICT|INTERRES
    95   49   50 1    
    96   49  105 1    
    97   50   51 1    
    98   50   52 1    
    99   50  106 1    
   100   51  107 1    
   101   51  108 1    
   102   51  109 1    
   103   52   53 2    
   104   52   54 am   BACKBONE|DICT|INTERRES
   105   54   55 1    
   106   54  110 1    
   107   55   56 1    
   108   55   59 1    
   109   55  111 1    
   110   56   57 am   BACKBONE|DICT|INTERRES
   111   56   58 2    
   112   57  112 1    
   113   57  113 1    
   114   59   60 1    
   115   59  114 1    
   116   59  115 1    
   117   60   61 1    
   118   61  116 1    
   119   61  117 1    
@<TRIPOS>SUBSTRUCTURE
     1 UNK         1 GROUP             0       ****    0 ROOT    
