@<TRIPOS>MOLECULE
3R8
117   119    1
SMALL
USER_CHARGES


@<TRIPOS>ATOM
      1 CA         14.4703  -24.2269  -45.4358 C.3       0 UNK        -0.2013 
      2 C          15.6495  -24.8827  -46.1387 C.2       0 UNK         0.4866 
      3 O          15.6419  -25.0058  -47.3640 O.2       0 UNK        -0.5176 
      4 N          16.6637  -25.2987  -45.3754 N.am      1 UNK        -0.4884 
      5 CA         17.8901  -25.9337  -45.8572 C.3       1 UNK         0.0853 
      6 C6         17.6820  -27.4150  -46.2817 C.3       10 UNK        -0.0849 
      7 S7         17.0964  -28.4995  -44.9345 S.3       10 UNK        -0.2776 
      8 C8         18.3326  -29.8335  -44.9737 C.3       10 UNK         0.0316 
      9 C9         18.2552  -30.6467  -43.6948 C.ar      10 UNK        -0.0863 
     10 C10        17.3357  -31.6911  -43.5678 C.ar      10 UNK        -0.1009 
     11 C11        17.2428  -32.4098  -42.3717 C.ar      10 UNK        -0.0712 
     12 C12        18.0515  -32.0505  -41.2873 C.ar      10 UNK        -0.0894 
     13 C13        18.9715  -31.0036  -41.4048 C.ar      10 UNK        -0.0745 
     14 C14        19.0886  -30.3288  -42.6219 C.ar      10 UNK        -0.0972 
     15 C15        19.8507  -30.6080  -40.2274 C.3       10 UNK         0.0209 
     16 S16        19.1836  -29.1919  -39.2825 S.3       10 UNK        -0.2568 
     17 C17        19.1864  -27.7970  -40.4683 C.3       10 UNK        -0.0983 
     18 CA         20.5997  -27.3873  -40.9581 C.3       3 UNK         0.0876 
     19 N          20.5726  -26.7884  -42.2982 N.am      3 UNK        -0.4424 
     20 C          21.6518  -26.6186  -43.0722 C.2       2 UNK         0.4918 
     21 O          22.7713  -27.0134  -42.7379 O.2       2 UNK        -0.4875 
     22 CA         21.4734  -25.8464  -44.4018 C.3       2 UNK         0.0481 
     23 CB         22.6563  -26.0544  -45.3655 C.3       2 UNK        -0.1831 
     24 N          20.2320  -26.1089  -45.1429 N.am      2 UNK        -0.4498 
     25 C          18.9939  -25.7292  -44.8000 C.2       1 UNK         0.5027 
     26 O          18.7154  -25.2233  -43.7074 O.2       1 UNK        -0.4969 
     27 C          21.3390  -26.4920  -39.9426 C.2       3 UNK         0.5005 
     28 O          22.0585  -27.0105  -39.0891 O.2       3 UNK        -0.5279 
     29 N          21.2272  -25.1642  -40.1056 N.am      4 UNK        -0.4463 
     30 CA         21.9617  -24.1575  -39.3290 C.3       4 UNK         0.0283 
     31 CB         21.4276  -22.7593  -39.6782 C.3       4 UNK        -0.1875 
     32 C          23.4896  -24.2129  -39.5282 C.2       4 UNK         0.4949 
     33 O          24.2289  -23.8194  -38.6265 O.2       4 UNK        -0.5039 
     34 N          23.9324  -24.7182  -40.6880 N.am      5 UNK        -0.4663 
     35 CA         25.3386  -24.9672  -41.0165 C.3       5 UNK         0.0242 
     36 CB         25.5510  -24.6826  -42.5129 C.3       5 UNK        -0.1982 
     37 C          25.7813  -26.4030  -40.6711 C.2       5 UNK         0.5017 
     38 O          26.9382  -26.7410  -40.9237 O.2       5 UNK        -0.5012 
     39 N          24.8678  -27.2196  -40.1205 N.am      6 UNK        -0.4439 
     40 CA         25.0324  -28.6305  -39.7575 C.3       6 UNK         0.0297 
     41 CB         26.0404  -28.7880  -38.5987 C.3       6 UNK        -0.2006 
     42 C          25.3465  -29.5392  -40.9629 C.2       6 UNK         0.4892 
     43 O          26.1598  -30.4571  -40.8403 O.2       6 UNK        -0.5089 
     44 N          24.6841  -29.2863  -42.1036 N.am      7 UNK        -0.4243 
     45 CA         24.8148  -30.0904  -43.3266 C.3       7 UNK         0.0196 
     46 CB         24.1789  -29.3340  -44.5025 C.3       7 UNK        -0.2007 
     47 C          24.2113  -31.5051  -43.2140 C.2       7 UNK         0.5020 
     48 O          24.6182  -32.3854  -43.9732 O.2       7 UNK        -0.5147 
     49 N          23.2743  -31.6865  -42.2695 N.am      8 UNK        -0.4734 
     50 CA         22.5153  -32.9051  -41.9502 C.3       8 UNK         0.0238 
     51 CB         23.4615  -34.0766  -41.6048 C.3       8 UNK        -0.1912 
     52 C          21.4845  -33.2942  -43.0290 C.2       8 UNK         0.5038 
     53 O          21.4511  -32.7086  -44.1137 O.2       8 UNK        -0.5046 
     54 N          20.6373  -34.2725  -42.6836 N.am      9 UNK        -0.4200 
     55 CA         19.5494  -34.7839  -43.5338 C.3       9 UNK         0.0839 
     56 C          20.0065  -35.7477  -44.6694 C.2       9 UNK         0.5513 
     57 N          21.2604  -36.1831  -44.7083 N.am      9 UNK        -0.7519 
     58 O          19.2128  -36.1035  -45.5363 O.2       9 UNK        -0.4960 
     59 C59        18.4053  -35.3896  -42.6676 C.3       10 UNK        -0.0876 
     60 S60        16.7460  -34.9816  -43.3118 S.3       10 UNK        -0.2414 
     61 C61        16.2681  -33.5741  -42.2541 C.3       10 UNK         0.0169 
     62 H62        14.3356  -23.2083  -45.7988 H         1 UNK         0.0903 
     63 H63        13.5563  -24.7848  -45.6375 H         1 UNK         0.0903 
     64 H64        14.6110  -24.1865  -44.3557 H         1 UNK         0.0903 
     65 H65        16.6638  -25.1368  -44.3750 H         1 UNK         0.3096 
     66 H66        18.2188  -25.3754  -46.7371 H         1 UNK         0.1121 
     67 H67        16.9457  -27.4633  -47.0853 H         1 UNK         0.0849 
     68 H68        18.5973  -27.8190  -46.7163 H         1 UNK         0.0849 
     69 H69        18.1606  -30.4711  -45.8423 H         1 UNK         0.0865 
     70 H70        19.3336  -29.4136  -45.0874 H         1 UNK         0.0865 
     71 H71        16.6948  -31.9489  -44.3999 H         1 UNK         0.1346 
     72 H72        17.9692  -32.5889  -40.3531 H         1 UNK         0.1412 
     73 H73        19.8071  -29.5291  -42.7275 H         1 UNK         0.1426 
     74 H74        20.8633  -30.3970  -40.5677 H         1 UNK         0.0716 
     75 H75        19.9469  -31.4525  -39.5432 H         1 UNK         0.0716 
     76 H76        18.5476  -28.0721  -41.3074 H         1 UNK         0.0695 
     77 H77        18.6771  -26.9505  -40.0035 H         1 UNK         0.0695 
     78 H78        21.2080  -28.2858  -41.0544 H         1 UNK         0.0983 
     79 H79        19.6965  -26.3839  -42.6194 H         1 UNK         0.3095 
     80 H80        21.4669  -24.7899  -44.1268 H         1 UNK         0.0454 
     81 H81        23.6087  -25.8183  -44.8929 H         1 UNK         0.0851 
     82 H82        22.7118  -27.0846  -45.7169 H         1 UNK         0.0851 
     83 H83        22.5731  -25.4085  -46.2396 H         1 UNK         0.0851 
     84 H84        20.3570  -26.5457  -46.0447 H         1 UNK         0.2976 
     85 H85        20.6171  -24.8209  -40.8340 H         1 UNK         0.3116 
     86 H86        21.7640  -24.3451  -38.2714 H         1 UNK         0.0646 
     87 H87        21.9365  -21.9908  -39.0944 H         1 UNK         0.0847 
     88 H88        20.3627  -22.6738  -39.4613 H         1 UNK         0.0847 
     89 H89        21.5779  -22.5193  -40.7316 H         1 UNK         0.0847 
     90 H90        23.2550  -25.0370  -41.3663 H         1 UNK         0.3040 
     91 H91        25.9754  -24.2865  -40.4469 H         1 UNK         0.1015 
     92 H92        25.2110  -23.6828  -42.7832 H         1 UNK         0.0786 
     93 H93        25.0193  -25.4021  -43.1343 H         1 UNK         0.0786 
     94 H94        26.6075  -24.7466  -42.7767 H         1 UNK         0.0786 
     95 H95        23.9473  -26.8395  -39.9286 H         1 UNK         0.3172 
     96 H96        24.0604  -28.9578  -39.3859 H         1 UNK         0.0595 
     97 H97        25.7763  -28.1516  -37.7541 H         1 UNK         0.0839 
     98 H98        27.0556  -28.5350  -38.9058 H         1 UNK         0.0839 
     99 H99        26.0594  -29.8157  -38.2340 H         1 UNK         0.0839 
    100 H100       24.0600  -28.4865  -42.1504 H         1 UNK         0.2998 
    101 H101       25.8803  -30.2074  -43.5359 H         1 UNK         0.0822 
    102 H102       24.6212  -28.3449  -44.6222 H         1 UNK         0.0787 
    103 H103       24.3279  -29.8725  -45.4393 H         1 UNK         0.0787 
    104 H104       23.1039  -29.2121  -44.3658 H         1 UNK         0.0787 
    105 H105       23.0229  -30.8696  -41.7338 H         1 UNK         0.3055 
    106 H106       21.9447  -32.6676  -41.0513 H         1 UNK         0.1106 
    107 H107       24.2162  -33.7743  -40.8785 H         1 UNK         0.0828 
    108 H108       23.9804  -34.4562  -42.4855 H         1 UNK         0.0828 
    109 H109       22.9170  -34.9137  -41.1673 H         1 UNK         0.0828 
    110 H110       20.7410  -34.7176  -41.7842 H         1 UNK         0.2931 
    111 H111       19.1467  -33.9120  -44.0524 H         1 UNK         0.0412 
    112 H112       21.5451  -36.8031  -45.4506 H         1 UNK         0.3472 
    113 H113       21.9262  -35.8900  -44.0120 H         1 UNK         0.3472 
    114 H114       18.4595  -35.0268  -41.6403 H         1 UNK         0.0970 
    115 H115       18.4966  -36.4747  -42.5879 H         1 UNK         0.0970 
    116 H116       16.1895  -33.9149  -41.2206 H         1 UNK         0.0612 
    117 H117       15.2715  -33.2379  -42.5433 H         1 UNK         0.0612 
@<TRIPOS>BOND
     1    1    2 1    
     2    1   62 1    
     3    1   63 1    
     4    1   64 1    
     5    2    3 2    
     6    2    4 am   BACKBONE|DICT|INTERRES
     7    4    5 1    
     8    4   65 1    
     9    5    6 1    
    10    5   25 1    
    11    5   66 1    
    12    6    7 1    
    13    6   67 1    
    14    6   68 1    
    15    7    8 1    
    16    8    9 1    
    17    8   69 1    
    18    8   70 1    
    19    9   10 ar   
    20    9   14 ar   
    21   10   11 ar   
    22   10   71 1    
    23   11   12 ar   
    24   11   61 1    
    25   12   13 ar   
    26   12   72 1    
    27   13   14 ar   
    28   13   15 1    
    29   14   73 1    
    30   15   16 1    
    31   15   74 1    
    32   15   75 1    
    33   16   17 1    
    34   17   18 1    
    35   17   76 1    
    36   17   77 1    
    37   18   19 1    
    38   18   27 1    
    39   18   78 1    
    40   19   20 am   BACKBONE|DICT|INTERRES
    41   19   79 1    
    42   20   21 2    
    43   20   22 1    
    44   22   23 1    
    45   22   24 1    
    46   22   80 1    
    47   23   81 1    
    48   23   82 1    
    49   23   83 1    
    50   24   25 am   BACKBONE|DICT|INTERRES
    51   24   84 1    
    52   25   26 2    
    53   27   28 2    
    54   27   29 am   BACKBONE|DICT|INTERRES
    55   29   30 1    
    56   29   85 1    
    57   30   31 1    
    58   30   32 1    
    59   30   86 1    
    60   31   87 1    
    61   31   88 1    
    62   31   89 1    
    63   32   33 2    
    64   32   34 am   BACKBONE|DICT|INTERRES
    65   34   35 1    
    66   34   90 1    
    67   35   36 1    
    68   35   37 1    
    69   35   91 1    
    70   36   92 1    
    71   36   93 1    
    72   36   94 1    
    73   37   38 2    
    74   37   39 am   BACKBONE|DICT|INTERRES
    75   39   40 1    
    76   39   95 1    
    77   40   41 1    
    78   40   42 1    
    79   40   96 1    
    80   41   97 1    
    81   41   98 1    
    82   41   99 1    
    83   42   43 2    
    84   42   44 am   BACKBONE|DICT|INTERRES
    85   44   45 1    
    86   44  100 1    
    87   45   46 1    
    88   45   47 1    
    89   45  101 1    
    90   46  102 1    
    91   46  103 1    
    92   46  104 1    
    93   47   48 2    
    94   47   49 am   BACKBONE|DICT|INTERRES
    95   49   50 1    
    96   49  105 1    
    97   50   51 1    
    98   50   52 1    
    99   50  106 1    
   100   51  107 1    
   101   51  108 1    
   102   51  109 1    
   103   52   53 2    
   104   52   54 am   BACKBONE|DICT|INTERRES
   105   54   55 1    
   106   54  110 1    
   107   55   56 1    
   108   55   59 1    
   109   55  111 1    
   110   56   57 am   BACKBONE|DICT|INTERRES
   111   56   58 2    
   112   57  112 1    
   113   57  113 1    
   114   59   60 1    
   115   59  114 1    
   116   59  115 1    
   117   60   61 1    
   118   61  116 1    
   119   61  117 1    
@<TRIPOS>SUBSTRUCTURE
     1 UNK         1 GROUP             0       ****    0 ROOT    
