@<TRIPOS>MOLECULE
3R8
117   119    1
SMALL
USER_CHARGES


@<TRIPOS>ATOM
      1 CA         16.2414  -22.0473  -46.6887 C.3       0 UNK        -0.2013 
      2 C          15.8695  -22.5542  -45.2978 C.2       0 UNK         0.4866 
      3 O          15.4179  -21.7669  -44.4690 O.2       0 UNK        -0.5176 
      4 N          16.0361  -23.8482  -44.9882 N.am      1 UNK        -0.4884 
      5 CA         16.5869  -24.9096  -45.8446 C.3       1 UNK         0.0853 
      6 C6         16.0198  -26.3011  -45.4656 C.3       10 UNK        -0.0849 
      7 S7         16.2148  -26.7504  -43.7044 S.3       10 UNK        -0.2776 
      8 C8         15.8580  -28.5387  -43.7423 C.3       10 UNK         0.0316 
      9 C9         17.1366  -29.3622  -43.8009 C.ar      10 UNK        -0.0863 
     10 C10        17.6194  -30.0037  -42.6553 C.ar      10 UNK        -0.1009 
     11 C11        18.8152  -30.7288  -42.6990 C.ar      10 UNK        -0.0712 
     12 C12        19.5283  -30.8096  -43.8976 C.ar      10 UNK        -0.0894 
     13 C13        19.0550  -30.1748  -45.0471 C.ar      10 UNK        -0.0745 
     14 C14        17.8486  -29.4731  -44.9977 C.ar      10 UNK        -0.0972 
     15 C15        19.8455  -30.2297  -46.3434 C.3       10 UNK         0.0209 
     16 S16        20.4183  -28.5756  -46.8447 S.3       10 UNK        -0.2568 
     17 C17        21.8944  -28.3153  -45.8007 C.3       10 UNK        -0.0983 
     18 CA         21.7640  -27.2477  -44.6742 C.3       3 UNK         0.0876 
     19 N          20.9745  -26.0690  -45.0645 N.am      3 UNK        -0.4424 
     20 C          21.1704  -24.8278  -44.6024 C.2       2 UNK         0.4918 
     21 O          22.0611  -24.5386  -43.8039 O.2       2 UNK        -0.4875 
     22 CA         20.2153  -23.7160  -45.0727 C.3       2 UNK         0.0481 
     23 CB         20.6784  -23.1236  -46.4180 C.3       2 UNK        -0.1831 
     24 N          18.7867  -24.0676  -45.0966 N.am      2 UNK        -0.4498 
     25 C          18.1320  -24.8986  -45.9228 C.2       1 UNK         0.5027 
     26 O          18.6939  -25.6111  -46.7532 O.2       1 UNK        -0.4969 
     27 C          21.3720  -27.8332  -43.2961 C.2       3 UNK         0.5005 
     28 O          21.9877  -28.8108  -42.8639 O.2       3 UNK        -0.5279 
     29 N          20.4061  -27.2063  -42.6051 N.am      4 UNK        -0.4463 
     30 CA         19.9727  -27.4995  -41.2368 C.3       4 UNK         0.0283 
     31 CB         18.9173  -26.4678  -40.8061 C.3       4 UNK        -0.1875 
     32 C          21.1431  -27.5364  -40.2390 C.2       4 UNK         0.4949 
     33 O          21.7071  -26.4885  -39.9214 O.2       4 UNK        -0.5039 
     34 N          21.4893  -28.7539  -39.7983 N.am      5 UNK        -0.4663 
     35 CA         22.5886  -29.1050  -38.8905 C.3       5 UNK         0.0242 
     36 CB         22.3858  -28.4649  -37.5003 C.3       5 UNK        -0.1982 
     37 C          23.9993  -28.8409  -39.4575 C.2       5 UNK         0.5017 
     38 O          24.9663  -28.8763  -38.6934 O.2       5 UNK        -0.5012 
     39 N          24.1257  -28.6197  -40.7749 N.am      6 UNK        -0.4439 
     40 CA         25.4030  -28.4270  -41.4675 C.3       6 UNK         0.0297 
     41 CB         25.1745  -27.5684  -42.7248 C.3       6 UNK        -0.2006 
     42 C          26.0230  -29.7959  -41.7929 C.2       6 UNK         0.4892 
     43 O          26.0463  -30.2017  -42.9558 O.2       6 UNK        -0.5089 
     44 N          26.4248  -30.5218  -40.7390 N.am      7 UNK        -0.4243 
     45 CA         26.8768  -31.9236  -40.6926 C.3       7 UNK         0.0196 
     46 CB         28.1134  -32.1607  -41.5815 C.3       7 UNK        -0.2007 
     47 C          25.7655  -32.9508  -40.9907 C.2       7 UNK         0.5020 
     48 O          25.7444  -34.0140  -40.3692 O.2       7 UNK        -0.5147 
     49 N          24.8516  -32.6146  -41.9077 N.am      8 UNK        -0.4734 
     50 CA         23.6177  -33.3391  -42.2051 C.3       8 UNK         0.0238 
     51 CB         22.9526  -32.6840  -43.4259 C.3       8 UNK        -0.1912 
     52 C          22.6479  -33.3473  -41.0098 C.2       8 UNK         0.5038 
     53 O          22.6565  -32.4146  -40.2023 O.2       8 UNK        -0.5046 
     54 N          21.8150  -34.3932  -40.9473 N.am      9 UNK        -0.4200 
     55 CA         20.8226  -34.6640  -39.8898 C.3       9 UNK         0.0839 
     56 C          21.4317  -35.0723  -38.5127 C.2       9 UNK         0.5513 
     57 N          22.7315  -35.3205  -38.4018 N.am      9 UNK        -0.7519 
     58 O          20.7064  -35.2014  -37.5297 O.2       9 UNK        -0.4960 
     59 C59        19.7347  -33.5591  -39.7402 C.3       10 UNK        -0.0876 
     60 S60        18.9039  -33.1236  -41.3085 S.3       10 UNK        -0.2414 
     61 C61        19.3727  -31.3738  -41.4415 C.3       10 UNK         0.0169 
     62 H62        15.6111  -22.5069  -47.4494 H         1 UNK         0.0903 
     63 H63        16.0988  -20.9686  -46.7509 H         1 UNK         0.0903 
     64 H64        17.2852  -22.2530  -46.9221 H         1 UNK         0.0903 
     65 H65        15.7696  -24.1605  -44.0637 H         1 UNK         0.3096 
     66 H66        16.2540  -24.7228  -46.8674 H         1 UNK         0.1121 
     67 H67        16.4569  -27.0714  -46.1002 H         1 UNK         0.0849 
     68 H68        14.9516  -26.3208  -45.6879 H         1 UNK         0.0849 
     69 H69        15.2862  -28.7965  -42.8495 H         1 UNK         0.0865 
     70 H70        15.2154  -28.7815  -44.5900 H         1 UNK         0.0865 
     71 H71        17.0766  -29.9224  -41.7234 H         1 UNK         0.1346 
     72 H72        20.4632  -31.3481  -43.9280 H         1 UNK         0.1412 
     73 H73        17.4865  -28.9898  -45.8927 H         1 UNK         0.1426 
     74 H74        19.2038  -30.6306  -47.1292 H         1 UNK         0.0716 
     75 H75        20.6956  -30.9093  -46.2656 H         1 UNK         0.0716 
     76 H76        22.2457  -29.2726  -45.4110 H         1 UNK         0.0695 
     77 H77        22.6820  -27.9924  -46.4830 H         1 UNK         0.0695 
     78 H78        22.7818  -26.8893  -44.5084 H         1 UNK         0.0983 
     79 H79        20.2263  -26.2246  -45.7359 H         1 UNK         0.3095 
     80 H80        20.2925  -22.9172  -44.3333 H         1 UNK         0.0454 
     81 H81        21.7059  -22.7640  -46.3501 H         1 UNK         0.0851 
     82 H82        20.0595  -22.2765  -46.7134 H         1 UNK         0.0851 
     83 H83        20.6486  -23.8584  -47.2230 H         1 UNK         0.0851 
     84 H84        18.2160  -23.5683  -44.4276 H         1 UNK         0.2976 
     85 H85        19.9719  -26.4107  -43.0469 H         1 UNK         0.3116 
     86 H86        19.4935  -28.4763  -41.2447 H         1 UNK         0.0646 
     87 H87        19.3041  -25.4489  -40.8512 H         1 UNK         0.0847 
     88 H88        18.5921  -26.6474  -39.7806 H         1 UNK         0.0847 
     89 H89        18.0308  -26.5198  -41.4359 H         1 UNK         0.0847 
     90 H90        20.9934  -29.5449  -40.1830 H         1 UNK         0.3040 
     91 H91        22.5300  -30.1863  -38.7582 H         1 UNK         0.1015 
     92 H92        22.5127  -27.3824  -37.5288 H         1 UNK         0.0786 
     93 H93        23.1062  -28.8551  -36.7803 H         1 UNK         0.0786 
     94 H94        21.3919  -28.6771  -37.1064 H         1 UNK         0.0786 
     95 H95        23.2956  -28.6722  -41.3604 H         1 UNK         0.3172 
     96 H96        26.0944  -27.8860  -40.8179 H         1 UNK         0.0595 
     97 H97        24.5527  -28.0839  -43.4567 H         1 UNK         0.0839 
     98 H98        26.1220  -27.3374  -43.2129 H         1 UNK         0.0839 
     99 H99        24.6936  -26.6209  -42.4801 H         1 UNK         0.0839 
    100 H100       26.2765  -30.0935  -39.8307 H         1 UNK         0.2998 
    101 H101       27.1816  -32.0944  -39.6587 H         1 UNK         0.0822 
    102 H102       28.5062  -33.1678  -41.4356 H         1 UNK         0.0787 
    103 H103       27.8831  -32.0570  -42.6421 H         1 UNK         0.0787 
    104 H104       28.9148  -31.4620  -41.3413 H         1 UNK         0.0787 
    105 H105       24.9902  -31.7297  -42.3854 H         1 UNK         0.3055 
    106 H106       23.8842  -34.3695  -42.4501 H         1 UNK         0.1106 
    107 H107       23.6040  -32.7174  -44.2994 H         1 UNK         0.0828 
    108 H108       22.0277  -33.1970  -43.6929 H         1 UNK         0.0828 
    109 H109       22.7078  -31.6381  -43.2325 H         1 UNK         0.0828 
    110 H110       21.8778  -35.1043  -41.6612 H         1 UNK         0.2931 
    111 H111       20.3061  -35.5625  -40.2295 H         1 UNK         0.0412 
    112 H112       23.3474  -35.2065  -39.1918 H         1 UNK         0.3472 
    113 H113       23.1057  -35.5954  -37.5071 H         1 UNK         0.3472 
    114 H114       20.1648  -32.6659  -39.2841 H         1 UNK         0.0970 
    115 H115       18.9566  -33.8917  -39.0508 H         1 UNK         0.0970 
    116 H116       20.4600  -31.2879  -41.4408 H         1 UNK         0.0612 
    117 H117       19.0171  -30.8426  -40.5574 H         1 UNK         0.0612 
@<TRIPOS>BOND
     1    1    2 1    
     2    1   62 1    
     3    1   63 1    
     4    1   64 1    
     5    2    3 2    
     6    2    4 am   BACKBONE|DICT|INTERRES
     7    4    5 1    
     8    4   65 1    
     9    5    6 1    
    10    5   25 1    
    11    5   66 1    
    12    6    7 1    
    13    6   67 1    
    14    6   68 1    
    15    7    8 1    
    16    8    9 1    
    17    8   69 1    
    18    8   70 1    
    19    9   10 ar   
    20    9   14 ar   
    21   10   11 ar   
    22   10   71 1    
    23   11   12 ar   
    24   11   61 1    
    25   12   13 ar   
    26   12   72 1    
    27   13   14 ar   
    28   13   15 1    
    29   14   73 1    
    30   15   16 1    
    31   15   74 1    
    32   15   75 1    
    33   16   17 1    
    34   17   18 1    
    35   17   76 1    
    36   17   77 1    
    37   18   19 1    
    38   18   27 1    
    39   18   78 1    
    40   19   20 am   BACKBONE|DICT|INTERRES
    41   19   79 1    
    42   20   21 2    
    43   20   22 1    
    44   22   23 1    
    45   22   24 1    
    46   22   80 1    
    47   23   81 1    
    48   23   82 1    
    49   23   83 1    
    50   24   25 am   BACKBONE|DICT|INTERRES
    51   24   84 1    
    52   25   26 2    
    53   27   28 2    
    54   27   29 am   BACKBONE|DICT|INTERRES
    55   29   30 1    
    56   29   85 1    
    57   30   31 1    
    58   30   32 1    
    59   30   86 1    
    60   31   87 1    
    61   31   88 1    
    62   31   89 1    
    63   32   33 2    
    64   32   34 am   BACKBONE|DICT|INTERRES
    65   34   35 1    
    66   34   90 1    
    67   35   36 1    
    68   35   37 1    
    69   35   91 1    
    70   36   92 1    
    71   36   93 1    
    72   36   94 1    
    73   37   38 2    
    74   37   39 am   BACKBONE|DICT|INTERRES
    75   39   40 1    
    76   39   95 1    
    77   40   41 1    
    78   40   42 1    
    79   40   96 1    
    80   41   97 1    
    81   41   98 1    
    82   41   99 1    
    83   42   43 2    
    84   42   44 am   BACKBONE|DICT|INTERRES
    85   44   45 1    
    86   44  100 1    
    87   45   46 1    
    88   45   47 1    
    89   45  101 1    
    90   46  102 1    
    91   46  103 1    
    92   46  104 1    
    93   47   48 2    
    94   47   49 am   BACKBONE|DICT|INTERRES
    95   49   50 1    
    96   49  105 1    
    97   50   51 1    
    98   50   52 1    
    99   50  106 1    
   100   51  107 1    
   101   51  108 1    
   102   51  109 1    
   103   52   53 2    
   104   52   54 am   BACKBONE|DICT|INTERRES
   105   54   55 1    
   106   54  110 1    
   107   55   56 1    
   108   55   59 1    
   109   55  111 1    
   110   56   57 am   BACKBONE|DICT|INTERRES
   111   56   58 2    
   112   57  112 1    
   113   57  113 1    
   114   59   60 1    
   115   59  114 1    
   116   59  115 1    
   117   60   61 1    
   118   61  116 1    
   119   61  117 1    
@<TRIPOS>SUBSTRUCTURE
     1 UNK         1 GROUP             0       ****    0 ROOT    
