@<TRIPOS>MOLECULE
3R8
117   119    1
SMALL
USER_CHARGES


@<TRIPOS>ATOM
      1 CA         19.6364  -31.5650  -47.8123 C.3       0 UNK        -0.2013 
      2 C          19.2365  -30.4149  -46.9014 C.2       0 UNK         0.4866 
      3 O          20.0376  -29.9806  -46.0750 O.2       0 UNK        -0.5176 
      4 N          18.0078  -29.9021  -47.0577 N.am      1 UNK        -0.4884 
      5 CA         17.4412  -28.8005  -46.2615 C.3       1 UNK         0.0853 
      6 C6         15.8948  -28.8434  -46.2079 C.3       10 UNK        -0.0849 
      7 S7         15.2941  -30.3557  -45.3780 S.3       10 UNK        -0.2776 
      8 C8         14.5980  -29.7112  -43.8208 C.3       10 UNK         0.0316 
      9 C9         15.6625  -29.3424  -42.7925 C.ar      10 UNK        -0.0863 
     10 C10        16.1717  -30.3153  -41.9216 C.ar      10 UNK        -0.1009 
     11 C11        17.0857  -29.9643  -40.9210 C.ar      10 UNK        -0.0712 
     12 C12        17.4974  -28.6360  -40.8045 C.ar      10 UNK        -0.0894 
     13 C13        17.0043  -27.6574  -41.6694 C.ar      10 UNK        -0.0745 
     14 C14        16.0868  -28.0147  -42.6626 C.ar      10 UNK        -0.0972 
     15 C15        17.4653  -26.2150  -41.5110 C.3       10 UNK         0.0209 
     16 S16        18.6076  -25.6887  -42.8270 S.3       10 UNK        -0.2568 
     17 C17        19.7583  -27.1072  -42.9401 C.3       10 UNK        -0.0983 
     18 CA         20.9287  -26.9123  -43.9405 C.3       3 UNK         0.0876 
     19 N          20.4459  -26.3491  -45.1949 N.am      3 UNK        -0.4424 
     20 C          20.9896  -26.5167  -46.4013 C.2       2 UNK         0.4918 
     21 O          22.1256  -26.9496  -46.6009 O.2       2 UNK        -0.4875 
     22 CA         20.0116  -26.2908  -47.5742 C.3       2 UNK         0.0481 
     23 CB         20.7101  -26.3075  -48.9454 C.3       2 UNK        -0.1831 
     24 N          19.0081  -27.3608  -47.5283 N.am      2 UNK        -0.4498 
     25 C          17.9812  -27.4076  -46.6643 C.2       1 UNK         0.5027 
     26 O          17.5292  -26.4024  -46.1151 O.2       1 UNK        -0.4969 
     27 C          22.0970  -26.1282  -43.3244 C.2       3 UNK         0.5005 
     28 O          22.3341  -24.9658  -43.6659 O.2       3 UNK        -0.5279 
     29 N          22.7882  -26.7966  -42.3973 N.am      4 UNK        -0.4463 
     30 CA         23.8802  -26.2688  -41.5918 C.3       4 UNK         0.0283 
     31 CB         25.2186  -26.4935  -42.3136 C.3       4 UNK        -0.1875 
     32 C          23.8325  -26.9900  -40.2428 C.2       4 UNK         0.4949 
     33 O          23.5753  -28.1969  -40.2214 O.2       4 UNK        -0.5039 
     34 N          24.0627  -26.2383  -39.1575 N.am      5 UNK        -0.4663 
     35 CA         23.9195  -26.6476  -37.7543 C.3       5 UNK         0.0242 
     36 CB         24.3648  -25.4860  -36.8479 C.3       5 UNK        -0.1982 
     37 C          24.6723  -27.9451  -37.4079 C.2       5 UNK         0.5017 
     38 O          25.8897  -27.9118  -37.2194 O.2       5 UNK        -0.5012 
     39 N          23.9234  -29.0582  -37.3709 N.am      6 UNK        -0.4439 
     40 CA         24.3764  -30.4393  -37.1567 C.3       6 UNK         0.0297 
     41 CB         24.9199  -30.6199  -35.7229 C.3       6 UNK        -0.2006 
     42 C          25.3594  -30.9543  -38.2314 C.2       6 UNK         0.4892 
     43 O          26.1085  -31.8947  -37.9595 O.2       6 UNK        -0.5089 
     44 N          25.3407  -30.3428  -39.4237 N.am      7 UNK        -0.4243 
     45 CA         26.2419  -30.6459  -40.5362 C.3       7 UNK         0.0196 
     46 CB         27.2038  -29.4645  -40.7417 C.3       7 UNK        -0.2007 
     47 C          25.4914  -30.9833  -41.8330 C.2       7 UNK         0.5020 
     48 O          26.0394  -31.7265  -42.6480 O.2       7 UNK        -0.5147 
     49 N          24.2655  -30.4739  -42.0151 N.am      8 UNK        -0.4734 
     50 CA         23.4120  -30.7952  -43.1588 C.3       8 UNK         0.0238 
     51 CB         23.7408  -29.8789  -44.3526 C.3       8 UNK        -0.1912 
     52 C          21.9412  -30.6726  -42.7518 C.2       8 UNK         0.5038 
     53 O          21.5658  -29.6462  -42.1833 O.2       8 UNK        -0.5046 
     54 N          21.1599  -31.7057  -43.0793 N.am      9 UNK        -0.4200 
     55 CA         19.7058  -31.8206  -42.9194 C.3       9 UNK         0.0839 
     56 C          19.1412  -32.6534  -44.0974 C.2       9 UNK         0.5513 
     57 N          17.8785  -32.4573  -44.4461 N.am      9 UNK        -0.7519 
     58 O          19.8195  -33.5088  -44.6648 O.2       9 UNK        -0.4960 
     59 C59        19.3064  -32.4905  -41.5761 C.3       10 UNK        -0.0876 
     60 S60        19.3687  -31.3598  -40.1524 S.3       10 UNK        -0.2414 
     61 C61        17.5986  -30.9915  -39.9203 C.3       10 UNK         0.0169 
     62 H62        18.8231  -31.8646  -48.4729 H         1 UNK         0.0903 
     63 H63        20.4878  -31.2769  -48.4282 H         1 UNK         0.0903 
     64 H64        19.9251  -32.4310  -47.2179 H         1 UNK         0.0903 
     65 H65        17.3864  -30.3022  -47.7470 H         1 UNK         0.3096 
     66 H66        17.7900  -28.9352  -45.2342 H         1 UNK         0.1121 
     67 H67        15.4931  -27.9739  -45.6852 H         1 UNK         0.0849 
     68 H68        15.4767  -28.8059  -47.2151 H         1 UNK         0.0849 
     69 H69        13.9549  -28.8553  -44.0317 H         1 UNK         0.0865 
     70 H70        13.9413  -30.4730  -43.3977 H         1 UNK         0.0865 
     71 H71        15.8324  -31.3390  -42.0036 H         1 UNK         0.1346 
     72 H72        18.2042  -28.3659  -40.0316 H         1 UNK         0.1412 
     73 H73        15.6976  -27.2531  -43.3246 H         1 UNK         0.1426 
     74 H74        17.9563  -26.0725  -40.5471 H         1 UNK         0.0716 
     75 H75        16.5976  -25.5540  -41.5103 H         1 UNK         0.0716 
     76 H76        20.1155  -27.3578  -41.9394 H         1 UNK         0.0695 
     77 H77        19.1823  -27.9752  -43.2645 H         1 UNK         0.0695 
     78 H78        21.3183  -27.9043  -44.1799 H         1 UNK         0.0983 
     79 H79        19.5090  -25.9680  -45.1464 H         1 UNK         0.3095 
     80 H80        19.5295  -25.3195  -47.4453 H         1 UNK         0.0454 
     81 H81        21.4707  -25.5279  -49.0027 H         1 UNK         0.0851 
     82 H82        21.2043  -27.2603  -49.1395 H         1 UNK         0.0851 
     83 H83        20.0004  -26.1281  -49.7528 H         1 UNK         0.0851 
     84 H84        19.3101  -28.2505  -47.8988 H         1 UNK         0.2976 
     85 H85        22.4849  -27.7319  -42.1314 H         1 UNK         0.3116 
     86 H86        23.7303  -25.1995  -41.4270 H         1 UNK         0.0646 
     87 H87        26.0583  -26.1757  -41.6945 H         1 UNK         0.0847 
     88 H88        25.2653  -25.9224  -43.2408 H         1 UNK         0.0847 
     89 H89        25.3683  -27.5437  -42.5654 H         1 UNK         0.0847 
     90 H90        24.2996  -25.2672  -39.3024 H         1 UNK         0.3040 
     91 H91        22.8551  -26.8130  -37.5740 H         1 UNK         0.1015 
     92 H92        25.4049  -25.2093  -37.0263 H         1 UNK         0.0786 
     93 H93        24.2763  -25.7566  -35.7947 H         1 UNK         0.0786 
     94 H94        23.7499  -24.5995  -37.0047 H         1 UNK         0.0786 
     95 H95        22.9429  -28.9643  -37.6004 H         1 UNK         0.3172 
     96 H96        23.4857  -31.0624  -37.2494 H         1 UNK         0.0595 
     97 H97        25.1133  -31.6711  -35.5054 H         1 UNK         0.0839 
     98 H98        25.8563  -30.0813  -35.5744 H         1 UNK         0.0839 
     99 H99        24.2065  -30.2647  -34.9794 H         1 UNK         0.0839 
    100 H100       24.6839  -29.5795  -39.5649 H         1 UNK         0.2998 
    101 H101       26.8453  -31.5257  -40.3024 H         1 UNK         0.0822 
    102 H102       27.8355  -29.6143  -41.6184 H         1 UNK         0.0787 
    103 H103       26.6675  -28.5266  -40.8748 H         1 UNK         0.0787 
    104 H104       27.8638  -29.3453  -39.8822 H         1 UNK         0.0787 
    105 H105       23.8524  -29.8562  -41.3217 H         1 UNK         0.3055 
    106 H106       23.5957  -31.8298  -43.4591 H         1 UNK         0.1106 
    107 H107       24.7477  -30.0635  -44.7268 H         1 UNK         0.0828 
    108 H108       23.0507  -30.0491  -45.1807 H         1 UNK         0.0828 
    109 H109       23.6756  -28.8249  -44.0870 H         1 UNK         0.0828 
    110 H110       21.5584  -32.4770  -43.5983 H         1 UNK         0.2931 
    111 H111       19.2646  -30.8231  -42.9833 H         1 UNK         0.0412 
    112 H112       17.3179  -31.7426  -44.0091 H         1 UNK         0.3472 
    113 H113       17.4869  -33.0077  -45.1933 H         1 UNK         0.3472 
    114 H114       19.9570  -33.3419  -41.3690 H         1 UNK         0.0970 
    115 H115       18.2985  -32.9069  -41.6283 H         1 UNK         0.0970 
    116 H116       17.4598  -30.5978  -38.9125 H         1 UNK         0.0612 
    117 H117       17.0141  -31.9116  -39.9646 H         1 UNK         0.0612 
@<TRIPOS>BOND
     1    1    2 1    
     2    1   62 1    
     3    1   63 1    
     4    1   64 1    
     5    2    3 2    
     6    2    4 am   BACKBONE|DICT|INTERRES
     7    4    5 1    
     8    4   65 1    
     9    5    6 1    
    10    5   25 1    
    11    5   66 1    
    12    6    7 1    
    13    6   67 1    
    14    6   68 1    
    15    7    8 1    
    16    8    9 1    
    17    8   69 1    
    18    8   70 1    
    19    9   10 ar   
    20    9   14 ar   
    21   10   11 ar   
    22   10   71 1    
    23   11   12 ar   
    24   11   61 1    
    25   12   13 ar   
    26   12   72 1    
    27   13   14 ar   
    28   13   15 1    
    29   14   73 1    
    30   15   16 1    
    31   15   74 1    
    32   15   75 1    
    33   16   17 1    
    34   17   18 1    
    35   17   76 1    
    36   17   77 1    
    37   18   19 1    
    38   18   27 1    
    39   18   78 1    
    40   19   20 am   BACKBONE|DICT|INTERRES
    41   19   79 1    
    42   20   21 2    
    43   20   22 1    
    44   22   23 1    
    45   22   24 1    
    46   22   80 1    
    47   23   81 1    
    48   23   82 1    
    49   23   83 1    
    50   24   25 am   BACKBONE|DICT|INTERRES
    51   24   84 1    
    52   25   26 2    
    53   27   28 2    
    54   27   29 am   BACKBONE|DICT|INTERRES
    55   29   30 1    
    56   29   85 1    
    57   30   31 1    
    58   30   32 1    
    59   30   86 1    
    60   31   87 1    
    61   31   88 1    
    62   31   89 1    
    63   32   33 2    
    64   32   34 am   BACKBONE|DICT|INTERRES
    65   34   35 1    
    66   34   90 1    
    67   35   36 1    
    68   35   37 1    
    69   35   91 1    
    70   36   92 1    
    71   36   93 1    
    72   36   94 1    
    73   37   38 2    
    74   37   39 am   BACKBONE|DICT|INTERRES
    75   39   40 1    
    76   39   95 1    
    77   40   41 1    
    78   40   42 1    
    79   40   96 1    
    80   41   97 1    
    81   41   98 1    
    82   41   99 1    
    83   42   43 2    
    84   42   44 am   BACKBONE|DICT|INTERRES
    85   44   45 1    
    86   44  100 1    
    87   45   46 1    
    88   45   47 1    
    89   45  101 1    
    90   46  102 1    
    91   46  103 1    
    92   46  104 1    
    93   47   48 2    
    94   47   49 am   BACKBONE|DICT|INTERRES
    95   49   50 1    
    96   49  105 1    
    97   50   51 1    
    98   50   52 1    
    99   50  106 1    
   100   51  107 1    
   101   51  108 1    
   102   51  109 1    
   103   52   53 2    
   104   52   54 am   BACKBONE|DICT|INTERRES
   105   54   55 1    
   106   54  110 1    
   107   55   56 1    
   108   55   59 1    
   109   55  111 1    
   110   56   57 am   BACKBONE|DICT|INTERRES
   111   56   58 2    
   112   57  112 1    
   113   57  113 1    
   114   59   60 1    
   115   59  114 1    
   116   59  115 1    
   117   60   61 1    
   118   61  116 1    
   119   61  117 1    
@<TRIPOS>SUBSTRUCTURE
     1 UNK         1 GROUP             0       ****    0 ROOT    
