@<TRIPOS>MOLECULE
3R8
117   119    1
SMALL
USER_CHARGES


@<TRIPOS>ATOM
      1 CA         12.6000  -25.6002  -41.3233 C.3       0 UNK        -0.2013 
      2 C          13.8895  -25.5732  -42.1303 C.2       0 UNK         0.4866 
      3 O          14.8311  -24.8730  -41.7566 O.2       0 UNK        -0.5176 
      4 N          13.9376  -26.3227  -43.2387 N.am      1 UNK        -0.4884 
      5 CA         15.1206  -26.4732  -44.0909 C.3       1 UNK         0.0853 
      6 C6         14.7366  -27.0504  -45.4745 C.3       10 UNK        -0.0849 
      7 S7         16.0113  -26.7445  -46.7448 S.3       10 UNK        -0.2776 
      8 C8         16.2837  -28.4131  -47.4244 C.3       10 UNK         0.0316 
      9 C9         17.4513  -29.1333  -46.7622 C.ar      10 UNK        -0.0863 
     10 C10        17.2349  -30.0979  -45.7719 C.ar      10 UNK        -0.1009 
     11 C11        18.3094  -30.8202  -45.2388 C.ar      10 UNK        -0.0712 
     12 C12        19.6089  -30.5554  -45.6858 C.ar      10 UNK        -0.0894 
     13 C13        19.8364  -29.5936  -46.6747 C.ar      10 UNK        -0.0745 
     14 C14        18.7543  -28.8836  -47.2028 C.ar      10 UNK        -0.0972 
     15 C15        21.2328  -29.3721  -47.2401 C.3       10 UNK         0.0209 
     16 S16        21.9475  -27.7753  -46.7371 S.3       10 UNK        -0.2568 
     17 C17        22.8188  -28.1992  -45.1925 C.3       10 UNK        -0.0983 
     18 CA         22.2793  -27.3953  -43.9832 C.3       3 UNK         0.0876 
     19 N          20.9285  -27.8154  -43.6107 N.am      3 UNK        -0.4424 
     20 C          19.8684  -27.0102  -43.5115 C.2       2 UNK         0.4918 
     21 O          19.8769  -25.8063  -43.7796 O.2       2 UNK        -0.4875 
     22 CA         18.6002  -27.6535  -42.9510 C.3       2 UNK         0.0481 
     23 CB         18.6402  -27.6834  -41.4096 C.3       2 UNK        -0.1831 
     24 N          17.4380  -26.9186  -43.4327 N.am      2 UNK        -0.4498 
     25 C          16.1745  -27.3533  -43.3921 C.2       1 UNK         0.5027 
     26 O          15.8196  -28.4091  -42.8613 O.2       1 UNK        -0.4969 
     27 C          23.1704  -27.5328  -42.7350 C.2       3 UNK         0.5005 
     28 O          24.2037  -28.2021  -42.7813 O.2       3 UNK        -0.5279 
     29 N          22.7395  -26.9122  -41.6246 N.am      4 UNK        -0.4463 
     30 CA         23.2963  -27.0522  -40.2710 C.3       4 UNK         0.0283 
     31 CB         22.4712  -26.1980  -39.2957 C.3       4 UNK        -0.1875 
     32 C          24.7986  -26.7477  -40.1212 C.2       4 UNK         0.4949 
     33 O          25.4192  -27.2543  -39.1868 O.2       4 UNK        -0.5039 
     34 N          25.3631  -25.9591  -41.0459 N.am      5 UNK        -0.4663 
     35 CA         26.8029  -25.7083  -41.1594 C.3       5 UNK         0.0242 
     36 CB         27.0367  -24.5570  -42.1507 C.3       5 UNK        -0.1982 
     37 C          27.6100  -26.9535  -41.5791 C.2       5 UNK         0.5017 
     38 O          28.7906  -27.0391  -41.2391 O.2       5 UNK        -0.5012 
     39 N          26.9690  -27.8858  -42.2980 N.am      6 UNK        -0.4439 
     40 CA         27.5225  -29.1825  -42.6812 C.3       6 UNK         0.0297 
     41 CB         27.1465  -29.4992  -44.1398 C.3       6 UNK        -0.2006 
     42 C          27.0104  -30.2680  -41.7246 C.2       6 UNK         0.4892 
     43 O          27.8230  -30.9420  -41.0903 O.2       6 UNK        -0.5089 
     44 N          25.6817  -30.4007  -41.6193 N.am      7 UNK        -0.4243 
     45 CA         24.9849  -31.3359  -40.7398 C.3       7 UNK         0.0196 
     46 CB         25.1480  -32.7885  -41.2298 C.3       7 UNK        -0.2007 
     47 C          23.5046  -30.9526  -40.7080 C.2       7 UNK         0.5020 
     48 O          22.9048  -30.7529  -41.7662 O.2       7 UNK        -0.5147 
     49 N          22.9155  -30.8944  -39.5081 N.am      8 UNK        -0.4734 
     50 CA         21.5124  -30.5267  -39.2777 C.3       8 UNK         0.0238 
     51 CB         21.3673  -29.9794  -37.8454 C.3       8 UNK        -0.1912 
     52 C          20.5335  -31.6804  -39.5830 C.2       8 UNK         0.5038 
     53 O          19.7072  -32.0295  -38.7383 O.2       8 UNK        -0.5046 
     54 N          20.6575  -32.2487  -40.7882 N.am      9 UNK        -0.4200 
     55 CA         19.8184  -33.3148  -41.3634 C.3       9 UNK         0.0839 
     56 C          19.9351  -34.7002  -40.6582 C.2       9 UNK         0.5513 
     57 N          20.9531  -34.9428  -39.8413 N.am      9 UNK        -0.7519 
     58 O          19.1109  -35.5840  -40.8794 O.2       9 UNK        -0.4960 
     59 C59        18.3415  -32.8746  -41.5851 C.3       10 UNK        -0.0876 
     60 S60        18.2109  -31.3119  -42.5182 S.3       10 UNK        -0.2414 
     61 C61        18.0681  -31.9259  -44.2206 C.3       10 UNK         0.0169 
     62 H62        12.7953  -25.9707  -40.3173 H         1 UNK         0.0903 
     63 H63        12.1869  -24.5951  -41.2421 H         1 UNK         0.0903 
     64 H64        11.8455  -26.2405  -41.7799 H         1 UNK         0.0903 
     65 H65        13.1476  -26.9058  -43.4768 H         1 UNK         0.3096 
     66 H66        15.5397  -25.4748  -44.2393 H         1 UNK         0.1121 
     67 H67        13.8231  -26.5730  -45.8333 H         1 UNK         0.0849 
     68 H68        14.5039  -28.1148  -45.4030 H         1 UNK         0.0849 
     69 H69        15.3721  -29.0086  -47.3571 H         1 UNK         0.0865 
     70 H70        16.4868  -28.3164  -48.4922 H         1 UNK         0.0865 
     71 H71        16.2292  -30.3062  -45.4330 H         1 UNK         0.1346 
     72 H72        20.4387  -31.1217  -45.2851 H         1 UNK         0.1412 
     73 H73        18.9261  -28.1515  -47.9805 H         1 UNK         0.1426 
     74 H74        21.9037  -30.1881  -46.9673 H         1 UNK         0.0716 
     75 H75        21.1738  -29.3907  -48.3293 H         1 UNK         0.0716 
     76 H76        23.8750  -27.9794  -45.3607 H         1 UNK         0.0695 
     77 H77        22.7592  -29.2717  -44.9988 H         1 UNK         0.0695 
     78 H78        22.2943  -26.3364  -44.2510 H         1 UNK         0.0983 
     79 H79        20.8335  -28.7859  -43.3460 H         1 UNK         0.3095 
     80 H80        18.5428  -28.6670  -43.3433 H         1 UNK         0.0454 
     81 H81        17.7834  -28.2160  -40.9974 H         1 UNK         0.0851 
     82 H82        18.6439  -26.6775  -40.9884 H         1 UNK         0.0851 
     83 H83        19.5329  -28.1944  -41.0483 H         1 UNK         0.0851 
     84 H84        17.6640  -26.0512  -43.9043 H         1 UNK         0.2976 
     85 H85        21.8973  -26.3597  -41.6998 H         1 UNK         0.3116 
     86 H86        23.1679  -28.0961  -39.9864 H         1 UNK         0.0646 
     87 H87        21.4238  -26.5003  -39.2882 H         1 UNK         0.0847 
     88 H88        22.8409  -26.3029  -38.2745 H         1 UNK         0.0847 
     89 H89        22.5160  -25.1385  -39.5503 H         1 UNK         0.0847 
     90 H90        24.7728  -25.5786  -41.7711 H         1 UNK         0.3040 
     91 H91        27.1707  -25.3983  -40.1785 H         1 UNK         0.1015 
     92 H92        26.6754  -24.8041  -43.1499 H         1 UNK         0.0786 
     93 H93        28.0996  -24.3265  -42.2367 H         1 UNK         0.0786 
     94 H94        26.5349  -23.6450  -41.8265 H         1 UNK         0.0786 
     95 H95        25.9754  -27.7604  -42.4809 H         1 UNK         0.3172 
     96 H96        28.6125  -29.1614  -42.6170 H         1 UNK         0.0595 
     97 H97        26.0670  -29.5198  -44.2934 H         1 UNK         0.0839 
     98 H98        27.5370  -30.4727  -44.4393 H         1 UNK         0.0839 
     99 H99        27.5640  -28.7592  -44.8225 H         1 UNK         0.0839 
    100 H100       25.0726  -29.7775  -42.1486 H         1 UNK         0.2998 
    101 H101       25.4024  -31.2419  -39.7351 H         1 UNK         0.0822 
    102 H102       24.5801  -33.4784  -40.6043 H         1 UNK         0.0787 
    103 H103       24.7923  -32.9076  -42.2542 H         1 UNK         0.0787 
    104 H104       26.1885  -33.1111  -41.1982 H         1 UNK         0.0787 
    105 H105       23.4593  -31.1201  -38.6867 H         1 UNK         0.3055 
    106 H106       21.2504  -29.7167  -39.9623 H         1 UNK         0.1106 
    107 H107       22.0247  -29.1260  -37.6774 H         1 UNK         0.0828 
    108 H108       20.3478  -29.6396  -37.6575 H         1 UNK         0.0828 
    109 H109       21.6015  -30.7378  -37.0974 H         1 UNK         0.0828 
    110 H110       21.3863  -31.8832  -41.3939 H         1 UNK         0.2931 
    111 H111       20.2427  -33.4882  -42.3528 H         1 UNK         0.0412 
    112 H112       21.0277  -35.8451  -39.3981 H         1 UNK         0.3472 
    113 H113       21.6362  -34.2274  -39.6523 H         1 UNK         0.3472 
    114 H114       17.7799  -33.6471  -42.1135 H         1 UNK         0.0970 
    115 H115       17.8379  -32.7425  -40.6262 H         1 UNK         0.0970 
    116 H116       18.7881  -32.7306  -44.3776 H         1 UNK         0.0612 
    117 H117       17.0792  -32.3647  -44.3619 H         1 UNK         0.0612 
@<TRIPOS>BOND
     1    1    2 1    
     2    1   62 1    
     3    1   63 1    
     4    1   64 1    
     5    2    3 2    
     6    2    4 am   BACKBONE|DICT|INTERRES
     7    4    5 1    
     8    4   65 1    
     9    5    6 1    
    10    5   25 1    
    11    5   66 1    
    12    6    7 1    
    13    6   67 1    
    14    6   68 1    
    15    7    8 1    
    16    8    9 1    
    17    8   69 1    
    18    8   70 1    
    19    9   10 ar   
    20    9   14 ar   
    21   10   11 ar   
    22   10   71 1    
    23   11   12 ar   
    24   11   61 1    
    25   12   13 ar   
    26   12   72 1    
    27   13   14 ar   
    28   13   15 1    
    29   14   73 1    
    30   15   16 1    
    31   15   74 1    
    32   15   75 1    
    33   16   17 1    
    34   17   18 1    
    35   17   76 1    
    36   17   77 1    
    37   18   19 1    
    38   18   27 1    
    39   18   78 1    
    40   19   20 am   BACKBONE|DICT|INTERRES
    41   19   79 1    
    42   20   21 2    
    43   20   22 1    
    44   22   23 1    
    45   22   24 1    
    46   22   80 1    
    47   23   81 1    
    48   23   82 1    
    49   23   83 1    
    50   24   25 am   BACKBONE|DICT|INTERRES
    51   24   84 1    
    52   25   26 2    
    53   27   28 2    
    54   27   29 am   BACKBONE|DICT|INTERRES
    55   29   30 1    
    56   29   85 1    
    57   30   31 1    
    58   30   32 1    
    59   30   86 1    
    60   31   87 1    
    61   31   88 1    
    62   31   89 1    
    63   32   33 2    
    64   32   34 am   BACKBONE|DICT|INTERRES
    65   34   35 1    
    66   34   90 1    
    67   35   36 1    
    68   35   37 1    
    69   35   91 1    
    70   36   92 1    
    71   36   93 1    
    72   36   94 1    
    73   37   38 2    
    74   37   39 am   BACKBONE|DICT|INTERRES
    75   39   40 1    
    76   39   95 1    
    77   40   41 1    
    78   40   42 1    
    79   40   96 1    
    80   41   97 1    
    81   41   98 1    
    82   41   99 1    
    83   42   43 2    
    84   42   44 am   BACKBONE|DICT|INTERRES
    85   44   45 1    
    86   44  100 1    
    87   45   46 1    
    88   45   47 1    
    89   45  101 1    
    90   46  102 1    
    91   46  103 1    
    92   46  104 1    
    93   47   48 2    
    94   47   49 am   BACKBONE|DICT|INTERRES
    95   49   50 1    
    96   49  105 1    
    97   50   51 1    
    98   50   52 1    
    99   50  106 1    
   100   51  107 1    
   101   51  108 1    
   102   51  109 1    
   103   52   53 2    
   104   52   54 am   BACKBONE|DICT|INTERRES
   105   54   55 1    
   106   54  110 1    
   107   55   56 1    
   108   55   59 1    
   109   55  111 1    
   110   56   57 am   BACKBONE|DICT|INTERRES
   111   56   58 2    
   112   57  112 1    
   113   57  113 1    
   114   59   60 1    
   115   59  114 1    
   116   59  115 1    
   117   60   61 1    
   118   61  116 1    
   119   61  117 1    
@<TRIPOS>SUBSTRUCTURE
     1 UNK         1 GROUP             0       ****    0 ROOT    
