@<TRIPOS>MOLECULE
3R8
117   119    1
SMALL
USER_CHARGES


@<TRIPOS>ATOM
      1 CA         18.7919  -22.0888  -46.2780 C.3       0 UNK        -0.2013 
      2 C          18.7482  -23.5961  -46.0738 C.2       0 UNK         0.4866 
      3 O          18.3690  -24.0496  -44.9936 O.2       0 UNK        -0.5176 
      4 N          19.1246  -24.3626  -47.1090 N.am      1 UNK        -0.4884 
      5 CA         19.2262  -25.8300  -47.1407 C.3       1 UNK         0.0853 
      6 C6         17.9082  -26.5354  -46.7069 C.3       10 UNK        -0.0849 
      7 S7         17.7014  -28.2083  -47.4107 S.3       10 UNK        -0.2776 
      8 C8         16.1936  -28.7773  -46.5606 C.3       10 UNK         0.0316 
      9 C9         16.4399  -29.1217  -45.0964 C.ar      10 UNK        -0.0863 
     10 C10        16.8604  -30.4051  -44.7311 C.ar      10 UNK        -0.1009 
     11 C11        17.0398  -30.7428  -43.3840 C.ar      10 UNK        -0.0712 
     12 C12        16.7728  -29.7836  -42.4007 C.ar      10 UNK        -0.0894 
     13 C13        16.4259  -28.4766  -42.7566 C.ar      10 UNK        -0.0745 
     14 C14        16.2318  -28.1608  -44.1033 C.ar      10 UNK        -0.0972 
     15 C15        16.3000  -27.3930  -41.6941 C.3       10 UNK         0.0209 
     16 S16        17.8238  -27.2055  -40.7035 S.3       10 UNK        -0.2568 
     17 C17        19.1172  -26.8843  -41.9612 C.3       10 UNK        -0.0983 
     18 CA         19.9178  -28.1479  -42.3864 C.3       3 UNK         0.0876 
     19 N          20.6232  -27.9208  -43.6489 N.am      3 UNK        -0.4424 
     20 C          21.1470  -28.8764  -44.4284 C.2       2 UNK         0.4918 
     21 O          21.1391  -30.0728  -44.1421 O.2       2 UNK        -0.4875 
     22 CA         21.7359  -28.4136  -45.7766 C.3       2 UNK         0.0481 
     23 CB         22.2038  -29.5905  -46.6550 C.3       2 UNK        -0.1831 
     24 N          20.7449  -27.6446  -46.5298 N.am      2 UNK        -0.4498 
     25 C          20.4500  -26.3523  -46.3515 C.2       1 UNK         0.5027 
     26 O          21.0806  -25.6216  -45.5826 O.2       1 UNK        -0.4969 
     27 C          20.8558  -28.6799  -41.2822 C.2       3 UNK         0.5005 
     28 O          22.0805  -28.5940  -41.4067 O.2       3 UNK        -0.5279 
     29 N          20.2610  -29.2100  -40.2059 N.am      4 UNK        -0.4463 
     30 CA         20.9288  -29.8587  -39.0752 C.3       4 UNK         0.0283 
     31 CB         19.8763  -30.3176  -38.0551 C.3       4 UNK        -0.1875 
     32 C          22.0103  -29.0039  -38.3920 C.2       4 UNK         0.4949 
     33 O          23.0359  -29.5431  -37.9792 O.2       4 UNK        -0.5039 
     34 N          21.7805  -27.6872  -38.3228 N.am      5 UNK        -0.4663 
     35 CA         22.7286  -26.7102  -37.7833 C.3       5 UNK         0.0242 
     36 CB         21.9514  -25.4487  -37.3709 C.3       5 UNK        -0.1982 
     37 C          23.8647  -26.3426  -38.7581 C.2       5 UNK         0.5017 
     38 O          24.8571  -25.7641  -38.3136 O.2       5 UNK        -0.5012 
     39 N          23.6984  -26.6446  -40.0535 N.am      6 UNK        -0.4439 
     40 CA         24.6201  -26.2671  -41.1254 C.3       6 UNK         0.0297 
     41 CB         23.8190  -25.6689  -42.2958 C.3       6 UNK        -0.2006 
     42 C          25.4619  -27.4556  -41.6097 C.2       6 UNK         0.4892 
     43 O          26.6734  -27.3019  -41.7700 O.2       6 UNK        -0.5089 
     44 N          24.8145  -28.6015  -41.8602 N.am      7 UNK        -0.4243 
     45 CA         25.4197  -29.7669  -42.5118 C.3       7 UNK         0.0196 
     46 CB         25.2391  -29.6383  -44.0358 C.3       7 UNK        -0.2007 
     47 C          24.8804  -31.1044  -41.9772 C.2       7 UNK         0.5020 
     48 O          25.0267  -32.1243  -42.6537 O.2       7 UNK        -0.5147 
     49 N          24.2642  -31.0959  -40.7844 N.am      8 UNK        -0.4734 
     50 CA         23.7669  -32.2669  -40.0393 C.3       8 UNK         0.0238 
     51 CB         24.9493  -33.1576  -39.5992 C.3       8 UNK        -0.1912 
     52 C          22.6707  -33.0899  -40.7544 C.2       8 UNK         0.5038 
     53 O          22.3998  -34.2129  -40.3258 O.2       8 UNK        -0.5046 
     54 N          22.0740  -32.5432  -41.8254 N.am      9 UNK        -0.4200 
     55 CA         21.1819  -33.2478  -42.7653 C.3       9 UNK         0.0839 
     56 C          21.8719  -34.4265  -43.5199 C.2       9 UNK         0.5513 
     57 N          23.1916  -34.4166  -43.6805 N.am      9 UNK        -0.7519 
     58 O          21.2096  -35.3467  -43.9931 O.2       9 UNK        -0.4960 
     59 C59        19.8011  -33.6126  -42.1444 C.3       10 UNK        -0.0876 
     60 S60        18.8437  -32.1134  -41.7321 S.3       10 UNK        -0.2414 
     61 C61        17.5336  -32.1380  -43.0080 C.3       10 UNK         0.0169 
     62 H62        19.4732  -21.6338  -45.5595 H         1 UNK         0.0903 
     63 H63        19.1271  -21.8203  -47.2798 H         1 UNK         0.0903 
     64 H64        17.8012  -21.6610  -46.1263 H         1 UNK         0.0903 
     65 H65        19.4421  -23.9039  -47.9523 H         1 UNK         0.3096 
     66 H66        19.4120  -26.0717  -48.1889 H         1 UNK         0.1121 
     67 H67        17.8486  -26.5844  -45.6195 H         1 UNK         0.0849 
     68 H68        17.0473  -25.9470  -47.0287 H         1 UNK         0.0849 
     69 H69        15.4157  -28.0170  -46.6482 H         1 UNK         0.0865 
     70 H70        15.8106  -29.6565  -47.0811 H         1 UNK         0.0865 
     71 H71        17.0465  -31.1424  -45.5002 H         1 UNK         0.1346 
     72 H72        16.9051  -30.0326  -41.3569 H         1 UNK         0.1412 
     73 H73        15.9309  -27.1598  -44.3812 H         1 UNK         0.1426 
     74 H74        15.4723  -27.6410  -41.0285 H         1 UNK         0.0716 
     75 H75        16.0568  -26.4296  -42.1451 H         1 UNK         0.0716 
     76 H76        18.6299  -26.4408  -42.8318 H         1 UNK         0.0695 
     77 H77        19.7914  -26.1154  -41.5794 H         1 UNK         0.0695 
     78 H78        19.2165  -28.9529  -42.5948 H         1 UNK         0.0983 
     79 H79        20.7016  -26.9615  -43.9634 H         1 UNK         0.3095 
     80 H80        22.6021  -27.7846  -45.5609 H         1 UNK         0.0454 
     81 H81        21.3757  -30.2499  -46.9179 H         1 UNK         0.0851 
     82 H82        22.6576  -29.2373  -47.5809 H         1 UNK         0.0851 
     83 H83        22.9489  -30.2007  -46.1452 H         1 UNK         0.0851 
     84 H84        20.1274  -28.1834  -47.1238 H         1 UNK         0.2976 
     85 H85        19.2504  -29.1901  -40.1758 H         1 UNK         0.3116 
     86 H86        21.4102  -30.7474  -39.4763 H         1 UNK         0.0646 
     87 H87        20.3453  -30.8271  -37.2121 H         1 UNK         0.0847 
     88 H88        19.1708  -31.0189  -38.5015 H         1 UNK         0.0847 
     89 H89        19.3082  -29.4775  -37.6537 H         1 UNK         0.0847 
     90 H90        20.9093  -27.3306  -38.6893 H         1 UNK         0.3040 
     91 H91        23.1948  -27.1313  -36.8893 H         1 UNK         0.1015 
     92 H92        21.1880  -25.6780  -36.6272 H         1 UNK         0.0786 
     93 H93        21.4603  -24.9794  -38.2244 H         1 UNK         0.0786 
     94 H94        22.6171  -24.7056  -36.9293 H         1 UNK         0.0786 
     95 H95        22.8937  -27.1990  -40.3278 H         1 UNK         0.3172 
     96 H96        25.3091  -25.4961  -40.7738 H         1 UNK         0.0595 
     97 H97        23.2660  -24.7827  -41.9843 H         1 UNK         0.0839 
     98 H98        23.1029  -26.3797  -42.7096 H         1 UNK         0.0839 
     99 H99        24.4817  -25.3669  -43.1080 H         1 UNK         0.0839 
    100 H100       23.8041  -28.6363  -41.7165 H         1 UNK         0.2998 
    101 H101       26.4902  -29.7854  -42.2972 H         1 UNK         0.0822 
    102 H102       25.6895  -28.7210  -44.4152 H         1 UNK         0.0787 
    103 H103       25.7057  -30.4688  -44.5671 H         1 UNK         0.0787 
    104 H104       24.1831  -29.6278  -44.2999 H         1 UNK         0.0787 
    105 H105       24.1793  -30.2098  -40.3040 H         1 UNK         0.3055 
    106 H106       23.3107  -31.8889  -39.1256 H         1 UNK         0.1106 
    107 H107       25.4239  -33.6513  -40.4478 H         1 UNK         0.0828 
    108 H108       25.7112  -32.5776  -39.0786 H         1 UNK         0.0828 
    109 H109       24.6198  -33.9396  -38.9139 H         1 UNK         0.0828 
    110 H110       22.3550  -31.6160  -42.1102 H         1 UNK         0.2931 
    111 H111       20.9811  -32.5356  -43.5635 H         1 UNK         0.0412 
    112 H112       23.6344  -35.1733  -44.1770 H         1 UNK         0.3472 
    113 H113       23.7529  -33.6562  -43.3124 H         1 UNK         0.3472 
    114 H114       19.9254  -34.2127  -41.2425 H         1 UNK         0.0970 
    115 H115       19.2120  -34.2283  -42.8254 H         1 UNK         0.0970 
    116 H116       17.9170  -32.6387  -43.8983 H         1 UNK         0.0612 
    117 H117       16.6943  -32.7343  -42.6485 H         1 UNK         0.0612 
@<TRIPOS>BOND
     1    1    2 1    
     2    1   62 1    
     3    1   63 1    
     4    1   64 1    
     5    2    3 2    
     6    2    4 am   BACKBONE|DICT|INTERRES
     7    4    5 1    
     8    4   65 1    
     9    5    6 1    
    10    5   25 1    
    11    5   66 1    
    12    6    7 1    
    13    6   67 1    
    14    6   68 1    
    15    7    8 1    
    16    8    9 1    
    17    8   69 1    
    18    8   70 1    
    19    9   10 ar   
    20    9   14 ar   
    21   10   11 ar   
    22   10   71 1    
    23   11   12 ar   
    24   11   61 1    
    25   12   13 ar   
    26   12   72 1    
    27   13   14 ar   
    28   13   15 1    
    29   14   73 1    
    30   15   16 1    
    31   15   74 1    
    32   15   75 1    
    33   16   17 1    
    34   17   18 1    
    35   17   76 1    
    36   17   77 1    
    37   18   19 1    
    38   18   27 1    
    39   18   78 1    
    40   19   20 am   BACKBONE|DICT|INTERRES
    41   19   79 1    
    42   20   21 2    
    43   20   22 1    
    44   22   23 1    
    45   22   24 1    
    46   22   80 1    
    47   23   81 1    
    48   23   82 1    
    49   23   83 1    
    50   24   25 am   BACKBONE|DICT|INTERRES
    51   24   84 1    
    52   25   26 2    
    53   27   28 2    
    54   27   29 am   BACKBONE|DICT|INTERRES
    55   29   30 1    
    56   29   85 1    
    57   30   31 1    
    58   30   32 1    
    59   30   86 1    
    60   31   87 1    
    61   31   88 1    
    62   31   89 1    
    63   32   33 2    
    64   32   34 am   BACKBONE|DICT|INTERRES
    65   34   35 1    
    66   34   90 1    
    67   35   36 1    
    68   35   37 1    
    69   35   91 1    
    70   36   92 1    
    71   36   93 1    
    72   36   94 1    
    73   37   38 2    
    74   37   39 am   BACKBONE|DICT|INTERRES
    75   39   40 1    
    76   39   95 1    
    77   40   41 1    
    78   40   42 1    
    79   40   96 1    
    80   41   97 1    
    81   41   98 1    
    82   41   99 1    
    83   42   43 2    
    84   42   44 am   BACKBONE|DICT|INTERRES
    85   44   45 1    
    86   44  100 1    
    87   45   46 1    
    88   45   47 1    
    89   45  101 1    
    90   46  102 1    
    91   46  103 1    
    92   46  104 1    
    93   47   48 2    
    94   47   49 am   BACKBONE|DICT|INTERRES
    95   49   50 1    
    96   49  105 1    
    97   50   51 1    
    98   50   52 1    
    99   50  106 1    
   100   51  107 1    
   101   51  108 1    
   102   51  109 1    
   103   52   53 2    
   104   52   54 am   BACKBONE|DICT|INTERRES
   105   54   55 1    
   106   54  110 1    
   107   55   56 1    
   108   55   59 1    
   109   55  111 1    
   110   56   57 am   BACKBONE|DICT|INTERRES
   111   56   58 2    
   112   57  112 1    
   113   57  113 1    
   114   59   60 1    
   115   59  114 1    
   116   59  115 1    
   117   60   61 1    
   118   61  116 1    
   119   61  117 1    
@<TRIPOS>SUBSTRUCTURE
     1 UNK         1 GROUP             0       ****    0 ROOT    
