@<TRIPOS>MOLECULE
3R8
117   119    1
SMALL
USER_CHARGES


@<TRIPOS>ATOM
      1 CA         18.5135  -25.7673  -39.3222 C.3       0 UNK        -0.2013 
      2 C          17.7486  -25.6812  -40.6341 C.2       0 UNK         0.4866 
      3 O          17.0378  -24.7028  -40.8647 O.2       0 UNK        -0.5176 
      4 N          17.8924  -26.6925  -41.4998 N.am      1 UNK        -0.4884 
      5 CA         17.2243  -26.7755  -42.8071 C.3       1 UNK         0.0853 
      6 C6         17.1452  -28.2312  -43.3210 C.3       10 UNK        -0.0849 
      7 S7         16.2600  -29.3657  -42.1941 S.3       10 UNK        -0.2776 
      8 C8         15.8107  -30.7286  -43.3244 C.3       10 UNK         0.0316 
      9 C9         17.0130  -31.1992  -44.1294 C.ar      10 UNK        -0.0863 
     10 C10        17.9897  -32.0018  -43.5366 C.ar      10 UNK        -0.1009 
     11 C11        19.1586  -32.3269  -44.2321 C.ar      10 UNK        -0.0712 
     12 C12        19.3290  -31.8722  -45.5440 C.ar      10 UNK        -0.0894 
     13 C13        18.3472  -31.0843  -46.1517 C.ar      10 UNK        -0.0745 
     14 C14        17.1841  -30.7681  -45.4469 C.ar      10 UNK        -0.0972 
     15 C15        18.5476  -30.5315  -47.5529 C.3       10 UNK         0.0209 
     16 S16        18.8581  -28.7377  -47.5090 S.3       10 UNK        -0.2568 
     17 C17        20.5875  -28.6923  -46.9394 C.3       10 UNK        -0.0983 
     18 CA         21.1196  -27.2397  -46.8829 C.3       3 UNK         0.0876 
     19 N          20.5117  -26.4710  -45.7863 N.am      3 UNK        -0.4424 
     20 C          20.5011  -25.1319  -45.7072 C.2       2 UNK         0.4918 
     21 O          20.9665  -24.4024  -46.5834 O.2       2 UNK        -0.4875 
     22 CA         19.9353  -24.4949  -44.4193 C.3       2 UNK         0.0481 
     23 CB         19.2166  -23.1560  -44.6903 C.3       2 UNK        -0.1831 
     24 N          19.1084  -25.3899  -43.5961 N.am      2 UNK        -0.4498 
     25 C          17.8884  -25.8770  -43.8763 C.2       1 UNK         0.5027 
     26 O          17.2906  -25.6584  -44.9302 O.2       1 UNK        -0.4969 
     27 C          22.6650  -27.2159  -46.8523 C.2       3 UNK         0.5005 
     28 O          23.2827  -27.4497  -47.8928 O.2       3 UNK        -0.5279 
     29 N          23.2656  -26.9138  -45.6927 N.am      4 UNK        -0.4463 
     30 CA         24.6969  -26.6656  -45.5325 C.3       4 UNK         0.0283 
     31 CB         25.5258  -27.9656  -45.4677 C.3       4 UNK        -0.1875 
     32 C          24.9740  -25.6896  -44.3753 C.2       4 UNK         0.4949 
     33 O          25.6839  -24.7130  -44.6056 O.2       4 UNK        -0.5039 
     34 N          24.4157  -25.8571  -43.1670 N.am      5 UNK        -0.4663 
     35 CA         23.7722  -27.0299  -42.5755 C.3       5 UNK         0.0242 
     36 CB         22.2783  -26.7430  -42.3545 C.3       5 UNK        -0.1982 
     37 C          24.4580  -27.2944  -41.2283 C.2       5 UNK         0.5017 
     38 O          24.8921  -26.3416  -40.5746 O.2       5 UNK        -0.5012 
     39 N          24.5297  -28.5666  -40.8287 N.am      6 UNK        -0.4439 
     40 CA         25.1202  -29.0268  -39.5761 C.3       6 UNK         0.0297 
     41 CB         26.6577  -29.0446  -39.6912 C.3       6 UNK        -0.2006 
     42 C          24.5781  -30.4250  -39.2618 C.2       6 UNK         0.4892 
     43 O          24.0188  -31.0766  -40.1501 O.2       6 UNK        -0.5089 
     44 N          24.7785  -30.8585  -38.0089 N.am      7 UNK        -0.4243 
     45 CA         24.4112  -32.1677  -37.4579 C.3       7 UNK         0.0196 
     46 CB         25.3424  -33.2644  -38.0265 C.3       7 UNK        -0.2007 
     47 C          22.9081  -32.4566  -37.6337 C.2       7 UNK         0.5020 
     48 O          22.0870  -31.6698  -37.1590 O.2       7 UNK        -0.5147 
     49 N          22.5703  -33.5487  -38.3321 N.am      8 UNK        -0.4734 
     50 CA         21.2000  -33.9663  -38.6447 C.3       8 UNK         0.0238 
     51 CB         21.2381  -35.3466  -39.3211 C.3       8 UNK        -0.1912 
     52 C          20.4139  -32.9679  -39.5147 C.2       8 UNK         0.5038 
     53 O          19.1830  -32.9980  -39.4811 O.2       8 UNK        -0.5046 
     54 N          21.1202  -32.1123  -40.2661 N.am      9 UNK        -0.4200 
     55 CA         20.5264  -31.0379  -41.0731 C.3       9 UNK         0.0839 
     56 C          20.2619  -29.7290  -40.2760 C.2       9 UNK         0.5513 
     57 N          20.6335  -29.6273  -39.0044 N.am      9 UNK        -0.7519 
     58 O          19.7033  -28.7836  -40.8256 O.2       9 UNK        -0.4960 
     59 C59        21.3305  -30.7553  -42.3716 C.3       10 UNK        -0.0876 
     60 S60        21.8054  -32.2247  -43.3548 S.3       10 UNK        -0.2414 
     61 C61        20.2453  -33.1502  -43.5556 C.3       10 UNK         0.0169 
     62 H62        19.1904  -24.9189  -39.2255 H         1 UNK         0.0903 
     63 H63        17.8199  -25.7484  -38.4820 H         1 UNK         0.0903 
     64 H64        19.1033  -26.6806  -39.2530 H         1 UNK         0.0903 
     65 H65        18.4825  -27.4875  -41.2530 H         1 UNK         0.3096 
     66 H66        16.2020  -26.4089  -42.6890 H         1 UNK         0.1121 
     67 H67        16.6363  -28.2522  -44.2866 H         1 UNK         0.0849 
     68 H68        18.1470  -28.6324  -43.4898 H         1 UNK         0.0849 
     69 H69        15.4048  -31.5586  -42.7443 H         1 UNK         0.0865 
     70 H70        15.0094  -30.3971  -43.9868 H         1 UNK         0.0865 
     71 H71        17.8522  -32.3381  -42.5180 H         1 UNK         0.1346 
     72 H72        20.2384  -32.1108  -46.0786 H         1 UNK         0.1412 
     73 H73        16.4372  -30.1380  -45.9106 H         1 UNK         0.1426 
     74 H74        17.6515  -30.7212  -48.1456 H         1 UNK         0.0716 
     75 H75        19.3678  -31.0375  -48.0646 H         1 UNK         0.0716 
     76 H76        21.1731  -29.2972  -47.6350 H         1 UNK         0.0695 
     77 H77        20.6667  -29.1770  -45.9644 H         1 UNK         0.0695 
     78 H78        20.8424  -26.7486  -47.8190 H         1 UNK         0.0983 
     79 H79        20.0646  -27.0032  -45.0560 H         1 UNK         0.3095 
     80 H80        20.8073  -24.2653  -43.8054 H         1 UNK         0.0454 
     81 H81        19.8964  -22.4293  -45.1368 H         1 UNK         0.0851 
     82 H82        18.3782  -23.2754  -45.3769 H         1 UNK         0.0851 
     83 H83        18.8364  -22.7154  -43.7688 H         1 UNK         0.0851 
     84 H84        19.4892  -25.6332  -42.6921 H         1 UNK         0.2976 
     85 H85        22.6925  -26.6883  -44.8931 H         1 UNK         0.3116 
     86 H86        25.0303  -26.1356  -46.4282 H         1 UNK         0.0646 
     87 H87        26.5552  -27.7596  -45.1715 H         1 UNK         0.0847 
     88 H88        25.5677  -28.4437  -46.4464 H         1 UNK         0.0847 
     89 H89        25.1251  -28.7000  -44.7725 H         1 UNK         0.0847 
     90 H90        24.6613  -25.1735  -42.4616 H         1 UNK         0.3040 
     91 H91        23.8815  -27.9155  -43.1973 H         1 UNK         0.1015 
     92 H92        21.7512  -26.6097  -43.2941 H         1 UNK         0.0786 
     93 H93        22.1230  -25.8475  -41.7510 H         1 UNK         0.0786 
     94 H94        21.7980  -27.5702  -41.8337 H         1 UNK         0.0786 
     95 H95        24.1213  -29.3138  -41.3767 H         1 UNK         0.3172 
     96 H96        24.8173  -28.3550  -38.7699 H         1 UNK         0.0595 
     97 H97        27.0559  -28.0495  -39.8902 H         1 UNK         0.0839 
     98 H98        26.9918  -29.7042  -40.4932 H         1 UNK         0.0839 
     99 H99        27.1211  -29.3938  -38.7678 H         1 UNK         0.0839 
    100 H100       25.2145  -30.2237  -37.3544 H         1 UNK         0.2998 
    101 H101       24.5831  -32.1132  -36.3818 H         1 UNK         0.0822 
    102 H102       26.3871  -33.0312  -37.8198 H         1 UNK         0.0787 
    103 H103       25.1405  -34.2341  -37.5694 H         1 UNK         0.0787 
    104 H104       25.2420  -33.3734  -39.1073 H         1 UNK         0.0787 
    105 H105       23.3147  -34.1211  -38.7041 H         1 UNK         0.3055 
    106 H106       20.6593  -34.0591  -37.7000 H         1 UNK         0.1106 
    107 H107       21.7829  -35.3180  -40.2657 H         1 UNK         0.0828 
    108 H108       21.7106  -36.0917  -38.6807 H         1 UNK         0.0828 
    109 H109       20.2301  -35.7030  -39.5383 H         1 UNK         0.0828 
    110 H110       22.1325  -32.1209  -40.2172 H         1 UNK         0.2931 
    111 H111       19.5363  -31.3649  -41.3822 H         1 UNK         0.0412 
    112 H112       20.4479  -28.7730  -38.5056 H         1 UNK         0.3472 
    113 H113       21.0849  -30.3985  -38.5277 H         1 UNK         0.3472 
    114 H114       22.2506  -30.2227  -42.1307 H         1 UNK         0.0970 
    115 H115       20.7617  -30.0893  -43.0237 H         1 UNK         0.0970 
    116 H116       19.9141  -33.5132  -42.5818 H         1 UNK         0.0612 
    117 H117       20.4424  -34.0377  -44.1580 H         1 UNK         0.0612 
@<TRIPOS>BOND
     1    1    2 1    
     2    1   62 1    
     3    1   63 1    
     4    1   64 1    
     5    2    3 2    
     6    2    4 am   BACKBONE|DICT|INTERRES
     7    4    5 1    
     8    4   65 1    
     9    5    6 1    
    10    5   25 1    
    11    5   66 1    
    12    6    7 1    
    13    6   67 1    
    14    6   68 1    
    15    7    8 1    
    16    8    9 1    
    17    8   69 1    
    18    8   70 1    
    19    9   10 ar   
    20    9   14 ar   
    21   10   11 ar   
    22   10   71 1    
    23   11   12 ar   
    24   11   61 1    
    25   12   13 ar   
    26   12   72 1    
    27   13   14 ar   
    28   13   15 1    
    29   14   73 1    
    30   15   16 1    
    31   15   74 1    
    32   15   75 1    
    33   16   17 1    
    34   17   18 1    
    35   17   76 1    
    36   17   77 1    
    37   18   19 1    
    38   18   27 1    
    39   18   78 1    
    40   19   20 am   BACKBONE|DICT|INTERRES
    41   19   79 1    
    42   20   21 2    
    43   20   22 1    
    44   22   23 1    
    45   22   24 1    
    46   22   80 1    
    47   23   81 1    
    48   23   82 1    
    49   23   83 1    
    50   24   25 am   BACKBONE|DICT|INTERRES
    51   24   84 1    
    52   25   26 2    
    53   27   28 2    
    54   27   29 am   BACKBONE|DICT|INTERRES
    55   29   30 1    
    56   29   85 1    
    57   30   31 1    
    58   30   32 1    
    59   30   86 1    
    60   31   87 1    
    61   31   88 1    
    62   31   89 1    
    63   32   33 2    
    64   32   34 am   BACKBONE|DICT|INTERRES
    65   34   35 1    
    66   34   90 1    
    67   35   36 1    
    68   35   37 1    
    69   35   91 1    
    70   36   92 1    
    71   36   93 1    
    72   36   94 1    
    73   37   38 2    
    74   37   39 am   BACKBONE|DICT|INTERRES
    75   39   40 1    
    76   39   95 1    
    77   40   41 1    
    78   40   42 1    
    79   40   96 1    
    80   41   97 1    
    81   41   98 1    
    82   41   99 1    
    83   42   43 2    
    84   42   44 am   BACKBONE|DICT|INTERRES
    85   44   45 1    
    86   44  100 1    
    87   45   46 1    
    88   45   47 1    
    89   45  101 1    
    90   46  102 1    
    91   46  103 1    
    92   46  104 1    
    93   47   48 2    
    94   47   49 am   BACKBONE|DICT|INTERRES
    95   49   50 1    
    96   49  105 1    
    97   50   51 1    
    98   50   52 1    
    99   50  106 1    
   100   51  107 1    
   101   51  108 1    
   102   51  109 1    
   103   52   53 2    
   104   52   54 am   BACKBONE|DICT|INTERRES
   105   54   55 1    
   106   54  110 1    
   107   55   56 1    
   108   55   59 1    
   109   55  111 1    
   110   56   57 am   BACKBONE|DICT|INTERRES
   111   56   58 2    
   112   57  112 1    
   113   57  113 1    
   114   59   60 1    
   115   59  114 1    
   116   59  115 1    
   117   60   61 1    
   118   61  116 1    
   119   61  117 1    
@<TRIPOS>SUBSTRUCTURE
     1 UNK         1 GROUP             0       ****    0 ROOT    
