@<TRIPOS>MOLECULE
3R8
117   119    1
SMALL
USER_CHARGES


@<TRIPOS>ATOM
      1 CA         14.9307  -22.1612  -42.4491 C.3       0 UNK        -0.2013 
      2 C          15.5236  -22.8761  -43.6540 C.2       0 UNK         0.4866 
      3 O          15.8040  -22.2378  -44.6691 O.2       0 UNK        -0.5176 
      4 N          15.7080  -24.1978  -43.5542 N.am      1 UNK        -0.4884 
      5 CA         16.3339  -25.0454  -44.5719 C.3       1 UNK         0.0853 
      6 C6         16.0241  -26.5530  -44.3600 C.3       10 UNK        -0.0849 
      7 S7         16.0935  -27.1282  -42.6222 S.3       10 UNK        -0.2776 
      8 C8         15.8103  -28.9191  -42.8079 C.3       10 UNK         0.0316 
      9 C9         17.0758  -29.6363  -43.2515 C.ar      10 UNK        -0.0863 
     10 C10        17.9822  -30.1223  -42.3053 C.ar      10 UNK        -0.1009 
     11 C11        19.1691  -30.7406  -42.7104 C.ar      10 UNK        -0.0712 
     12 C12        19.4543  -30.8586  -44.0753 C.ar      10 UNK        -0.0894 
     13 C13        18.5482  -30.3851  -45.0294 C.ar      10 UNK        -0.0745 
     14 C14        17.3514  -29.7995  -44.6099 C.ar      10 UNK        -0.0972 
     15 C15        18.8428  -30.5000  -46.5167 C.3       10 UNK         0.0209 
     16 S16        18.9697  -28.8591  -47.3025 S.3       10 UNK        -0.2568 
     17 C17        20.7635  -28.5168  -47.2528 C.3       10 UNK        -0.0983 
     18 CA         21.2084  -27.4125  -46.2551 C.3       3 UNK         0.0876 
     19 N          20.3446  -26.2285  -46.3022 N.am      3 UNK        -0.4424 
     20 C          20.7361  -24.9772  -46.0317 C.2       2 UNK         0.4918 
     21 O          21.8853  -24.6751  -45.7105 O.2       2 UNK        -0.4875 
     22 CA         19.6684  -23.8737  -46.1276 C.3       2 UNK         0.0481 
     23 CB         19.7218  -23.2016  -47.5088 C.3       2 UNK        -0.1831 
     24 N          18.2982  -24.3296  -45.8641 N.am      2 UNK        -0.4498 
     25 C          17.8470  -24.7512  -44.6733 C.2       1 UNK         0.5027 
     26 O          18.5693  -24.8943  -43.6850 O.2       1 UNK        -0.4969 
     27 C          21.4612  -27.9473  -44.8278 C.2       3 UNK         0.5005 
     28 O          22.2281  -28.9015  -44.6817 O.2       3 UNK        -0.5279 
     29 N          20.8846  -27.3185  -43.7907 N.am      4 UNK        -0.4463 
     30 CA         21.0814  -27.6534  -42.3747 C.3       4 UNK         0.0283 
     31 CB         19.8994  -27.1057  -41.5566 C.3       4 UNK        -0.1875 
     32 C          22.4450  -27.1996  -41.8116 C.2       4 UNK         0.4949 
     33 O          22.5053  -26.6249  -40.7233 O.2       4 UNK        -0.5039 
     34 N          23.5248  -27.4707  -42.5523 N.am      5 UNK        -0.4663 
     35 CA         24.9053  -27.1822  -42.1735 C.3       5 UNK         0.0242 
     36 CB         25.8022  -27.2959  -43.4176 C.3       5 UNK        -0.1982 
     37 C          25.3608  -28.1455  -41.0686 C.2       5 UNK         0.5017 
     38 O          25.4964  -29.3414  -41.3329 O.2       5 UNK        -0.5012 
     39 N          25.5416  -27.6173  -39.8486 N.am      6 UNK        -0.4439 
     40 CA         26.0198  -28.3074  -38.6387 C.3       6 UNK         0.0297 
     41 CB         27.5158  -28.6571  -38.7906 C.3       6 UNK        -0.2006 
     42 C          25.1826  -29.5352  -38.2126 C.2       6 UNK         0.4892 
     43 O          25.6976  -30.3975  -37.4989 O.2       6 UNK        -0.5089 
     44 N          23.9203  -29.5983  -38.6671 N.am      7 UNK        -0.4243 
     45 CA         22.9836  -30.7221  -38.5366 C.3       7 UNK         0.0196 
     46 CB         22.5246  -30.8874  -37.0725 C.3       7 UNK        -0.2007 
     47 C          23.5171  -32.0355  -39.1511 C.2       7 UNK         0.5020 
     48 O          23.2387  -33.1157  -38.6272 O.2       7 UNK        -0.5147 
     49 N          24.2591  -31.9301  -40.2667 N.am      8 UNK        -0.4734 
     50 CA         24.9045  -33.0482  -40.9742 C.3       8 UNK         0.0238 
     51 CB         25.7758  -32.4885  -42.1105 C.3       8 UNK        -0.1912 
     52 C          23.9497  -34.1318  -41.5146 C.2       8 UNK         0.5038 
     53 O          24.4070  -35.2323  -41.8265 O.2       8 UNK        -0.5046 
     54 N          22.6532  -33.8132  -41.6013 N.am      9 UNK        -0.4200 
     55 CA         21.5594  -34.7546  -41.8748 C.3       9 UNK         0.0839 
     56 C          21.3067  -35.8047  -40.7504 C.2       9 UNK         0.5513 
     57 N          21.8103  -35.6186  -39.5347 N.am      9 UNK        -0.7519 
     58 O          20.6486  -36.8128  -40.9941 O.2       9 UNK        -0.4960 
     59 C59        20.2588  -34.0046  -42.2681 C.3       10 UNK        -0.0876 
     60 S60        19.6692  -32.8473  -40.9792 S.3       10 UNK        -0.2414 
     61 C61        20.1566  -31.2358  -41.6646 C.3       10 UNK         0.0169 
     62 H62        13.9982  -21.6698  -42.7255 H         1 UNK         0.0903 
     63 H63        14.7217  -22.8486  -41.6295 H         1 UNK         0.0903 
     64 H64        15.6223  -21.4013  -42.0864 H         1 UNK         0.0903 
     65 H65        15.4924  -24.6741  -42.6887 H         1 UNK         0.3096 
     66 H66        15.8864  -24.7691  -45.5297 H         1 UNK         0.1121 
     67 H67        15.0170  -26.7605  -44.7252 H         1 UNK         0.0849 
     68 H68        16.6881  -27.1615  -44.9741 H         1 UNK         0.0849 
     69 H69        15.4739  -29.3233  -41.8519 H         1 UNK         0.0865 
     70 H70        14.9978  -29.0972  -43.5141 H         1 UNK         0.0865 
     71 H71        17.7726  -30.0049  -41.2507 H         1 UNK         0.1346 
     72 H72        20.3854  -31.3065  -44.3944 H         1 UNK         0.1412 
     73 H73        16.6483  -29.4412  -45.3492 H         1 UNK         0.1426 
     74 H74        18.0274  -31.0484  -46.9904 H         1 UNK         0.0716 
     75 H75        19.7459  -31.0835  -46.7006 H         1 UNK         0.0716 
     76 H76        21.0353  -28.1956  -48.2595 H         1 UNK         0.0695 
     77 H77        21.3214  -29.4421  -47.0994 H         1 UNK         0.0695 
     78 H78        22.1985  -27.0951  -46.5913 H         1 UNK         0.0983 
     79 H79        19.3833  -26.3977  -46.5615 H         1 UNK         0.3095 
     80 H80        19.9142  -23.1193  -45.3771 H         1 UNK         0.0454 
     81 H81        20.7235  -22.8250  -47.7214 H         1 UNK         0.0851 
     82 H82        19.0418  -22.3513  -47.5641 H         1 UNK         0.0851 
     83 H83        19.4595  -23.8960  -48.3080 H         1 UNK         0.0851 
     84 H84        17.6402  -24.2259  -46.6238 H         1 UNK         0.2976 
     85 H85        20.2874  -26.5239  -43.9800 H         1 UNK         0.3116 
     86 H86        21.0687  -28.7379  -42.2866 H         1 UNK         0.0646 
     87 H87        19.8865  -26.0153  -41.5477 H         1 UNK         0.0847 
     88 H88        18.9479  -27.4454  -41.9622 H         1 UNK         0.0847 
     89 H89        19.9472  -27.4423  -40.5205 H         1 UNK         0.0847 
     90 H90        23.3795  -28.0102  -43.4012 H         1 UNK         0.3040 
     91 H91        24.9611  -26.1549  -41.8062 H         1 UNK         0.1015 
     92 H92        26.8438  -27.0903  -43.1673 H         1 UNK         0.0786 
     93 H93        25.5058  -26.5815  -44.1860 H         1 UNK         0.0786 
     94 H94        25.7628  -28.2942  -43.8562 H         1 UNK         0.0786 
     95 H95        25.3334  -26.6346  -39.7281 H         1 UNK         0.3172 
     96 H96        25.9293  -27.5878  -37.8238 H         1 UNK         0.0595 
     97 H97        27.6746  -29.4220  -39.5518 H         1 UNK         0.0839 
     98 H98        27.9297  -29.0380  -37.8560 H         1 UNK         0.0839 
     99 H99        28.1033  -27.7817  -39.0670 H         1 UNK         0.0839 
    100 H100       23.6026  -28.8254  -39.2361 H         1 UNK         0.2998 
    101 H101       22.1050  -30.4540  -39.1247 H         1 UNK         0.0822 
    102 H102       21.7279  -31.6284  -36.9938 H         1 UNK         0.0787 
    103 H103       22.1356  -29.9521  -36.6702 H         1 UNK         0.0787 
    104 H104       23.3394  -31.2177  -36.4275 H         1 UNK         0.0787 
    105 H105       24.4865  -31.0017  -40.6110 H         1 UNK         0.3055 
    106 H106       25.5602  -33.5467  -40.2570 H         1 UNK         0.1106 
    107 H107       26.5585  -31.8356  -41.7237 H         1 UNK         0.0828 
    108 H108       26.2711  -33.2897  -42.6610 H         1 UNK         0.0828 
    109 H109       25.1850  -31.9154  -42.8262 H         1 UNK         0.0828 
    110 H110       22.3745  -32.8964  -41.2900 H         1 UNK         0.2931 
    111 H111       21.8632  -35.3331  -42.7494 H         1 UNK         0.0412 
    112 H112       21.6415  -36.3088  -38.8204 H         1 UNK         0.3472 
    113 H113       22.3308  -34.7770  -39.3092 H         1 UNK         0.3472 
    114 H114       19.4585  -34.7150  -42.4841 H         1 UNK         0.0970 
    115 H115       20.4176  -33.4638  -43.2011 H         1 UNK         0.0970 
    116 H116       20.2029  -30.5162  -40.8460 H         1 UNK         0.0612 
    117 H117       21.1647  -31.2921  -42.0781 H         1 UNK         0.0612 
@<TRIPOS>BOND
     1    1    2 1    
     2    1   62 1    
     3    1   63 1    
     4    1   64 1    
     5    2    3 2    
     6    2    4 am   BACKBONE|DICT|INTERRES
     7    4    5 1    
     8    4   65 1    
     9    5    6 1    
    10    5   25 1    
    11    5   66 1    
    12    6    7 1    
    13    6   67 1    
    14    6   68 1    
    15    7    8 1    
    16    8    9 1    
    17    8   69 1    
    18    8   70 1    
    19    9   10 ar   
    20    9   14 ar   
    21   10   11 ar   
    22   10   71 1    
    23   11   12 ar   
    24   11   61 1    
    25   12   13 ar   
    26   12   72 1    
    27   13   14 ar   
    28   13   15 1    
    29   14   73 1    
    30   15   16 1    
    31   15   74 1    
    32   15   75 1    
    33   16   17 1    
    34   17   18 1    
    35   17   76 1    
    36   17   77 1    
    37   18   19 1    
    38   18   27 1    
    39   18   78 1    
    40   19   20 am   BACKBONE|DICT|INTERRES
    41   19   79 1    
    42   20   21 2    
    43   20   22 1    
    44   22   23 1    
    45   22   24 1    
    46   22   80 1    
    47   23   81 1    
    48   23   82 1    
    49   23   83 1    
    50   24   25 am   BACKBONE|DICT|INTERRES
    51   24   84 1    
    52   25   26 2    
    53   27   28 2    
    54   27   29 am   BACKBONE|DICT|INTERRES
    55   29   30 1    
    56   29   85 1    
    57   30   31 1    
    58   30   32 1    
    59   30   86 1    
    60   31   87 1    
    61   31   88 1    
    62   31   89 1    
    63   32   33 2    
    64   32   34 am   BACKBONE|DICT|INTERRES
    65   34   35 1    
    66   34   90 1    
    67   35   36 1    
    68   35   37 1    
    69   35   91 1    
    70   36   92 1    
    71   36   93 1    
    72   36   94 1    
    73   37   38 2    
    74   37   39 am   BACKBONE|DICT|INTERRES
    75   39   40 1    
    76   39   95 1    
    77   40   41 1    
    78   40   42 1    
    79   40   96 1    
    80   41   97 1    
    81   41   98 1    
    82   41   99 1    
    83   42   43 2    
    84   42   44 am   BACKBONE|DICT|INTERRES
    85   44   45 1    
    86   44  100 1    
    87   45   46 1    
    88   45   47 1    
    89   45  101 1    
    90   46  102 1    
    91   46  103 1    
    92   46  104 1    
    93   47   48 2    
    94   47   49 am   BACKBONE|DICT|INTERRES
    95   49   50 1    
    96   49  105 1    
    97   50   51 1    
    98   50   52 1    
    99   50  106 1    
   100   51  107 1    
   101   51  108 1    
   102   51  109 1    
   103   52   53 2    
   104   52   54 am   BACKBONE|DICT|INTERRES
   105   54   55 1    
   106   54  110 1    
   107   55   56 1    
   108   55   59 1    
   109   55  111 1    
   110   56   57 am   BACKBONE|DICT|INTERRES
   111   56   58 2    
   112   57  112 1    
   113   57  113 1    
   114   59   60 1    
   115   59  114 1    
   116   59  115 1    
   117   60   61 1    
   118   61  116 1    
   119   61  117 1    
@<TRIPOS>SUBSTRUCTURE
     1 UNK         1 GROUP             0       ****    0 ROOT    
