@<TRIPOS>MOLECULE
3R8
117   119    1
SMALL
USER_CHARGES


@<TRIPOS>ATOM
      1 CA         16.9788  -26.1603  -49.9655 C.3       0 UNK        -0.2013 
      2 C          18.0315  -26.5398  -48.9346 C.2       0 UNK         0.4866 
      3 O          19.2165  -26.2779  -49.1449 O.2       0 UNK        -0.5176 
      4 N          17.6102  -27.1629  -47.8275 N.am      1 UNK        -0.4884 
      5 CA         18.4746  -27.5593  -46.7112 C.3       1 UNK         0.0853 
      6 C6         17.7480  -28.5098  -45.7313 C.3       10 UNK        -0.0849 
      7 S7         17.3118  -30.1145  -46.4742 S.3       10 UNK        -0.2776 
      8 C8         15.9767  -30.6654  -45.3578 C.3       10 UNK         0.0316 
      9 C9         16.3688  -30.5689  -43.8873 C.ar      10 UNK        -0.0863 
     10 C10        17.4162  -31.3461  -43.3849 C.ar      10 UNK        -0.1009 
     11 C11        17.8027  -31.2341  -42.0465 C.ar      10 UNK        -0.0712 
     12 C12        17.1071  -30.3698  -41.1982 C.ar      10 UNK        -0.0894 
     13 C13        16.0647  -29.5774  -41.6892 C.ar      10 UNK        -0.0745 
     14 C14        15.6992  -29.6842  -43.0350 C.ar      10 UNK        -0.0972 
     15 C15        15.3231  -28.6134  -40.7700 C.3       10 UNK         0.0209 
     16 S16        16.4378  -27.5397  -39.8041 S.3       10 UNK        -0.2568 
     17 C17        17.2553  -26.5453  -41.1014 C.3       10 UNK        -0.0983 
     18 CA         18.7311  -26.9480  -41.3623 C.3       3 UNK         0.0876 
     19 N          19.2651  -26.2345  -42.5274 N.am      3 UNK        -0.4424 
     20 C          20.5155  -26.2955  -43.0073 C.2       2 UNK         0.4918 
     21 O          21.4275  -26.9469  -42.4948 O.2       2 UNK        -0.4875 
     22 CA         20.7403  -25.5806  -44.3479 C.3       2 UNK         0.0481 
     23 CB         22.2261  -25.3226  -44.6526 C.3       2 UNK        -0.1831 
     24 N          20.1915  -26.4546  -45.3776 N.am      2 UNK        -0.4498 
     25 C          18.9783  -26.3343  -45.9249 C.2       1 UNK         0.5027 
     26 O          18.2377  -25.3624  -45.7521 O.2       1 UNK        -0.4969 
     27 C          19.6226  -26.7686  -40.1130 C.2       3 UNK         0.5005 
     28 O          19.7083  -25.6602  -39.5790 O.2       3 UNK        -0.5279 
     29 N          20.2819  -27.8637  -39.7047 N.am      4 UNK        -0.4463 
     30 CA         21.1864  -27.9916  -38.5568 C.3       4 UNK         0.0283 
     31 CB         20.4255  -27.7629  -37.2334 C.3       4 UNK        -0.1875 
     32 C          22.4782  -27.1509  -38.6442 C.2       4 UNK         0.4949 
     33 O          23.1469  -26.9796  -37.6238 O.2       4 UNK        -0.5039 
     34 N          22.8437  -26.6679  -39.8422 N.am      5 UNK        -0.4663 
     35 CA         24.1029  -25.9477  -40.0821 C.3       5 UNK         0.0242 
     36 CB         23.9911  -25.1522  -41.3902 C.3       5 UNK        -0.1982 
     37 C          25.3217  -26.8874  -40.1367 C.2       5 UNK         0.5017 
     38 O          26.4477  -26.4429  -39.9116 O.2       5 UNK        -0.5012 
     39 N          25.0658  -28.1638  -40.4318 N.am      6 UNK        -0.4439 
     40 CA         25.9999  -29.2795  -40.4635 C.3       6 UNK         0.0297 
     41 CB         26.7210  -29.3182  -41.8233 C.3       6 UNK        -0.2006 
     42 C          25.1735  -30.5498  -40.2349 C.2       6 UNK         0.4892 
     43 O          23.9473  -30.5015  -40.3645 O.2       6 UNK        -0.5089 
     44 N          25.8456  -31.6707  -39.9421 N.am      7 UNK        -0.4243 
     45 CA         25.2158  -32.9781  -39.7050 C.3       7 UNK         0.0196 
     46 CB         26.2882  -33.9871  -39.2632 C.3       7 UNK        -0.2007 
     47 C          24.4254  -33.5254  -40.9099 C.2       7 UNK         0.5020 
     48 O          23.4387  -34.2350  -40.7150 O.2       7 UNK        -0.5147 
     49 N          24.8626  -33.1736  -42.1262 N.am      8 UNK        -0.4734 
     50 CA         24.1838  -33.4991  -43.3838 C.3       8 UNK         0.0238 
     51 CB         25.2445  -33.6518  -44.4879 C.3       8 UNK        -0.1912 
     52 C          23.1299  -32.4516  -43.7946 C.2       8 UNK         0.5038 
     53 O          22.3921  -32.7025  -44.7483 O.2       8 UNK        -0.5046 
     54 N          23.0906  -31.3028  -43.1023 N.am      9 UNK        -0.4200 
     55 CA         22.2254  -30.1421  -43.3787 C.3       9 UNK         0.0839 
     56 C          22.4495  -29.4924  -44.7788 C.2       9 UNK         0.5513 
     57 N          23.6551  -29.5470  -45.3321 N.am      9 UNK        -0.7519 
     58 O          21.5358  -28.9202  -45.3691 O.2       9 UNK        -0.4960 
     59 C59        20.7287  -30.4161  -43.0705 C.3       10 UNK        -0.0876 
     60 S60        20.4472  -30.9216  -41.3387 S.3       10 UNK        -0.2414 
     61 C61        19.0002  -32.0102  -41.5229 C.3       10 UNK         0.0169 
     62 H62        17.1990  -26.6375  -50.9201 H         1 UNK         0.0903 
     63 H63        15.9782  -26.4637  -49.6580 H         1 UNK         0.0903 
     64 H64        16.9742  -25.0811  -50.1167 H         1 UNK         0.0903 
     65 H65        16.6254  -27.3484  -47.7030 H         1 UNK         0.3096 
     66 H66        19.3424  -28.0796  -47.1248 H         1 UNK         0.1121 
     67 H67        18.3764  -28.7227  -44.8635 H         1 UNK         0.0849 
     68 H68        16.8439  -28.0358  -45.3429 H         1 UNK         0.0849 
     69 H69        15.0824  -30.0739  -45.5600 H         1 UNK         0.0865 
     70 H70        15.7185  -31.6985  -45.5943 H         1 UNK         0.0865 
     71 H71        17.9502  -32.0137  -44.0474 H         1 UNK         0.1346 
     72 H72        17.4019  -30.2889  -40.1607 H         1 UNK         0.1412 
     73 H73        14.8929  -29.0750  -43.4207 H         1 UNK         0.1426 
     74 H74        14.7118  -29.1941  -40.0782 H         1 UNK         0.0716 
     75 H75        14.6340  -27.9844  -41.3360 H         1 UNK         0.0716 
     76 H76        17.1930  -25.4943  -40.8130 H         1 UNK         0.0695 
     77 H77        16.6776  -26.6349  -42.0229 H         1 UNK         0.0695 
     78 H78        18.7357  -28.0052  -41.6347 H         1 UNK         0.0983 
     79 H79        18.5992  -25.6705  -43.0358 H         1 UNK         0.3095 
     80 H80        20.2232  -24.6190  -44.3291 H         1 UNK         0.0454 
     81 H81        22.8173  -26.2391  -44.6257 H         1 UNK         0.0851 
     82 H82        22.6535  -24.6287  -43.9296 H         1 UNK         0.0851 
     83 H83        22.3534  -24.8759  -45.6386 H         1 UNK         0.0851 
     84 H84        20.6993  -27.3295  -45.5113 H         1 UNK         0.2976 
     85 H85        20.1802  -28.7092  -40.2529 H         1 UNK         0.3116 
     86 H86        21.5179  -29.0313  -38.5648 H         1 UNK         0.0646 
     87 H87        20.1213  -26.7224  -37.1164 H         1 UNK         0.0847 
     88 H88        21.0462  -28.0170  -36.3735 H         1 UNK         0.0847 
     89 H89        19.5304  -28.3824  -37.1774 H         1 UNK         0.0847 
     90 H90        22.2477  -26.8339  -40.6483 H         1 UNK         0.3040 
     91 H91        24.2638  -25.2420  -39.2640 H         1 UNK         0.1015 
     92 H92        23.9106  -25.8162  -42.2513 H         1 UNK         0.0786 
     93 H93        24.8720  -24.5274  -41.5432 H         1 UNK         0.0786 
     94 H94        23.1215  -24.4947  -41.3845 H         1 UNK         0.0786 
     95 H95        24.0993  -28.4508  -40.5379 H         1 UNK         0.3172 
     96 H96        26.7230  -29.1761  -39.6519 H         1 UNK         0.0595 
     97 H97        27.4278  -30.1471  -41.8741 H         1 UNK         0.0839 
     98 H98        27.2882  -28.4034  -41.9961 H         1 UNK         0.0839 
     99 H99        26.0181  -29.4335  -42.6494 H         1 UNK         0.0839 
    100 H100       26.8516  -31.6293  -39.8579 H         1 UNK         0.2998 
    101 H101       24.5048  -32.8545  -38.8850 H         1 UNK         0.0822 
    102 H102       25.8446  -34.9622  -39.0560 H         1 UNK         0.0787 
    103 H103       27.0482  -34.1321  -40.0321 H         1 UNK         0.0787 
    104 H104       26.7889  -33.6617  -38.3511 H         1 UNK         0.0787 
    105 H105       25.6955  -32.6060  -42.1887 H         1 UNK         0.3055 
    106 H106       23.6622  -34.4535  -43.2786 H         1 UNK         0.1106 
    107 H107       24.7847  -33.9318  -45.4368 H         1 UNK         0.0828 
    108 H108       25.7938  -32.7244  -44.6543 H         1 UNK         0.0828 
    109 H109       25.9661  -34.4304  -44.2397 H         1 UNK         0.0828 
    110 H110       23.6643  -31.2161  -42.2727 H         1 UNK         0.2931 
    111 H111       22.5539  -29.3769  -42.6749 H         1 UNK         0.0412 
    112 H112       24.4151  -30.0124  -44.8643 H         1 UNK         0.3472 
    113 H113       23.7995  -29.1271  -46.2365 H         1 UNK         0.3472 
    114 H114       20.1298  -29.5215  -43.2468 H         1 UNK         0.0970 
    115 H115       20.3427  -31.1787  -43.7482 H         1 UNK         0.0970 
    116 H116       18.7587  -32.4493  -40.5539 H         1 UNK         0.0612 
    117 H117       19.2511  -32.8399  -42.1857 H         1 UNK         0.0612 
@<TRIPOS>BOND
     1    1    2 1    
     2    1   62 1    
     3    1   63 1    
     4    1   64 1    
     5    2    3 2    
     6    2    4 am   BACKBONE|DICT|INTERRES
     7    4    5 1    
     8    4   65 1    
     9    5    6 1    
    10    5   25 1    
    11    5   66 1    
    12    6    7 1    
    13    6   67 1    
    14    6   68 1    
    15    7    8 1    
    16    8    9 1    
    17    8   69 1    
    18    8   70 1    
    19    9   10 ar   
    20    9   14 ar   
    21   10   11 ar   
    22   10   71 1    
    23   11   12 ar   
    24   11   61 1    
    25   12   13 ar   
    26   12   72 1    
    27   13   14 ar   
    28   13   15 1    
    29   14   73 1    
    30   15   16 1    
    31   15   74 1    
    32   15   75 1    
    33   16   17 1    
    34   17   18 1    
    35   17   76 1    
    36   17   77 1    
    37   18   19 1    
    38   18   27 1    
    39   18   78 1    
    40   19   20 am   BACKBONE|DICT|INTERRES
    41   19   79 1    
    42   20   21 2    
    43   20   22 1    
    44   22   23 1    
    45   22   24 1    
    46   22   80 1    
    47   23   81 1    
    48   23   82 1    
    49   23   83 1    
    50   24   25 am   BACKBONE|DICT|INTERRES
    51   24   84 1    
    52   25   26 2    
    53   27   28 2    
    54   27   29 am   BACKBONE|DICT|INTERRES
    55   29   30 1    
    56   29   85 1    
    57   30   31 1    
    58   30   32 1    
    59   30   86 1    
    60   31   87 1    
    61   31   88 1    
    62   31   89 1    
    63   32   33 2    
    64   32   34 am   BACKBONE|DICT|INTERRES
    65   34   35 1    
    66   34   90 1    
    67   35   36 1    
    68   35   37 1    
    69   35   91 1    
    70   36   92 1    
    71   36   93 1    
    72   36   94 1    
    73   37   38 2    
    74   37   39 am   BACKBONE|DICT|INTERRES
    75   39   40 1    
    76   39   95 1    
    77   40   41 1    
    78   40   42 1    
    79   40   96 1    
    80   41   97 1    
    81   41   98 1    
    82   41   99 1    
    83   42   43 2    
    84   42   44 am   BACKBONE|DICT|INTERRES
    85   44   45 1    
    86   44  100 1    
    87   45   46 1    
    88   45   47 1    
    89   45  101 1    
    90   46  102 1    
    91   46  103 1    
    92   46  104 1    
    93   47   48 2    
    94   47   49 am   BACKBONE|DICT|INTERRES
    95   49   50 1    
    96   49  105 1    
    97   50   51 1    
    98   50   52 1    
    99   50  106 1    
   100   51  107 1    
   101   51  108 1    
   102   51  109 1    
   103   52   53 2    
   104   52   54 am   BACKBONE|DICT|INTERRES
   105   54   55 1    
   106   54  110 1    
   107   55   56 1    
   108   55   59 1    
   109   55  111 1    
   110   56   57 am   BACKBONE|DICT|INTERRES
   111   56   58 2    
   112   57  112 1    
   113   57  113 1    
   114   59   60 1    
   115   59  114 1    
   116   59  115 1    
   117   60   61 1    
   118   61  116 1    
   119   61  117 1    
@<TRIPOS>SUBSTRUCTURE
     1 UNK         1 GROUP             0       ****    0 ROOT    
