@<TRIPOS>MOLECULE
3R8
117   119    1
SMALL
USER_CHARGES


@<TRIPOS>ATOM
      1 CA         17.3832  -22.4603  -41.3792 C.3       0 UNK        -0.2013 
      2 C          17.2218  -23.3408  -42.6092 C.2       0 UNK         0.4866 
      3 O          17.7454  -23.0082  -43.6725 O.2       0 UNK        -0.5176 
      4 N          16.4984  -24.4608  -42.4738 N.am      1 UNK        -0.4884 
      5 CA         16.2576  -25.4355  -43.5473 C.3       1 UNK         0.0853 
      6 C6         15.0842  -26.3837  -43.1828 C.3       10 UNK        -0.0849 
      7 S7         14.2762  -27.1174  -44.6462 S.3       10 UNK        -0.2776 
      8 C8         14.3616  -28.9053  -44.2904 C.3       10 UNK         0.0316 
      9 C9         15.7502  -29.4940  -44.5129 C.ar      10 UNK        -0.0863 
     10 C10        16.4896  -29.9995  -43.4389 C.ar      10 UNK        -0.1009 
     11 C11        17.7448  -30.5826  -43.6478 C.ar      10 UNK        -0.0712 
     12 C12        18.2630  -30.6507  -44.9463 C.ar      10 UNK        -0.0894 
     13 C13        17.5342  -30.1476  -46.0283 C.ar      10 UNK        -0.0745 
     14 C14        16.2787  -29.5745  -45.8046 C.ar      10 UNK        -0.0972 
     15 C15        18.0774  -30.2482  -47.4466 C.3       10 UNK         0.0209 
     16 S16        18.9821  -28.7470  -47.9443 S.3       10 UNK        -0.2568 
     17 C17        20.6763  -29.0965  -47.3641 C.3       10 UNK        -0.0983 
     18 CA         21.1953  -28.0549  -46.3425 C.3       3 UNK         0.0876 
     19 N          20.3614  -28.0120  -45.1350 N.am      3 UNK        -0.4424 
     20 C          20.5083  -27.1662  -44.1067 C.2       2 UNK         0.4918 
     21 O          21.3806  -26.2988  -44.0432 O.2       2 UNK        -0.4875 
     22 CA         19.5446  -27.3714  -42.9258 C.3       2 UNK         0.0481 
     23 CB         20.2844  -27.2687  -41.5813 C.3       2 UNK        -0.1831 
     24 N          18.3825  -26.4815  -42.9087 N.am      2 UNK        -0.4498 
     25 C          17.5261  -26.2352  -43.9139 C.2       1 UNK         0.5027 
     26 O          17.6817  -26.6132  -45.0737 O.2       1 UNK        -0.4969 
     27 C          22.6842  -28.3245  -46.0342 C.2       3 UNK         0.5005 
     28 O          23.5550  -27.7936  -46.7246 O.2       3 UNK        -0.5279 
     29 N          22.9430  -29.1300  -44.9940 N.am      4 UNK        -0.4463 
     30 CA         24.2789  -29.4784  -44.5030 C.3       4 UNK         0.0283 
     31 CB         24.2625  -30.9420  -44.0305 C.3       4 UNK        -0.1875 
     32 C          24.7778  -28.5334  -43.3898 C.2       4 UNK         0.4949 
     33 O          25.8025  -28.8299  -42.7735 O.2       4 UNK        -0.5039 
     34 N          24.0560  -27.4291  -43.1376 N.am      5 UNK        -0.4663 
     35 CA         24.3433  -26.3883  -42.1450 C.3       5 UNK         0.0242 
     36 CB         25.5595  -25.5444  -42.5924 C.3       5 UNK        -0.1982 
     37 C          24.4553  -26.9640  -40.7198 C.2       5 UNK         0.5017 
     38 O          23.5040  -27.5937  -40.2546 O.2       5 UNK        -0.5012 
     39 N          25.6061  -26.7611  -40.0626 N.am      6 UNK        -0.4439 
     40 CA         25.9037  -27.1719  -38.6855 C.3       6 UNK         0.0297 
     41 CB         27.2948  -26.6455  -38.2962 C.3       6 UNK        -0.2006 
     42 C          25.8092  -28.6858  -38.4130 C.2       6 UNK         0.4892 
     43 O          25.6439  -29.0692  -37.2544 O.2       6 UNK        -0.5089 
     44 N          25.8967  -29.5168  -39.4624 N.am      7 UNK        -0.4243 
     45 CA         25.6884  -30.9655  -39.3813 C.3       7 UNK         0.0196 
     46 CB         26.2862  -31.6325  -40.6292 C.3       7 UNK        -0.2007 
     47 C          24.2084  -31.3614  -39.2114 C.2       7 UNK         0.5020 
     48 O          23.9403  -32.5059  -38.8430 O.2       7 UNK        -0.5147 
     49 N          23.2776  -30.4338  -39.4994 N.am      8 UNK        -0.4734 
     50 CA         21.8190  -30.5526  -39.3430 C.3       8 UNK         0.0238 
     51 CB         21.4475  -30.5378  -37.8453 C.3       8 UNK        -0.1912 
     52 C          21.1965  -31.7477  -40.0952 C.2       8 UNK         0.5038 
     53 O          20.1981  -32.3008  -39.6337 O.2       8 UNK        -0.5046 
     54 N          21.8245  -32.1209  -41.2209 N.am      9 UNK        -0.4200 
     55 CA         21.5638  -33.3017  -42.0653 C.3       9 UNK         0.0839 
     56 C          21.5431  -34.6779  -41.3304 C.2       9 UNK         0.5513 
     57 N          22.1943  -34.8115  -40.1799 N.am      9 UNK        -0.7519 
     58 O          20.9772  -35.6492  -41.8259 O.2       9 UNK        -0.4960 
     59 C59        20.4424  -33.0889  -43.1276 C.3       10 UNK        -0.0876 
     60 S60        18.7406  -32.9148  -42.4844 S.3       10 UNK        -0.2414 
     61 C61        18.5455  -31.1047  -42.4604 C.3       10 UNK         0.0169 
     62 H62        16.9799  -21.4668  -41.5739 H         1 UNK         0.0903 
     63 H63        16.8675  -22.8709  -40.5113 H         1 UNK         0.0903 
     64 H64        18.4386  -22.3562  -41.1285 H         1 UNK         0.0903 
     65 H65        16.0781  -24.6728  -41.5793 H         1 UNK         0.3096 
     66 H66        15.9740  -24.8661  -44.4360 H         1 UNK         0.1121 
     67 H67        14.3073  -25.8263  -42.6569 H         1 UNK         0.0849 
     68 H68        15.4048  -27.1639  -42.4893 H         1 UNK         0.0849 
     69 H69        14.0139  -29.0904  -43.2728 H         1 UNK         0.0865 
     70 H70        13.6572  -29.4216  -44.9443 H         1 UNK         0.0865 
     71 H71        16.0842  -29.9446  -42.4377 H         1 UNK         0.1346 
     72 H72        19.2273  -31.1055  -45.1191 H         1 UNK         0.1412 
     73 H73        15.7094  -29.1868  -46.6386 H         1 UNK         0.1426 
     74 H74        17.2481  -30.3935  -48.1406 H         1 UNK         0.0716 
     75 H75        18.7117  -31.1289  -47.5576 H         1 UNK         0.0716 
     76 H76        21.3168  -29.1107  -48.2484 H         1 UNK         0.0695 
     77 H77        20.7254  -30.1024  -46.9435 H         1 UNK         0.0695 
     78 H78        21.1411  -27.0657  -46.8025 H         1 UNK         0.0983 
     79 H79        19.5430  -28.6059  -45.1488 H         1 UNK         0.3095 
     80 H80        19.1514  -28.3821  -42.9958 H         1 UNK         0.0454 
     81 H81        20.6361  -26.2544  -41.3886 H         1 UNK         0.0851 
     82 H82        21.1586  -27.9203  -41.5686 H         1 UNK         0.0851 
     83 H83        19.6475  -27.5684  -40.7491 H         1 UNK         0.0851 
     84 H84        18.1612  -26.0665  -42.0160 H         1 UNK         0.2976 
     85 H85        22.1596  -29.5090  -44.4832 H         1 UNK         0.3116 
     86 H86        24.9943  -29.4048  -45.3247 H         1 UNK         0.0646 
     87 H87        23.8520  -31.6044  -44.7930 H         1 UNK         0.0847 
     88 H88        23.6745  -31.0655  -43.1227 H         1 UNK         0.0847 
     89 H89        25.2735  -31.2919  -43.8201 H         1 UNK         0.0847 
     90 H90        23.2151  -27.2719  -43.6808 H         1 UNK         0.3040 
     91 H91        23.4728  -25.7302  -42.1306 H         1 UNK         0.1015 
     92 H92        26.4761  -26.1332  -42.6470 H         1 UNK         0.0786 
     93 H93        25.7350  -24.7077  -41.9147 H         1 UNK         0.0786 
     94 H94        25.3897  -25.1165  -43.5807 H         1 UNK         0.0786 
     95 H95        26.3366  -26.2611  -40.5485 H         1 UNK         0.3172 
     96 H96        25.1658  -26.6889  -38.0416 H         1 UNK         0.0595 
     97 H97        28.0774  -27.0675  -38.9281 H         1 UNK         0.0839 
     98 H98        27.5363  -26.9040  -37.2640 H         1 UNK         0.0839 
     99 H99        27.3469  -25.5593  -38.3740 H         1 UNK         0.0839 
    100 H100       26.0294  -29.1229  -40.3859 H         1 UNK         0.2998 
    101 H101       26.2243  -31.3426  -38.5075 H         1 UNK         0.0822 
    102 H102       27.3519  -31.4218  -40.7200 H         1 UNK         0.0787 
    103 H103       26.1726  -32.7168  -40.5882 H         1 UNK         0.0787 
    104 H104       25.7985  -31.2868  -41.5389 H         1 UNK         0.0787 
    105 H105       23.5959  -29.5135  -39.7930 H         1 UNK         0.3055 
    106 H106       21.3889  -29.6579  -39.7951 H         1 UNK         0.1106 
    107 H107       21.7990  -31.4350  -37.3346 H         1 UNK         0.0828 
    108 H108       20.3667  -30.4861  -37.7073 H         1 UNK         0.0828 
    109 H109       21.8779  -29.6736  -37.3393 H         1 UNK         0.0828 
    110 H110       22.6595  -31.6064  -41.4523 H         1 UNK         0.2931 
    111 H111       22.4790  -33.3789  -42.6536 H         1 UNK         0.0412 
    112 H112       22.1934  -35.7048  -39.7136 H         1 UNK         0.3472 
    113 H113       22.6798  -34.0254  -39.7645 H         1 UNK         0.3472 
    114 H114       20.4399  -33.9250  -43.8291 H         1 UNK         0.0970 
    115 H115       20.6904  -32.2196  -43.7358 H         1 UNK         0.0970 
    116 H116       19.5229  -30.6232  -42.4341 H         1 UNK         0.0612 
    117 H117       18.0567  -30.8332  -41.5235 H         1 UNK         0.0612 
@<TRIPOS>BOND
     1    1    2 1    
     2    1   62 1    
     3    1   63 1    
     4    1   64 1    
     5    2    3 2    
     6    2    4 am   BACKBONE|DICT|INTERRES
     7    4    5 1    
     8    4   65 1    
     9    5    6 1    
    10    5   25 1    
    11    5   66 1    
    12    6    7 1    
    13    6   67 1    
    14    6   68 1    
    15    7    8 1    
    16    8    9 1    
    17    8   69 1    
    18    8   70 1    
    19    9   10 ar   
    20    9   14 ar   
    21   10   11 ar   
    22   10   71 1    
    23   11   12 ar   
    24   11   61 1    
    25   12   13 ar   
    26   12   72 1    
    27   13   14 ar   
    28   13   15 1    
    29   14   73 1    
    30   15   16 1    
    31   15   74 1    
    32   15   75 1    
    33   16   17 1    
    34   17   18 1    
    35   17   76 1    
    36   17   77 1    
    37   18   19 1    
    38   18   27 1    
    39   18   78 1    
    40   19   20 am   BACKBONE|DICT|INTERRES
    41   19   79 1    
    42   20   21 2    
    43   20   22 1    
    44   22   23 1    
    45   22   24 1    
    46   22   80 1    
    47   23   81 1    
    48   23   82 1    
    49   23   83 1    
    50   24   25 am   BACKBONE|DICT|INTERRES
    51   24   84 1    
    52   25   26 2    
    53   27   28 2    
    54   27   29 am   BACKBONE|DICT|INTERRES
    55   29   30 1    
    56   29   85 1    
    57   30   31 1    
    58   30   32 1    
    59   30   86 1    
    60   31   87 1    
    61   31   88 1    
    62   31   89 1    
    63   32   33 2    
    64   32   34 am   BACKBONE|DICT|INTERRES
    65   34   35 1    
    66   34   90 1    
    67   35   36 1    
    68   35   37 1    
    69   35   91 1    
    70   36   92 1    
    71   36   93 1    
    72   36   94 1    
    73   37   38 2    
    74   37   39 am   BACKBONE|DICT|INTERRES
    75   39   40 1    
    76   39   95 1    
    77   40   41 1    
    78   40   42 1    
    79   40   96 1    
    80   41   97 1    
    81   41   98 1    
    82   41   99 1    
    83   42   43 2    
    84   42   44 am   BACKBONE|DICT|INTERRES
    85   44   45 1    
    86   44  100 1    
    87   45   46 1    
    88   45   47 1    
    89   45  101 1    
    90   46  102 1    
    91   46  103 1    
    92   46  104 1    
    93   47   48 2    
    94   47   49 am   BACKBONE|DICT|INTERRES
    95   49   50 1    
    96   49  105 1    
    97   50   51 1    
    98   50   52 1    
    99   50  106 1    
   100   51  107 1    
   101   51  108 1    
   102   51  109 1    
   103   52   53 2    
   104   52   54 am   BACKBONE|DICT|INTERRES
   105   54   55 1    
   106   54  110 1    
   107   55   56 1    
   108   55   59 1    
   109   55  111 1    
   110   56   57 am   BACKBONE|DICT|INTERRES
   111   56   58 2    
   112   57  112 1    
   113   57  113 1    
   114   59   60 1    
   115   59  114 1    
   116   59  115 1    
   117   60   61 1    
   118   61  116 1    
   119   61  117 1    
@<TRIPOS>SUBSTRUCTURE
     1 UNK         1 GROUP             0       ****    0 ROOT    
