@<TRIPOS>MOLECULE
3R8
117   119    1
SMALL
USER_CHARGES


@<TRIPOS>ATOM
      1 CA         14.9766  -24.7803  -48.8675 C.3       0 UNK        -0.2013 
      2 C          16.3532  -25.2184  -48.3899 C.2       0 UNK         0.4866 
      3 O          17.3624  -24.7712  -48.9364 O.2       0 UNK        -0.5176 
      4 N          16.4027  -26.0967  -47.3812 N.am      1 UNK        -0.4884 
      5 CA         17.6387  -26.5902  -46.7654 C.3       1 UNK         0.0853 
      6 C6         17.3819  -27.8016  -45.8339 C.3       10 UNK        -0.0849 
      7 S7         16.6419  -29.2457  -46.6604 S.3       10 UNK        -0.2776 
      8 C8         15.3151  -29.6893  -45.4880 C.3       10 UNK         0.0316 
      9 C9         15.8265  -29.8928  -44.0643 C.ar      10 UNK        -0.0863 
     10 C10        16.6833  -30.9571  -43.7658 C.ar      10 UNK        -0.1009 
     11 C11        17.1356  -31.1577  -42.4582 C.ar      10 UNK        -0.0712 
     12 C12        16.7152  -30.2934  -41.4439 C.ar      10 UNK        -0.0894 
     13 C13        15.8713  -29.2158  -41.7288 C.ar      10 UNK        -0.0745 
     14 C14        15.4296  -29.0226  -43.0417 C.ar      10 UNK        -0.0972 
     15 C15        15.3992  -28.2897  -40.6132 C.3       10 UNK         0.0209 
     16 S16        16.7708  -27.5918  -39.6343 S.3       10 UNK        -0.2568 
     17 C17        17.5012  -26.3808  -40.7883 C.3       10 UNK        -0.0983 
     18 CA         18.7611  -26.9025  -41.5215 C.3       3 UNK         0.0876 
     19 N          19.1750  -25.9739  -42.5777 N.am      3 UNK        -0.4424 
     20 C          20.1332  -26.2265  -43.4770 C.2       2 UNK         0.4918 
     21 O          20.7569  -27.2867  -43.5361 O.2       2 UNK        -0.4875 
     22 CA         20.3574  -25.1707  -44.5702 C.3       2 UNK         0.0481 
     23 CB         21.8509  -24.9988  -44.8986 C.3       2 UNK        -0.1831 
     24 N          19.6462  -25.6465  -45.7539 N.am      2 UNK        -0.4498 
     25 C          18.3259  -25.5006  -45.9209 C.2       1 UNK         0.5027 
     26 O          17.6486  -24.6529  -45.3321 O.2       1 UNK        -0.4969 
     27 C          19.9363  -27.1886  -40.5615 C.2       3 UNK         0.5005 
     28 O          20.5895  -26.2458  -40.1042 O.2       3 UNK        -0.5279 
     29 N          20.1996  -28.4800  -40.3129 N.am      4 UNK        -0.4463 
     30 CA         21.3168  -29.0595  -39.5552 C.3       4 UNK         0.0283 
     31 CB         21.3422  -28.5805  -38.0912 C.3       4 UNK        -0.1875 
     32 C          22.6848  -28.8738  -40.2329 C.2       4 UNK         0.4949 
     33 O          23.3875  -29.8647  -40.4358 O.2       4 UNK        -0.5039 
     34 N          23.0344  -27.6324  -40.5944 N.am      5 UNK        -0.4663 
     35 CA         24.2943  -27.2143  -41.2212 C.3       5 UNK         0.0242 
     36 CB         24.3370  -27.6834  -42.6946 C.3       5 UNK        -0.1982 
     37 C          25.5096  -27.6525  -40.3768 C.2       5 UNK         0.5017 
     38 O          25.5378  -27.3694  -39.1779 O.2       5 UNK        -0.5012 
     39 N          26.4605  -28.3736  -40.9840 N.am      6 UNK        -0.4439 
     40 CA         27.6139  -28.9895  -40.3206 C.3       6 UNK         0.0297 
     41 CB         28.8031  -28.9962  -41.3003 C.3       6 UNK        -0.2006 
     42 C          27.2789  -30.3995  -39.7861 C.2       6 UNK         0.4892 
     43 O          28.0694  -31.3255  -39.9755 O.2       6 UNK        -0.5089 
     44 N          26.1061  -30.5360  -39.1468 N.am      7 UNK        -0.4243 
     45 CA         25.4990  -31.7715  -38.6305 C.3       7 UNK         0.0196 
     46 CB         26.3086  -32.3256  -37.4387 C.3       7 UNK        -0.2007 
     47 C          25.2605  -32.8142  -39.7418 C.2       7 UNK         0.5020 
     48 O          25.6225  -33.9826  -39.5888 O.2       7 UNK        -0.5147 
     49 N          24.6720  -32.3578  -40.8533 N.am      8 UNK        -0.4734 
     50 CA         24.4443  -33.1513  -42.0662 C.3       8 UNK         0.0238 
     51 CB         25.7317  -33.1742  -42.9128 C.3       8 UNK        -0.1912 
     52 C          23.2523  -32.6741  -42.9149 C.2       8 UNK         0.5038 
     53 O          22.7789  -33.4575  -43.7389 O.2       8 UNK        -0.5046 
     54 N          22.7957  -31.4297  -42.7087 N.am      9 UNK        -0.4200 
     55 CA         21.7557  -30.7063  -43.4610 C.3       9 UNK         0.0839 
     56 C          22.2007  -30.3231  -44.8996 C.2       9 UNK         0.5513 
     57 N          21.9669  -29.0835  -45.3024 N.am      9 UNK        -0.7519 
     58 O          22.7207  -31.1304  -45.6653 O.2       9 UNK        -0.4960 
     59 C59        20.3685  -31.4043  -43.4641 C.3       10 UNK        -0.0876 
     60 S60        19.7548  -31.7421  -41.7798 S.3       10 UNK        -0.2414 
     61 C61        18.0643  -32.3156  -42.1273 C.3       10 UNK         0.0169 
     62 H62        14.8658  -23.7022  -48.7532 H         1 UNK         0.0903 
     63 H63        14.8490  -25.0265  -49.9213 H         1 UNK         0.0903 
     64 H64        14.1770  -25.2645  -48.3072 H         1 UNK         0.0903 
     65 H65        15.5449  -26.4262  -46.9630 H         1 UNK         0.3096 
     66 H66        18.3184  -26.8940  -47.5650 H         1 UNK         0.1121 
     67 H67        18.3123  -28.1485  -45.3781 H         1 UNK         0.0849 
     68 H68        16.7441  -27.4920  -45.0041 H         1 UNK         0.0849 
     69 H69        14.5456  -28.9163  -45.5167 H         1 UNK         0.0865 
     70 H70        14.8344  -30.6071  -45.8294 H         1 UNK         0.0865 
     71 H71        16.9968  -31.6276  -44.5546 H         1 UNK         0.1346 
     72 H72        17.0512  -30.4580  -40.4290 H         1 UNK         0.1412 
     73 H73        14.7645  -28.1996  -43.2660 H         1 UNK         0.1426 
     74 H74        14.7523  -28.8592  -39.9446 H         1 UNK         0.0716 
     75 H75        14.7888  -27.4755  -41.0069 H         1 UNK         0.0716 
     76 H76        17.7348  -25.4734  -40.2280 H         1 UNK         0.0695 
     77 H77        16.7400  -26.0939  -41.5158 H         1 UNK         0.0695 
     78 H78        18.4927  -27.8355  -42.0231 H         1 UNK         0.0983 
     79 H79        18.6954  -25.0861  -42.6116 H         1 UNK         0.3095 
     80 H80        19.9621  -24.2070  -44.2418 H         1 UNK         0.0454 
     81 H81        22.3045  -25.9246  -45.2549 H         1 UNK         0.0851 
     82 H82        22.4082  -24.6838  -44.0155 H         1 UNK         0.0851 
     83 H83        22.0008  -24.2387  -45.6652 H         1 UNK         0.0851 
     84 H84        20.1139  -26.3768  -46.2724 H         1 UNK         0.2976 
     85 H85        19.6117  -29.1671  -40.7658 H         1 UNK         0.3116 
     86 H86        21.1262  -30.1336  -39.5349 H         1 UNK         0.0646 
     87 H87        21.5588  -27.5154  -38.0077 H         1 UNK         0.0847 
     88 H88        22.1106  -29.1090  -37.5255 H         1 UNK         0.0847 
     89 H89        20.3890  -28.7681  -37.5971 H         1 UNK         0.0847 
     90 H90        22.3657  -26.8949  -40.3844 H         1 UNK         0.3040 
     91 H91        24.2984  -26.1233  -41.2168 H         1 UNK         0.1015 
     92 H92        24.3471  -28.7698  -42.7862 H         1 UNK         0.0786 
     93 H93        25.2142  -27.2930  -43.2120 H         1 UNK         0.0786 
     94 H94        23.4663  -27.3212  -43.2406 H         1 UNK         0.0786 
     95 H95        26.3357  -28.5932  -41.9618 H         1 UNK         0.3172 
     96 H96        27.9024  -28.3837  -39.4590 H         1 UNK         0.0595 
     97 H97        29.7032  -29.3841  -40.8215 H         1 UNK         0.0839 
     98 H98        29.0354  -27.9902  -41.6502 H         1 UNK         0.0839 
     99 H99        28.6041  -29.6187  -42.1736 H         1 UNK         0.0839 
    100 H100       25.5269  -29.7087  -39.0765 H         1 UNK         0.2998 
    101 H101       24.5115  -31.4951  -38.2574 H         1 UNK         0.0822 
    102 H102       25.8012  -33.1783  -36.9857 H         1 UNK         0.0787 
    103 H103       27.3003  -32.6623  -37.7425 H         1 UNK         0.0787 
    104 H104       26.4337  -31.5729  -36.6604 H         1 UNK         0.0787 
    105 H105       24.3499  -31.3939  -40.8427 H         1 UNK         0.3055 
    106 H106       24.2082  -34.1761  -41.7697 H         1 UNK         0.1106 
    107 H107       25.5931  -33.7567  -43.8247 H         1 UNK         0.0828 
    108 H108       26.0337  -32.1690  -43.2087 H         1 UNK         0.0828 
    109 H109       26.5605  -33.6247  -42.3664 H         1 UNK         0.0828 
    110 H110       23.2066  -30.8788  -41.9645 H         1 UNK         0.2931 
    111 H111       21.6331  -29.7728  -42.9103 H         1 UNK         0.0412 
    112 H112       21.5359  -28.4113  -44.6700 H         1 UNK         0.3472 
    113 H113       22.2383  -28.8088  -46.2324 H         1 UNK         0.3472 
    114 H114       20.4023  -32.3405  -44.0233 H         1 UNK         0.0970 
    115 H115       19.6385  -30.7714  -43.9723 H         1 UNK         0.0970 
    116 H116       17.6845  -32.8395  -41.2491 H         1 UNK         0.0612 
    117 H117       18.0851  -33.0480  -42.9360 H         1 UNK         0.0612 
@<TRIPOS>BOND
     1    1    2 1    
     2    1   62 1    
     3    1   63 1    
     4    1   64 1    
     5    2    3 2    
     6    2    4 am   BACKBONE|DICT|INTERRES
     7    4    5 1    
     8    4   65 1    
     9    5    6 1    
    10    5   25 1    
    11    5   66 1    
    12    6    7 1    
    13    6   67 1    
    14    6   68 1    
    15    7    8 1    
    16    8    9 1    
    17    8   69 1    
    18    8   70 1    
    19    9   10 ar   
    20    9   14 ar   
    21   10   11 ar   
    22   10   71 1    
    23   11   12 ar   
    24   11   61 1    
    25   12   13 ar   
    26   12   72 1    
    27   13   14 ar   
    28   13   15 1    
    29   14   73 1    
    30   15   16 1    
    31   15   74 1    
    32   15   75 1    
    33   16   17 1    
    34   17   18 1    
    35   17   76 1    
    36   17   77 1    
    37   18   19 1    
    38   18   27 1    
    39   18   78 1    
    40   19   20 am   BACKBONE|DICT|INTERRES
    41   19   79 1    
    42   20   21 2    
    43   20   22 1    
    44   22   23 1    
    45   22   24 1    
    46   22   80 1    
    47   23   81 1    
    48   23   82 1    
    49   23   83 1    
    50   24   25 am   BACKBONE|DICT|INTERRES
    51   24   84 1    
    52   25   26 2    
    53   27   28 2    
    54   27   29 am   BACKBONE|DICT|INTERRES
    55   29   30 1    
    56   29   85 1    
    57   30   31 1    
    58   30   32 1    
    59   30   86 1    
    60   31   87 1    
    61   31   88 1    
    62   31   89 1    
    63   32   33 2    
    64   32   34 am   BACKBONE|DICT|INTERRES
    65   34   35 1    
    66   34   90 1    
    67   35   36 1    
    68   35   37 1    
    69   35   91 1    
    70   36   92 1    
    71   36   93 1    
    72   36   94 1    
    73   37   38 2    
    74   37   39 am   BACKBONE|DICT|INTERRES
    75   39   40 1    
    76   39   95 1    
    77   40   41 1    
    78   40   42 1    
    79   40   96 1    
    80   41   97 1    
    81   41   98 1    
    82   41   99 1    
    83   42   43 2    
    84   42   44 am   BACKBONE|DICT|INTERRES
    85   44   45 1    
    86   44  100 1    
    87   45   46 1    
    88   45   47 1    
    89   45  101 1    
    90   46  102 1    
    91   46  103 1    
    92   46  104 1    
    93   47   48 2    
    94   47   49 am   BACKBONE|DICT|INTERRES
    95   49   50 1    
    96   49  105 1    
    97   50   51 1    
    98   50   52 1    
    99   50  106 1    
   100   51  107 1    
   101   51  108 1    
   102   51  109 1    
   103   52   53 2    
   104   52   54 am   BACKBONE|DICT|INTERRES
   105   54   55 1    
   106   54  110 1    
   107   55   56 1    
   108   55   59 1    
   109   55  111 1    
   110   56   57 am   BACKBONE|DICT|INTERRES
   111   56   58 2    
   112   57  112 1    
   113   57  113 1    
   114   59   60 1    
   115   59  114 1    
   116   59  115 1    
   117   60   61 1    
   118   61  116 1    
   119   61  117 1    
@<TRIPOS>SUBSTRUCTURE
     1 UNK         1 GROUP             0       ****    0 ROOT    
