@<TRIPOS>MOLECULE
3R8
117   119    1
SMALL
USER_CHARGES


@<TRIPOS>ATOM
      1 CA         16.3343  -23.6692  -47.6255 C.3       0 UNK        -0.2013 
      2 C          16.6104  -24.4830  -46.3706 C.2       0 UNK         0.4866 
      3 O          17.5314  -24.1579  -45.6210 O.2       0 UNK        -0.5176 
      4 N          15.8219  -25.5405  -46.1369 N.am      1 UNK        -0.4884 
      5 CA         15.9336  -26.4534  -44.9910 C.3       1 UNK         0.0853 
      6 C6         14.9194  -27.6229  -45.0868 C.3       10 UNK        -0.0849 
      7 S7         15.0315  -28.5341  -46.6664 S.3       10 UNK        -0.2776 
      8 C8         15.8367  -30.0923  -46.1661 C.3       10 UNK         0.0316 
      9 C9         17.2337  -29.8835  -45.5939 C.ar      10 UNK        -0.0863 
     10 C10        17.5626  -30.4073  -44.3397 C.ar      10 UNK        -0.1009 
     11 C11        18.8426  -30.2256  -43.8077 C.ar      10 UNK        -0.0712 
     12 C12        19.7978  -29.5164  -44.5415 C.ar      10 UNK        -0.0894 
     13 C13        19.4839  -28.9902  -45.7968 C.ar      10 UNK        -0.0745 
     14 C14        18.2036  -29.1858  -46.3218 C.ar      10 UNK        -0.0972 
     15 C15        20.5279  -28.2292  -46.5999 C.3       10 UNK         0.0209 
     16 S16        20.3002  -26.4262  -46.4851 S.3       10 UNK        -0.2568 
     17 C17        21.1921  -26.0087  -44.9473 C.3       10 UNK        -0.0983 
     18 CA         20.3794  -25.0367  -44.0409 C.3       3 UNK         0.0876 
     19 N          19.0976  -25.5993  -43.5982 N.am      3 UNK        -0.4424 
     20 C          18.9327  -26.6196  -42.7425 C.2       2 UNK         0.4918 
     21 O          19.8711  -27.2065  -42.2012 O.2       2 UNK        -0.4875 
     22 CA         17.4892  -27.0728  -42.4311 C.3       2 UNK         0.0481 
     23 CB         17.3694  -27.6415  -41.0048 C.3       2 UNK        -0.1831 
     24 N          16.4965  -26.0046  -42.5819 N.am      2 UNK        -0.4498 
     25 C          15.7492  -25.6949  -43.6512 C.2       1 UNK         0.5027 
     26 O          14.8940  -24.8103  -43.5865 O.2       1 UNK        -0.4969 
     27 C          21.1709  -24.4497  -42.8458 C.2       3 UNK         0.5005 
     28 O          20.5673  -23.8095  -41.9798 O.2       3 UNK        -0.5279 
     29 N          22.4923  -24.6528  -42.8128 N.am      4 UNK        -0.4463 
     30 CA         23.3891  -24.2717  -41.7274 C.3       4 UNK         0.0283 
     31 CB         23.8581  -22.8169  -41.9038 C.3       4 UNK        -0.1875 
     32 C          24.5720  -25.2428  -41.7495 C.2       4 UNK         0.4949 
     33 O          24.9929  -25.6481  -42.8358 O.2       4 UNK        -0.5039 
     34 N          25.0680  -25.6067  -40.5573 N.am      5 UNK        -0.4663 
     35 CA         26.1675  -26.5559  -40.3057 C.3       5 UNK         0.0242 
     36 CB         27.5097  -25.9733  -40.7980 C.3       5 UNK        -0.1982 
     37 C          25.9091  -27.9788  -40.8510 C.2       5 UNK         0.5017 
     38 O          26.8579  -28.7147  -41.1316 O.2       5 UNK        -0.5012 
     39 N          24.6288  -28.3475  -40.9910 N.am      6 UNK        -0.4439 
     40 CA         24.1579  -29.6039  -41.5710 C.3       6 UNK         0.0297 
     41 CB         22.7384  -29.3895  -42.1218 C.3       6 UNK        -0.2006 
     42 C          24.2301  -30.7605  -40.5602 C.2       6 UNK         0.4892 
     43 O          23.1981  -31.2970  -40.1560 O.2       6 UNK        -0.5089 
     44 N          25.4581  -31.1329  -40.1773 N.am      7 UNK        -0.4243 
     45 CA         25.7701  -32.2026  -39.2206 C.3       7 UNK         0.0196 
     46 CB         27.2842  -32.2059  -38.9543 C.3       7 UNK        -0.2007 
     47 C          25.2939  -33.6063  -39.6454 C.2       7 UNK         0.5020 
     48 O          25.1640  -34.4816  -38.7896 O.2       7 UNK        -0.5147 
     49 N          25.0396  -33.8001  -40.9469 N.am      8 UNK        -0.4734 
     50 CA         24.4680  -35.0228  -41.5145 C.3       8 UNK         0.0238 
     51 CB         24.6828  -35.0164  -43.0370 C.3       8 UNK        -0.1912 
     52 C          22.9752  -35.2167  -41.1854 C.2       8 UNK         0.5038 
     53 O          22.5106  -36.3576  -41.2061 O.2       8 UNK        -0.5046 
     54 N          22.2496  -34.1242  -40.9072 N.am      9 UNK        -0.4200 
     55 CA         20.8331  -34.1515  -40.5173 C.3       9 UNK         0.0839 
     56 C          20.6559  -34.6022  -39.0431 C.2       9 UNK         0.5513 
     57 N          19.6004  -35.3484  -38.7475 N.am      9 UNK        -0.7519 
     58 O          21.4358  -34.2489  -38.1613 O.2       9 UNK        -0.4960 
     59 C59        20.1408  -32.7871  -40.7637 C.3       10 UNK        -0.0876 
     60 S60        20.0630  -32.3565  -42.5338 S.3       10 UNK        -0.2414 
     61 C61        19.1836  -30.7698  -42.4292 C.3       10 UNK         0.0169 
     62 H62        16.0984  -22.6392  -47.3595 H         1 UNK         0.0903 
     63 H63        17.2148  -23.6629  -48.2675 H         1 UNK         0.0903 
     64 H64        15.4994  -24.0724  -48.1982 H         1 UNK         0.0903 
     65 H65        15.0792  -25.7592  -46.7857 H         1 UNK         0.3096 
     66 H66        16.9422  -26.8636  -45.0463 H         1 UNK         0.1121 
     67 H67        13.8977  -27.2488  -44.9938 H         1 UNK         0.0849 
     68 H68        15.0585  -28.3206  -44.2587 H         1 UNK         0.0849 
     69 H69        15.1931  -30.6079  -45.4514 H         1 UNK         0.0865 
     70 H70        15.9097  -30.7453  -47.0368 H         1 UNK         0.0865 
     71 H71        16.8220  -30.9544  -43.7721 H         1 UNK         0.1346 
     72 H72        20.7841  -29.3662  -44.1298 H         1 UNK         0.1412 
     73 H73        17.9573  -28.7826  -47.2949 H         1 UNK         0.1426 
     74 H74        20.4542  -28.5212  -47.6485 H         1 UNK         0.0716 
     75 H75        21.5373  -28.4975  -46.2840 H         1 UNK         0.0716 
     76 H76        21.4493  -26.9194  -44.4048 H         1 UNK         0.0695 
     77 H77        22.1345  -25.5570  -45.2607 H         1 UNK         0.0695 
     78 H78        20.1221  -24.1693  -44.6508 H         1 UNK         0.0983 
     79 H79        18.2888  -25.1456  -44.0073 H         1 UNK         0.3095 
     80 H80        17.2553  -27.8899  -43.1114 H         1 UNK         0.0454 
     81 H81        16.3567  -27.9882  -40.7987 H         1 UNK         0.0851 
     82 H82        18.0322  -28.4949  -40.8602 H         1 UNK         0.0851 
     83 H83        17.6307  -26.8976  -40.2513 H         1 UNK         0.0851 
     84 H84        16.3567  -25.4439  -41.7535 H         1 UNK         0.2976 
     85 H85        22.9376  -25.2073  -43.5341 H         1 UNK         0.3116 
     86 H86        22.8658  -24.3736  -40.7739 H         1 UNK         0.0646 
     87 H87        24.3810  -22.6747  -42.8505 H         1 UNK         0.0847 
     88 H88        24.5426  -22.5275  -41.1055 H         1 UNK         0.0847 
     89 H89        23.0183  -22.1225  -41.8776 H         1 UNK         0.0847 
     90 H90        24.6427  -25.2118  -39.7285 H         1 UNK         0.3040 
     91 H91        26.2365  -26.6654  -39.2221 H         1 UNK         0.1015 
     92 H92        27.6851  -24.9787  -40.3880 H         1 UNK         0.0786 
     93 H93        27.5440  -25.8988  -41.8854 H         1 UNK         0.0786 
     94 H94        28.3474  -26.6001  -40.4895 H         1 UNK         0.0786 
     95 H95        23.9178  -27.6939  -40.6977 H         1 UNK         0.3172 
     96 H96        24.8007  -29.8656  -42.4143 H         1 UNK         0.0595 
     97 H97        22.7208  -28.6026  -42.8758 H         1 UNK         0.0839 
     98 H98        22.0333  -29.1144  -41.3362 H         1 UNK         0.0839 
     99 H99        22.3662  -30.3005  -42.5913 H         1 UNK         0.0839 
    100 H100       26.2392  -30.5959  -40.5402 H         1 UNK         0.2998 
    101 H101       25.2575  -31.9632  -38.2865 H         1 UNK         0.0822 
    102 H102       27.8520  -32.4158  -39.8617 H         1 UNK         0.0787 
    103 H103       27.6208  -31.2462  -38.5615 H         1 UNK         0.0787 
    104 H104       27.5511  -32.9665  -38.2190 H         1 UNK         0.0787 
    105 H105       25.1937  -33.0290  -41.5799 H         1 UNK         0.3055 
    106 H106       25.0047  -35.8773  -41.0956 H         1 UNK         0.1106 
    107 H107       25.7416  -34.9565  -43.2895 H         1 UNK         0.0828 
    108 H108       24.2958  -35.9309  -43.4890 H         1 UNK         0.0828 
    109 H109       24.1737  -34.1778  -43.5140 H         1 UNK         0.0828 
    110 H110       22.7094  -33.2241  -40.8365 H         1 UNK         0.2931 
    111 H111       20.3318  -34.8886  -41.1489 H         1 UNK         0.0412 
    112 H112       19.4570  -35.6393  -37.7927 H         1 UNK         0.3472 
    113 H113       18.9494  -35.6372  -39.4617 H         1 UNK         0.3472 
    114 H114       20.6505  -31.9894  -40.2205 H         1 UNK         0.0970 
    115 H115       19.1172  -32.8083  -40.3843 H         1 UNK         0.0970 
    116 H116       18.2733  -30.8999  -41.8420 H         1 UNK         0.0612 
    117 H117       19.7987  -30.0499  -41.8883 H         1 UNK         0.0612 
@<TRIPOS>BOND
     1    1    2 1    
     2    1   62 1    
     3    1   63 1    
     4    1   64 1    
     5    2    3 2    
     6    2    4 am   BACKBONE|DICT|INTERRES
     7    4    5 1    
     8    4   65 1    
     9    5    6 1    
    10    5   25 1    
    11    5   66 1    
    12    6    7 1    
    13    6   67 1    
    14    6   68 1    
    15    7    8 1    
    16    8    9 1    
    17    8   69 1    
    18    8   70 1    
    19    9   10 ar   
    20    9   14 ar   
    21   10   11 ar   
    22   10   71 1    
    23   11   12 ar   
    24   11   61 1    
    25   12   13 ar   
    26   12   72 1    
    27   13   14 ar   
    28   13   15 1    
    29   14   73 1    
    30   15   16 1    
    31   15   74 1    
    32   15   75 1    
    33   16   17 1    
    34   17   18 1    
    35   17   76 1    
    36   17   77 1    
    37   18   19 1    
    38   18   27 1    
    39   18   78 1    
    40   19   20 am   BACKBONE|DICT|INTERRES
    41   19   79 1    
    42   20   21 2    
    43   20   22 1    
    44   22   23 1    
    45   22   24 1    
    46   22   80 1    
    47   23   81 1    
    48   23   82 1    
    49   23   83 1    
    50   24   25 am   BACKBONE|DICT|INTERRES
    51   24   84 1    
    52   25   26 2    
    53   27   28 2    
    54   27   29 am   BACKBONE|DICT|INTERRES
    55   29   30 1    
    56   29   85 1    
    57   30   31 1    
    58   30   32 1    
    59   30   86 1    
    60   31   87 1    
    61   31   88 1    
    62   31   89 1    
    63   32   33 2    
    64   32   34 am   BACKBONE|DICT|INTERRES
    65   34   35 1    
    66   34   90 1    
    67   35   36 1    
    68   35   37 1    
    69   35   91 1    
    70   36   92 1    
    71   36   93 1    
    72   36   94 1    
    73   37   38 2    
    74   37   39 am   BACKBONE|DICT|INTERRES
    75   39   40 1    
    76   39   95 1    
    77   40   41 1    
    78   40   42 1    
    79   40   96 1    
    80   41   97 1    
    81   41   98 1    
    82   41   99 1    
    83   42   43 2    
    84   42   44 am   BACKBONE|DICT|INTERRES
    85   44   45 1    
    86   44  100 1    
    87   45   46 1    
    88   45   47 1    
    89   45  101 1    
    90   46  102 1    
    91   46  103 1    
    92   46  104 1    
    93   47   48 2    
    94   47   49 am   BACKBONE|DICT|INTERRES
    95   49   50 1    
    96   49  105 1    
    97   50   51 1    
    98   50   52 1    
    99   50  106 1    
   100   51  107 1    
   101   51  108 1    
   102   51  109 1    
   103   52   53 2    
   104   52   54 am   BACKBONE|DICT|INTERRES
   105   54   55 1    
   106   54  110 1    
   107   55   56 1    
   108   55   59 1    
   109   55  111 1    
   110   56   57 am   BACKBONE|DICT|INTERRES
   111   56   58 2    
   112   57  112 1    
   113   57  113 1    
   114   59   60 1    
   115   59  114 1    
   116   59  115 1    
   117   60   61 1    
   118   61  116 1    
   119   61  117 1    
@<TRIPOS>SUBSTRUCTURE
     1 UNK         1 GROUP             0       ****    0 ROOT    
