@<TRIPOS>MOLECULE
3R8
117   119    1
SMALL
USER_CHARGES


@<TRIPOS>ATOM
      1 CA         12.8449  -25.7179  -42.6801 C.3       0 UNK        -0.2013 
      2 C          13.9618  -25.8235  -43.7077 C.2       0 UNK         0.4866 
      3 O          14.5959  -24.8179  -44.0273 O.2       0 UNK        -0.5176 
      4 N          14.2054  -27.0333  -44.2298 N.am      1 UNK        -0.4884 
      5 CA         15.2578  -27.3221  -45.2146 C.3       1 UNK         0.0853 
      6 C6         15.0101  -28.6892  -45.9056 C.3       10 UNK        -0.0849 
      7 S7         15.7819  -28.8000  -47.5556 S.3       10 UNK        -0.2776 
      8 C8         16.7311  -30.3536  -47.4392 C.3       10 UNK         0.0316 
      9 C9         18.0031  -30.2229  -46.6083 C.ar      10 UNK        -0.0863 
     10 C10        18.1667  -30.9721  -45.4390 C.ar      10 UNK        -0.1009 
     11 C11        19.3580  -30.9035  -44.7073 C.ar      10 UNK        -0.0712 
     12 C12        20.3891  -30.0679  -45.1496 C.ar      10 UNK        -0.0894 
     13 C13        20.2448  -29.3249  -46.3259 C.ar      10 UNK        -0.0745 
     14 C14        19.0487  -29.4046  -47.0463 C.ar      10 UNK        -0.0972 
     15 C15        21.3961  -28.4876  -46.8665 C.3       10 UNK         0.0209 
     16 S16        21.2766  -26.7380  -46.3777 S.3       10 UNK        -0.2568 
     17 C17        22.1785  -26.7168  -44.7928 C.3       10 UNK        -0.0983 
     18 CA         21.3160  -26.1995  -43.6177 C.3       3 UNK         0.0876 
     19 N          20.1546  -27.0584  -43.3828 N.am      3 UNK        -0.4424 
     20 C          19.0660  -26.7082  -42.6908 C.2       2 UNK         0.4918 
     21 O          18.8906  -25.6019  -42.1767 O.2       2 UNK        -0.4875 
     22 CA         18.0041  -27.8067  -42.5368 C.3       2 UNK         0.0481 
     23 CB         17.6416  -28.0068  -41.0565 C.3       2 UNK        -0.1831 
     24 N          16.7787  -27.5982  -43.3103 N.am      2 UNK        -0.4498 
     25 C          16.6746  -27.2535  -44.6044 C.2       1 UNK         0.5027 
     26 O          17.6165  -26.9058  -45.3152 O.2       1 UNK        -0.4969 
     27 C          22.1891  -26.0245  -42.3565 C.2       3 UNK         0.5005 
     28 O          22.9444  -25.0525  -42.2923 O.2       3 UNK        -0.5279 
     29 N          22.0819  -26.9566  -41.3937 N.am      4 UNK        -0.4463 
     30 CA         22.8978  -27.0703  -40.1799 C.3       4 UNK         0.0283 
     31 CB         22.7340  -25.8316  -39.2696 C.3       4 UNK        -0.1875 
     32 C          24.3647  -27.4149  -40.5125 C.2       4 UNK         0.4949 
     33 O          24.6296  -27.9874  -41.5731 O.2       4 UNK        -0.5039 
     34 N          25.2866  -27.1157  -39.5859 N.am      5 UNK        -0.4663 
     35 CA         26.7302  -27.3751  -39.6729 C.3       5 UNK         0.0242 
     36 CB         27.3822  -26.4077  -40.6888 C.3       5 UNK        -0.1982 
     37 C          27.0352  -28.8671  -39.9283 C.2       5 UNK         0.5017 
     38 O          26.5184  -29.7141  -39.1977 O.2       5 UNK        -0.5012 
     39 N          27.8476  -29.1647  -40.9519 N.am      6 UNK        -0.4439 
     40 CA         28.2193  -30.5214  -41.3622 C.3       6 UNK         0.0297 
     41 CB         29.4265  -30.4496  -42.3115 C.3       6 UNK        -0.2006 
     42 C          27.0704  -31.3127  -42.0154 C.2       6 UNK         0.4892 
     43 O          27.0824  -32.5421  -41.9438 O.2       6 UNK        -0.5089 
     44 N          26.1110  -30.6137  -42.6413 N.am      7 UNK        -0.4243 
     45 CA         24.9172  -31.2185  -43.2430 C.3       7 UNK         0.0196 
     46 CB         24.3273  -30.2589  -44.2857 C.3       7 UNK        -0.2007 
     47 C          23.8669  -31.5947  -42.1831 C.2       7 UNK         0.5020 
     48 O          23.1636  -32.5901  -42.3558 O.2       7 UNK        -0.5147 
     49 N          23.8198  -30.8116  -41.0966 N.am      8 UNK        -0.4734 
     50 CA         23.0236  -31.0059  -39.8835 C.3       8 UNK         0.0238 
     51 CB         23.5114  -32.2601  -39.1198 C.3       8 UNK        -0.1912 
     52 C          21.5047  -30.9590  -40.1533 C.2       8 UNK         0.5038 
     53 O          21.0470  -30.0342  -40.8279 O.2       8 UNK        -0.5046 
     54 N          20.7731  -31.9169  -39.5679 N.am      9 UNK        -0.4200 
     55 CA         19.3130  -32.1118  -39.5719 C.3       9 UNK         0.0839 
     56 C          18.4513  -30.9933  -38.9093 C.2       9 UNK         0.5513 
     57 N          19.0400  -29.9949  -38.2625 N.am      9 UNK        -0.7519 
     58 O          17.2251  -31.0636  -38.9281 O.2       9 UNK        -0.4960 
     59 C59        18.7596  -32.6712  -40.9171 C.3       10 UNK        -0.0876 
     60 S60        18.3170  -31.4411  -42.1905 S.3       10 UNK        -0.2414 
     61 C61        19.5543  -31.7813  -43.4773 C.3       10 UNK         0.0169 
     62 H62        13.2400  -25.3508  -41.7333 H         1 UNK         0.0903 
     63 H63        12.0830  -25.0192  -43.0249 H         1 UNK         0.0903 
     64 H64        12.3648  -26.6791  -42.4972 H         1 UNK         0.0903 
     65 H65        13.6404  -27.8200  -43.9405 H         1 UNK         0.3096 
     66 H66        15.2032  -26.5395  -45.9756 H         1 UNK         0.1121 
     67 H67        13.9404  -28.8394  -46.0609 H         1 UNK         0.0849 
     68 H68        15.3343  -29.5181  -45.2728 H         1 UNK         0.0849 
     69 H69        16.0857  -31.1423  -47.0492 H         1 UNK         0.0865 
     70 H70        17.0075  -30.6655  -48.4474 H         1 UNK         0.0865 
     71 H71        17.3752  -31.6286  -45.1037 H         1 UNK         0.1346 
     72 H72        21.3154  -30.0233  -44.5954 H         1 UNK         0.1412 
     73 H73        18.9340  -28.8364  -47.9594 H         1 UNK         0.1426 
     74 H74        21.3925  -28.5367  -47.9565 H         1 UNK         0.0716 
     75 H75        22.3566  -28.9034  -46.5587 H         1 UNK         0.0716 
     76 H76        22.5606  -27.7123  -44.5698 H         1 UNK         0.0695 
     77 H77        23.0557  -26.0818  -44.9329 H         1 UNK         0.0695 
     78 H78        20.9463  -25.2060  -43.8816 H         1 UNK         0.0983 
     79 H79        20.1675  -27.9601  -43.8374 H         1 UNK         0.3095 
     80 H80        18.4387  -28.7356  -42.9031 H         1 UNK         0.0454 
     81 H81        18.5384  -28.1838  -40.4610 H         1 UNK         0.0851 
     82 H82        17.1393  -27.1330  -40.6401 H         1 UNK         0.0851 
     83 H83        16.9905  -28.8697  -40.9170 H         1 UNK         0.0851 
     84 H84        15.9180  -27.8166  -42.8314 H         1 UNK         0.2976 
     85 H85        21.4647  -27.7405  -41.5648 H         1 UNK         0.3116 
     86 H86        22.4961  -27.9248  -39.6366 H         1 UNK         0.0646 
     87 H87        23.1203  -26.0194  -38.2676 H         1 UNK         0.0847 
     88 H88        21.6836  -25.5630  -39.1560 H         1 UNK         0.0847 
     89 H89        23.2574  -24.9604  -39.6653 H         1 UNK         0.0847 
     90 H90        24.9726  -26.6908  -38.7246 H         1 UNK         0.3040 
     91 H91        27.1467  -27.1514  -38.6894 H         1 UNK         0.1015 
     92 H92        27.1580  -25.3713  -40.4355 H         1 UNK         0.0786 
     93 H93        27.0271  -26.5765  -41.7064 H         1 UNK         0.0786 
     94 H94        28.4691  -26.5010  -40.6895 H         1 UNK         0.0786 
     95 H95        28.2194  -28.4031  -41.5012 H         1 UNK         0.3172 
     96 H96        28.5249  -31.0699  -40.4684 H         1 UNK         0.0595 
     97 H97        29.7472  -31.4488  -42.6102 H         1 UNK         0.0839 
     98 H98        30.2804  -29.9681  -41.8343 H         1 UNK         0.0839 
     99 H99        29.1935  -29.8976  -43.2229 H         1 UNK         0.0839 
    100 H100       26.1509  -29.6034  -42.6213 H         1 UNK         0.2998 
    101 H101       25.2138  -32.1350  -43.7583 H         1 UNK         0.0822 
    102 H102       25.0683  -29.9784  -45.0344 H         1 UNK         0.0787 
    103 H103       23.4974  -30.7279  -44.8141 H         1 UNK         0.0787 
    104 H104       23.9564  -29.3464  -43.8204 H         1 UNK         0.0787 
    105 H105       24.3861  -29.9704  -41.1175 H         1 UNK         0.3055 
    106 H106       23.2373  -30.1480  -39.2456 H         1 UNK         0.1106 
    107 H107       23.2994  -33.1823  -39.6625 H         1 UNK         0.0828 
    108 H108       24.5891  -32.2181  -38.9581 H         1 UNK         0.0828 
    109 H109       23.0518  -32.3347  -38.1335 H         1 UNK         0.0828 
    110 H110       21.2784  -32.5988  -39.0216 H         1 UNK         0.2931 
    111 H111       19.1992  -32.9352  -38.8657 H         1 UNK         0.0412 
    112 H112       20.0435  -29.9266  -38.2337 H         1 UNK         0.3472 
    113 H113       18.4708  -29.2947  -37.8143 H         1 UNK         0.3472 
    114 H114       19.4590  -33.3975  -41.3337 H         1 UNK         0.0970 
    115 H115       17.8514  -33.2404  -40.7125 H         1 UNK         0.0970 
    116 H116       19.4847  -32.8279  -43.7763 H         1 UNK         0.0612 
    117 H117       20.5506  -31.6423  -43.0554 H         1 UNK         0.0612 
@<TRIPOS>BOND
     1    1    2 1    
     2    1   62 1    
     3    1   63 1    
     4    1   64 1    
     5    2    3 2    
     6    2    4 am   BACKBONE|DICT|INTERRES
     7    4    5 1    
     8    4   65 1    
     9    5    6 1    
    10    5   25 1    
    11    5   66 1    
    12    6    7 1    
    13    6   67 1    
    14    6   68 1    
    15    7    8 1    
    16    8    9 1    
    17    8   69 1    
    18    8   70 1    
    19    9   10 ar   
    20    9   14 ar   
    21   10   11 ar   
    22   10   71 1    
    23   11   12 ar   
    24   11   61 1    
    25   12   13 ar   
    26   12   72 1    
    27   13   14 ar   
    28   13   15 1    
    29   14   73 1    
    30   15   16 1    
    31   15   74 1    
    32   15   75 1    
    33   16   17 1    
    34   17   18 1    
    35   17   76 1    
    36   17   77 1    
    37   18   19 1    
    38   18   27 1    
    39   18   78 1    
    40   19   20 am   BACKBONE|DICT|INTERRES
    41   19   79 1    
    42   20   21 2    
    43   20   22 1    
    44   22   23 1    
    45   22   24 1    
    46   22   80 1    
    47   23   81 1    
    48   23   82 1    
    49   23   83 1    
    50   24   25 am   BACKBONE|DICT|INTERRES
    51   24   84 1    
    52   25   26 2    
    53   27   28 2    
    54   27   29 am   BACKBONE|DICT|INTERRES
    55   29   30 1    
    56   29   85 1    
    57   30   31 1    
    58   30   32 1    
    59   30   86 1    
    60   31   87 1    
    61   31   88 1    
    62   31   89 1    
    63   32   33 2    
    64   32   34 am   BACKBONE|DICT|INTERRES
    65   34   35 1    
    66   34   90 1    
    67   35   36 1    
    68   35   37 1    
    69   35   91 1    
    70   36   92 1    
    71   36   93 1    
    72   36   94 1    
    73   37   38 2    
    74   37   39 am   BACKBONE|DICT|INTERRES
    75   39   40 1    
    76   39   95 1    
    77   40   41 1    
    78   40   42 1    
    79   40   96 1    
    80   41   97 1    
    81   41   98 1    
    82   41   99 1    
    83   42   43 2    
    84   42   44 am   BACKBONE|DICT|INTERRES
    85   44   45 1    
    86   44  100 1    
    87   45   46 1    
    88   45   47 1    
    89   45  101 1    
    90   46  102 1    
    91   46  103 1    
    92   46  104 1    
    93   47   48 2    
    94   47   49 am   BACKBONE|DICT|INTERRES
    95   49   50 1    
    96   49  105 1    
    97   50   51 1    
    98   50   52 1    
    99   50  106 1    
   100   51  107 1    
   101   51  108 1    
   102   51  109 1    
   103   52   53 2    
   104   52   54 am   BACKBONE|DICT|INTERRES
   105   54   55 1    
   106   54  110 1    
   107   55   56 1    
   108   55   59 1    
   109   55  111 1    
   110   56   57 am   BACKBONE|DICT|INTERRES
   111   56   58 2    
   112   57  112 1    
   113   57  113 1    
   114   59   60 1    
   115   59  114 1    
   116   59  115 1    
   117   60   61 1    
   118   61  116 1    
   119   61  117 1    
@<TRIPOS>SUBSTRUCTURE
     1 UNK         1 GROUP             0       ****    0 ROOT    
