@<TRIPOS>MOLECULE
3R8
117   119    1
SMALL
USER_CHARGES


@<TRIPOS>ATOM
      1 CA         12.5226  -25.8873  -44.8731 C.3       0 UNK        -0.2013 
      2 C          13.6163  -25.8556  -45.9300 C.2       0 UNK         0.4866 
      3 O          13.3162  -25.8396  -47.1240 O.2       0 UNK        -0.5176 
      4 N          14.8812  -25.8461  -45.5013 N.am      1 UNK        -0.4884 
      5 CA         16.0733  -25.7876  -46.3452 C.3       1 UNK         0.0853 
      6 C6         16.3670  -27.1400  -47.0710 C.3       10 UNK        -0.0849 
      7 S7         17.2648  -28.4120  -46.1080 S.3       10 UNK        -0.2776 
      8 C8         15.9203  -29.1985  -45.1706 C.3       10 UNK         0.0316 
      9 C9         16.4383  -29.7368  -43.8463 C.ar      10 UNK        -0.0863 
     10 C10        16.5645  -31.1122  -43.6326 C.ar      10 UNK        -0.1009 
     11 C11        17.0297  -31.5994  -42.4069 C.ar      10 UNK        -0.0712 
     12 C12        17.3798  -30.6970  -41.3975 C.ar      10 UNK        -0.0894 
     13 C13        17.2619  -29.3174  -41.5969 C.ar      10 UNK        -0.0745 
     14 C14        16.7788  -28.8472  -42.8232 C.ar      10 UNK        -0.0972 
     15 C15        17.5933  -28.3595  -40.4544 C.3       10 UNK         0.0209 
     16 S16        18.3927  -26.8043  -40.9815 S.3       10 UNK        -0.2568 
     17 C17        20.1064  -27.3372  -41.3032 C.3       10 UNK        -0.0983 
     18 CA         20.4687  -27.4053  -42.8090 C.3       3 UNK         0.0876 
     19 N          20.1355  -26.1684  -43.5274 N.am      3 UNK        -0.4424 
     20 C          20.2088  -26.0053  -44.8548 C.2       2 UNK         0.4918 
     21 O          20.6593  -26.8460  -45.6346 O.2       2 UNK        -0.4875 
     22 CA         19.6386  -24.6921  -45.4162 C.3       2 UNK         0.0481 
     23 CB         20.6220  -24.0218  -46.3909 C.3       2 UNK        -0.1831 
     24 N          18.3787  -24.9710  -46.1058 N.am      2 UNK        -0.4498 
     25 C          17.2334  -25.2632  -45.4753 C.2       1 UNK         0.5027 
     26 O          17.0811  -25.1559  -44.2533 O.2       1 UNK        -0.4969 
     27 C          21.9463  -27.8203  -42.9550 C.2       3 UNK         0.5005 
     28 O          22.2238  -29.0184  -42.9606 O.2       3 UNK        -0.5279 
     29 N          22.8556  -26.8335  -43.0485 N.am      4 UNK        -0.4463 
     30 CA         24.3183  -26.9734  -43.0766 C.3       4 UNK         0.0283 
     31 CB         24.7828  -27.7059  -44.3534 C.3       4 UNK        -0.1875 
     32 C          24.8170  -27.6577  -41.7931 C.2       4 UNK         0.4949 
     33 O          25.0561  -28.8646  -41.7945 O.2       4 UNK        -0.5039 
     34 N          24.9041  -26.8765  -40.7073 N.am      5 UNK        -0.4663 
     35 CA         25.0779  -27.2967  -39.3057 C.3       5 UNK         0.0242 
     36 CB         25.2377  -26.0411  -38.4327 C.3       5 UNK        -0.1982 
     37 C          26.1994  -28.3077  -38.9888 C.2       5 UNK         0.5017 
     38 O          26.1114  -28.9811  -37.9618 O.2       5 UNK        -0.5012 
     39 N          27.2109  -28.4199  -39.8610 N.am      6 UNK        -0.4439 
     40 CA         28.2427  -29.4617  -39.8106 C.3       6 UNK         0.0297 
     41 CB         29.3344  -29.1482  -40.8462 C.3       6 UNK        -0.2006 
     42 C          27.6823  -30.8826  -40.0308 C.2       6 UNK         0.4892 
     43 O          28.2030  -31.8308  -39.4421 O.2       6 UNK        -0.5089 
     44 N          26.6332  -30.9964  -40.8560 N.am      7 UNK        -0.4243 
     45 CA         25.8599  -32.2175  -41.0878 C.3       7 UNK         0.0196 
     46 CB         25.6616  -32.4082  -42.6013 C.3       7 UNK        -0.2007 
     47 C          24.4955  -32.1460  -40.3841 C.2       7 UNK         0.5020 
     48 O          24.0186  -33.1682  -39.8927 O.2       7 UNK        -0.5147 
     49 N          23.8922  -30.9469  -40.3639 N.am      8 UNK        -0.4734 
     50 CA         22.5838  -30.5934  -39.7942 C.3       8 UNK         0.0238 
     51 CB         22.5551  -30.8287  -38.2697 C.3       8 UNK        -0.1912 
     52 C          21.3808  -31.2291  -40.5211 C.2       8 UNK         0.5038 
     53 O          20.2799  -31.2360  -39.9711 O.2       8 UNK        -0.5046 
     54 N          21.6099  -31.7122  -41.7455 N.am      9 UNK        -0.4200 
     55 CA         20.6374  -32.2262  -42.7150 C.3       9 UNK         0.0839 
     56 C          21.3141  -32.3343  -44.1136 C.2       9 UNK         0.5513 
     57 N          22.1095  -31.3493  -44.5133 N.am      9 UNK        -0.7519 
     58 O          21.1604  -33.3176  -44.8335 O.2       9 UNK        -0.4960 
     59 C59        19.9235  -33.5216  -42.2290 C.3       10 UNK        -0.0876 
     60 S60        18.3991  -33.9045  -43.1611 S.3       10 UNK        -0.2414 
     61 C61        17.1083  -33.1005  -42.1605 C.3       10 UNK         0.0169 
     62 H62        11.8884  -25.0056  -44.9624 H         1 UNK         0.0903 
     63 H63        11.8989  -26.7710  -45.0053 H         1 UNK         0.0903 
     64 H64        12.9323  -25.9100  -43.8633 H         1 UNK         0.0903 
     65 H65        15.0979  -25.7918  -44.5122 H         1 UNK         0.3096 
     66 H66        15.8902  -25.0241  -47.1052 H         1 UNK         0.1121 
     67 H67        15.4483  -27.5759  -47.4661 H         1 UNK         0.0849 
     68 H68        16.9773  -26.9358  -47.9520 H         1 UNK         0.0849 
     69 H69        15.1229  -28.4833  -44.9713 H         1 UNK         0.0865 
     70 H70        15.4769  -29.9922  -45.7739 H         1 UNK         0.0865 
     71 H71        16.2938  -31.8082  -44.4151 H         1 UNK         0.1346 
     72 H72        17.7302  -31.0721  -40.4457 H         1 UNK         0.1412 
     73 H73        16.6688  -27.7838  -42.9892 H         1 UNK         0.1426 
     74 H74        18.2246  -28.8487  -39.7106 H         1 UNK         0.0716 
     75 H75        16.6619  -28.1081  -39.9459 H         1 UNK         0.0716 
     76 H76        20.7640  -26.6375  -40.7833 H         1 UNK         0.0695 
     77 H77        20.2690  -28.3083  -40.8319 H         1 UNK         0.0695 
     78 H78        19.8713  -28.2013  -43.2607 H         1 UNK         0.0983 
     79 H79        19.6866  -25.4507  -42.9756 H         1 UNK         0.3095 
     80 H80        19.4524  -23.9964  -44.5949 H         1 UNK         0.0454 
     81 H81        20.8364  -24.6536  -47.2538 H         1 UNK         0.0851 
     82 H82        20.2303  -23.0737  -46.7595 H         1 UNK         0.0851 
     83 H83        21.5724  -23.8099  -45.8995 H         1 UNK         0.0851 
     84 H84        18.4382  -25.1189  -47.1031 H         1 UNK         0.2976 
     85 H85        22.5070  -25.8854  -43.0281 H         1 UNK         0.3116 
     86 H86        24.7379  -25.9665  -43.1027 H         1 UNK         0.0646 
     87 H87        25.8714  -27.7475  -44.4016 H         1 UNK         0.0847 
     88 H88        24.4356  -27.1946  -45.2510 H         1 UNK         0.0847 
     89 H89        24.4208  -28.7337  -44.3957 H         1 UNK         0.0847 
     90 H90        24.6997  -25.8951  -40.8338 H         1 UNK         0.3040 
     91 H91        24.1462  -27.7867  -39.0158 H         1 UNK         0.1015 
     92 H92        24.3724  -25.3833  -38.5172 H         1 UNK         0.0786 
     93 H93        26.1244  -25.4695  -38.7097 H         1 UNK         0.0786 
     94 H94        25.3361  -26.3039  -37.3781 H         1 UNK         0.0786 
     95 H95        27.1947  -27.8264  -40.6777 H         1 UNK         0.3172 
     96 H96        28.6965  -29.4352  -38.8176 H         1 UNK         0.0595 
     97 H97        29.7967  -28.1794  -40.6563 H         1 UNK         0.0839 
     98 H98        28.9381  -29.1397  -41.8625 H         1 UNK         0.0839 
     99 H99        30.1283  -29.8958  -40.8130 H         1 UNK         0.0839 
    100 H100       26.2559  -30.1474  -41.2706 H         1 UNK         0.2998 
    101 H101       26.3939  -33.0867  -40.6977 H         1 UNK         0.0822 
    102 H102       26.6179  -32.5174  -43.1130 H         1 UNK         0.0787 
    103 H103       25.0776  -33.3057  -42.8099 H         1 UNK         0.0787 
    104 H104       25.1370  -31.5640  -43.0521 H         1 UNK         0.0787 
    105 H105       24.3481  -30.1876  -40.8694 H         1 UNK         0.3055 
    106 H106       22.4768  -29.5203  -39.9591 H         1 UNK         0.1106 
    107 H107       22.5770  -31.8904  -38.0233 H         1 UNK         0.0828 
    108 H108       23.4038  -30.3517  -37.7791 H         1 UNK         0.0828 
    109 H109       21.6499  -30.4126  -37.8260 H         1 UNK         0.0828 
    110 H110       22.5459  -31.6144  -42.1131 H         1 UNK         0.2931 
    111 H111       19.8793  -31.4490  -42.8222 H         1 UNK         0.0412 
    112 H112       22.2033  -30.4999  -43.9559 H         1 UNK         0.3472 
    113 H113       22.5607  -31.4138  -45.4113 H         1 UNK         0.3472 
    114 H114       20.6009  -34.3741  -42.2994 H         1 UNK         0.0970 
    115 H115       19.6595  -33.4491  -41.1742 H         1 UNK         0.0970 
    116 H116       16.1463  -33.5467  -42.4165 H         1 UNK         0.0612 
    117 H117       17.2709  -33.3198  -41.1041 H         1 UNK         0.0612 
@<TRIPOS>BOND
     1    1    2 1    
     2    1   62 1    
     3    1   63 1    
     4    1   64 1    
     5    2    3 2    
     6    2    4 am   BACKBONE|DICT|INTERRES
     7    4    5 1    
     8    4   65 1    
     9    5    6 1    
    10    5   25 1    
    11    5   66 1    
    12    6    7 1    
    13    6   67 1    
    14    6   68 1    
    15    7    8 1    
    16    8    9 1    
    17    8   69 1    
    18    8   70 1    
    19    9   10 ar   
    20    9   14 ar   
    21   10   11 ar   
    22   10   71 1    
    23   11   12 ar   
    24   11   61 1    
    25   12   13 ar   
    26   12   72 1    
    27   13   14 ar   
    28   13   15 1    
    29   14   73 1    
    30   15   16 1    
    31   15   74 1    
    32   15   75 1    
    33   16   17 1    
    34   17   18 1    
    35   17   76 1    
    36   17   77 1    
    37   18   19 1    
    38   18   27 1    
    39   18   78 1    
    40   19   20 am   BACKBONE|DICT|INTERRES
    41   19   79 1    
    42   20   21 2    
    43   20   22 1    
    44   22   23 1    
    45   22   24 1    
    46   22   80 1    
    47   23   81 1    
    48   23   82 1    
    49   23   83 1    
    50   24   25 am   BACKBONE|DICT|INTERRES
    51   24   84 1    
    52   25   26 2    
    53   27   28 2    
    54   27   29 am   BACKBONE|DICT|INTERRES
    55   29   30 1    
    56   29   85 1    
    57   30   31 1    
    58   30   32 1    
    59   30   86 1    
    60   31   87 1    
    61   31   88 1    
    62   31   89 1    
    63   32   33 2    
    64   32   34 am   BACKBONE|DICT|INTERRES
    65   34   35 1    
    66   34   90 1    
    67   35   36 1    
    68   35   37 1    
    69   35   91 1    
    70   36   92 1    
    71   36   93 1    
    72   36   94 1    
    73   37   38 2    
    74   37   39 am   BACKBONE|DICT|INTERRES
    75   39   40 1    
    76   39   95 1    
    77   40   41 1    
    78   40   42 1    
    79   40   96 1    
    80   41   97 1    
    81   41   98 1    
    82   41   99 1    
    83   42   43 2    
    84   42   44 am   BACKBONE|DICT|INTERRES
    85   44   45 1    
    86   44  100 1    
    87   45   46 1    
    88   45   47 1    
    89   45  101 1    
    90   46  102 1    
    91   46  103 1    
    92   46  104 1    
    93   47   48 2    
    94   47   49 am   BACKBONE|DICT|INTERRES
    95   49   50 1    
    96   49  105 1    
    97   50   51 1    
    98   50   52 1    
    99   50  106 1    
   100   51  107 1    
   101   51  108 1    
   102   51  109 1    
   103   52   53 2    
   104   52   54 am   BACKBONE|DICT|INTERRES
   105   54   55 1    
   106   54  110 1    
   107   55   56 1    
   108   55   59 1    
   109   55  111 1    
   110   56   57 am   BACKBONE|DICT|INTERRES
   111   56   58 2    
   112   57  112 1    
   113   57  113 1    
   114   59   60 1    
   115   59  114 1    
   116   59  115 1    
   117   60   61 1    
   118   61  116 1    
   119   61  117 1    
@<TRIPOS>SUBSTRUCTURE
     1 UNK         1 GROUP             0       ****    0 ROOT    
