@<TRIPOS>MOLECULE
3R8
117   119    1
SMALL
USER_CHARGES


@<TRIPOS>ATOM
      1 CA         16.6790  -21.9842  -42.7945 C.3       0 UNK        -0.2013 
      2 C          17.2321  -22.8869  -43.8873 C.2       0 UNK         0.4866 
      3 O          18.0846  -22.4545  -44.6640 O.2       0 UNK        -0.5176 
      4 N          16.7491  -24.1344  -43.9555 N.am      1 UNK        -0.4884 
      5 CA         17.2359  -25.1700  -44.8745 C.3       1 UNK         0.0853 
      6 C6         16.1256  -26.2063  -45.1887 C.3       10 UNK        -0.0849 
      7 S7         16.3306  -26.9483  -46.8443 S.3       10 UNK        -0.2776 
      8 C8         15.4452  -28.5251  -46.6540 C.3       10 UNK         0.0316 
      9 C9         16.2509  -29.5516  -45.8697 C.ar      10 UNK        -0.0863 
     10 C10        17.2748  -30.2677  -46.4978 C.ar      10 UNK        -0.1009 
     11 C11        17.9770  -31.2679  -45.8166 C.ar      10 UNK        -0.0712 
     12 C12        17.6328  -31.5463  -44.4875 C.ar      10 UNK        -0.0894 
     13 C13        16.6206  -30.8295  -43.8420 C.ar      10 UNK        -0.0745 
     14 C14        15.9356  -29.8298  -44.5371 C.ar      10 UNK        -0.0972 
     15 C15        16.2180  -31.1863  -42.4177 C.3       10 UNK         0.0209 
     16 S16        17.6210  -31.1624  -41.2592 S.3       10 UNK        -0.2568 
     17 C17        17.8863  -29.3797  -41.0041 C.3       10 UNK        -0.0983 
     18 CA         19.3165  -28.9449  -41.4249 C.3       3 UNK         0.0876 
     19 N          19.3639  -28.4872  -42.8211 N.am      3 UNK        -0.4424 
     20 C          20.4848  -28.1825  -43.4915 C.2       2 UNK         0.4918 
     21 O          21.6133  -28.3862  -43.0509 O.2       2 UNK        -0.4875 
     22 CA         20.3496  -27.4677  -44.8505 C.3       2 UNK         0.0481 
     23 CB         20.6485  -28.4311  -46.0067 C.3       2 UNK        -0.1831 
     24 N          19.0688  -26.7928  -45.0950 N.am      2 UNK        -0.4498 
     25 C          18.5295  -25.8264  -44.3386 C.2       1 UNK         0.5027 
     26 O          19.0064  -25.4746  -43.2568 O.2       1 UNK        -0.4969 
     27 C          19.8900  -27.9165  -40.4195 C.2       3 UNK         0.5005 
     28 O          20.3031  -28.3210  -39.3315 O.2       3 UNK        -0.5279 
     29 N          19.9276  -26.6212  -40.7781 N.am      4 UNK        -0.4463 
     30 CA         20.5793  -25.5685  -39.9899 C.3       4 UNK         0.0283 
     31 CB         20.1905  -24.1887  -40.5442 C.3       4 UNK        -0.1875 
     32 C          22.1116  -25.7191  -39.9471 C.2       4 UNK         0.4949 
     33 O          22.7318  -25.3044  -38.9681 O.2       4 UNK        -0.5039 
     34 N          22.6909  -26.3396  -40.9832 N.am      5 UNK        -0.4663 
     35 CA         24.0897  -26.7501  -41.0450 C.3       5 UNK         0.0242 
     36 CB         24.6247  -26.4900  -42.4660 C.3       5 UNK        -0.1982 
     37 C          24.1569  -28.2323  -40.6506 C.2       5 UNK         0.5017 
     38 O          24.3957  -29.0857  -41.5034 O.2       5 UNK        -0.5012 
     39 N          23.9144  -28.5114  -39.3619 N.am      6 UNK        -0.4439 
     40 CA         23.7349  -29.8503  -38.7803 C.3       6 UNK         0.0297 
     41 CB         23.4167  -29.7019  -37.2835 C.3       6 UNK        -0.2006 
     42 C          24.8957  -30.8452  -38.9881 C.2       6 UNK         0.4892 
     43 O          24.6819  -32.0508  -38.8562 O.2       6 UNK        -0.5089 
     44 N          26.0935  -30.3390  -39.3126 N.am      7 UNK        -0.4243 
     45 CA         27.2535  -31.1343  -39.7223 C.3       7 UNK         0.0196 
     46 CB         28.5102  -30.2504  -39.6621 C.3       7 UNK        -0.2007 
     47 C          27.1026  -31.7591  -41.1248 C.2       7 UNK         0.5020 
     48 O          27.7914  -32.7378  -41.4153 O.2       7 UNK        -0.5147 
     49 N          26.2312  -31.1870  -41.9671 N.am      8 UNK        -0.4734 
     50 CA         25.8956  -31.6735  -43.3018 C.3       8 UNK         0.0238 
     51 CB         25.8490  -30.4813  -44.2814 C.3       8 UNK        -0.1912 
     52 C          24.5845  -32.4740  -43.2250 C.2       8 UNK         0.5038 
     53 O          24.6181  -33.6259  -42.7882 O.2       8 UNK        -0.5046 
     54 N          23.4687  -31.8801  -43.6696 N.am      9 UNK        -0.4200 
     55 CA         22.1400  -32.5091  -43.6817 C.3       9 UNK         0.0839 
     56 C          21.4748  -32.5543  -42.2774 C.2       9 UNK         0.5513 
     57 N          20.4958  -33.4284  -42.0909 N.am      9 UNK        -0.7519 
     58 O          21.8116  -31.7971  -41.3714 O.2       9 UNK        -0.4960 
     59 C59        21.2163  -31.8635  -44.7531 C.3       10 UNK        -0.0876 
     60 S60        20.1517  -33.1017  -45.5665 S.3       10 UNK        -0.2414 
     61 C61        19.0552  -32.0461  -46.5769 C.3       10 UNK         0.0169 
     62 H62        16.2374  -21.0899  -43.2334 H         1 UNK         0.0903 
     63 H63        15.9139  -22.4834  -42.2003 H         1 UNK         0.0903 
     64 H64        17.4806  -21.6752  -42.1240 H         1 UNK         0.0903 
     65 H65        16.0757  -24.4397  -43.2673 H         1 UNK         0.3096 
     66 H66        17.5087  -24.6704  -45.8075 H         1 UNK         0.1121 
     67 H67        16.0734  -26.9778  -44.4190 H         1 UNK         0.0849 
     68 H68        15.1474  -25.7221  -45.1888 H         1 UNK         0.0849 
     69 H69        14.4767  -28.3464  -46.1838 H         1 UNK         0.0865 
     70 H70        15.2263  -28.9242  -47.6456 H         1 UNK         0.0865 
     71 H71        17.5122  -30.0572  -47.5321 H         1 UNK         0.1346 
     72 H72        18.1357  -32.3316  -43.9419 H         1 UNK         0.1412 
     73 H73        15.1322  -29.2922  -44.0518 H         1 UNK         0.1426 
     74 H74        15.4341  -30.5236  -42.0475 H         1 UNK         0.0716 
     75 H75        15.7914  -32.1901  -42.4226 H         1 UNK         0.0716 
     76 H76        17.7031  -29.2072  -39.9412 H         1 UNK         0.0695 
     77 H77        17.1258  -28.7968  -41.5264 H         1 UNK         0.0695 
     78 H78        19.9849  -29.8058  -41.3538 H         1 UNK         0.0983 
     79 H79        18.4771  -28.3141  -43.2692 H         1 UNK         0.3095 
     80 H80        21.1160  -26.6902  -44.8649 H         1 UNK         0.0454 
     81 H81        21.6219  -28.9061  -45.8790 H         1 UNK         0.0851 
     82 H82        20.6688  -27.9115  -46.9647 H         1 UNK         0.0851 
     83 H83        19.9024  -29.2201  -46.0683 H         1 UNK         0.0851 
     84 H84        18.5765  -27.0529  -45.9405 H         1 UNK         0.2976 
     85 H85        19.5563  -26.3405  -41.6839 H         1 UNK         0.3116 
     86 H86        20.2104  -25.6386  -38.9644 H         1 UNK         0.0646 
     87 H87        20.6059  -23.3905  -39.9278 H         1 UNK         0.0847 
     88 H88        19.1086  -24.0559  -40.5617 H         1 UNK         0.0847 
     89 H89        20.5618  -24.0417  -41.5592 H         1 UNK         0.0847 
     90 H90        22.0958  -26.7317  -41.7034 H         1 UNK         0.3040 
     91 H91        24.6982  -26.1778  -40.3409 H         1 UNK         0.1015 
     92 H92        25.6654  -26.8045  -42.5542 H         1 UNK         0.0786 
     93 H93        24.5828  -25.4298  -42.7159 H         1 UNK         0.0786 
     94 H94        24.0547  -27.0335  -43.2210 H         1 UNK         0.0786 
     95 H95        23.7124  -27.7326  -38.7497 H         1 UNK         0.3172 
     96 H96        22.8605  -30.2860  -39.2682 H         1 UNK         0.0595 
     97 H97        24.2348  -29.2253  -36.7421 H         1 UNK         0.0839 
     98 H98        23.2428  -30.6749  -36.8215 H         1 UNK         0.0839 
     99 H99        22.5153  -29.1085  -37.1273 H         1 UNK         0.0839 
    100 H100       26.1775  -29.3362  -39.3892 H         1 UNK         0.2998 
    101 H101       27.3753  -31.9535  -39.0103 H         1 UNK         0.0822 
    102 H102       28.6711  -29.8557  -38.6587 H         1 UNK         0.0787 
    103 H103       29.4008  -30.8203  -39.9309 H         1 UNK         0.0787 
    104 H104       28.4437  -29.4067  -40.3503 H         1 UNK         0.0787 
    105 H105       25.6580  -30.4133  -41.6338 H         1 UNK         0.3055 
    106 H106       26.6657  -32.3618  -43.6574 H         1 UNK         0.1106 
    107 H107       26.8282  -30.0094  -44.3629 H         1 UNK         0.0828 
    108 H108       25.5686  -30.8068  -45.2842 H         1 UNK         0.0828 
    109 H109       25.1430  -29.7105  -43.9712 H         1 UNK         0.0828 
    110 H110       23.5081  -30.9034  -43.9204 H         1 UNK         0.2931 
    111 H111       22.3126  -33.5477  -43.9730 H         1 UNK         0.0412 
    112 H112       20.1999  -34.0380  -42.8373 H         1 UNK         0.3472 
    113 H113       20.0326  -33.4625  -41.1966 H         1 UNK         0.3472 
    114 H114       20.6036  -31.0671  -44.3272 H         1 UNK         0.0970 
    115 H115       21.8102  -31.3986  -45.5413 H         1 UNK         0.0970 
    116 H116       18.5547  -32.6879  -47.3029 H         1 UNK         0.0612 
    117 H117       19.6728  -31.3571  -47.1545 H         1 UNK         0.0612 
@<TRIPOS>BOND
     1    1    2 1    
     2    1   62 1    
     3    1   63 1    
     4    1   64 1    
     5    2    3 2    
     6    2    4 am   BACKBONE|DICT|INTERRES
     7    4    5 1    
     8    4   65 1    
     9    5    6 1    
    10    5   25 1    
    11    5   66 1    
    12    6    7 1    
    13    6   67 1    
    14    6   68 1    
    15    7    8 1    
    16    8    9 1    
    17    8   69 1    
    18    8   70 1    
    19    9   10 ar   
    20    9   14 ar   
    21   10   11 ar   
    22   10   71 1    
    23   11   12 ar   
    24   11   61 1    
    25   12   13 ar   
    26   12   72 1    
    27   13   14 ar   
    28   13   15 1    
    29   14   73 1    
    30   15   16 1    
    31   15   74 1    
    32   15   75 1    
    33   16   17 1    
    34   17   18 1    
    35   17   76 1    
    36   17   77 1    
    37   18   19 1    
    38   18   27 1    
    39   18   78 1    
    40   19   20 am   BACKBONE|DICT|INTERRES
    41   19   79 1    
    42   20   21 2    
    43   20   22 1    
    44   22   23 1    
    45   22   24 1    
    46   22   80 1    
    47   23   81 1    
    48   23   82 1    
    49   23   83 1    
    50   24   25 am   BACKBONE|DICT|INTERRES
    51   24   84 1    
    52   25   26 2    
    53   27   28 2    
    54   27   29 am   BACKBONE|DICT|INTERRES
    55   29   30 1    
    56   29   85 1    
    57   30   31 1    
    58   30   32 1    
    59   30   86 1    
    60   31   87 1    
    61   31   88 1    
    62   31   89 1    
    63   32   33 2    
    64   32   34 am   BACKBONE|DICT|INTERRES
    65   34   35 1    
    66   34   90 1    
    67   35   36 1    
    68   35   37 1    
    69   35   91 1    
    70   36   92 1    
    71   36   93 1    
    72   36   94 1    
    73   37   38 2    
    74   37   39 am   BACKBONE|DICT|INTERRES
    75   39   40 1    
    76   39   95 1    
    77   40   41 1    
    78   40   42 1    
    79   40   96 1    
    80   41   97 1    
    81   41   98 1    
    82   41   99 1    
    83   42   43 2    
    84   42   44 am   BACKBONE|DICT|INTERRES
    85   44   45 1    
    86   44  100 1    
    87   45   46 1    
    88   45   47 1    
    89   45  101 1    
    90   46  102 1    
    91   46  103 1    
    92   46  104 1    
    93   47   48 2    
    94   47   49 am   BACKBONE|DICT|INTERRES
    95   49   50 1    
    96   49  105 1    
    97   50   51 1    
    98   50   52 1    
    99   50  106 1    
   100   51  107 1    
   101   51  108 1    
   102   51  109 1    
   103   52   53 2    
   104   52   54 am   BACKBONE|DICT|INTERRES
   105   54   55 1    
   106   54  110 1    
   107   55   56 1    
   108   55   59 1    
   109   55  111 1    
   110   56   57 am   BACKBONE|DICT|INTERRES
   111   56   58 2    
   112   57  112 1    
   113   57  113 1    
   114   59   60 1    
   115   59  114 1    
   116   59  115 1    
   117   60   61 1    
   118   61  116 1    
   119   61  117 1    
@<TRIPOS>SUBSTRUCTURE
     1 UNK         1 GROUP             0       ****    0 ROOT    
