@<TRIPOS>MOLECULE
3R8
117   119    1
SMALL
USER_CHARGES


@<TRIPOS>ATOM
      1 CA         16.3897  -22.8316  -41.3285 C.3       0 UNK        -0.2013 
      2 C          16.8474  -23.8667  -42.3448 C.2       0 UNK         0.4866 
      3 O          16.2067  -24.0323  -43.3840 O.2       0 UNK        -0.5176 
      4 N          17.9500  -24.5694  -42.0563 N.am      1 UNK        -0.4884 
      5 CA         18.5454  -25.5887  -42.9242 C.3       1 UNK         0.0853 
      6 C6         19.4138  -26.5973  -42.1268 C.3       10 UNK        -0.0849 
      7 S7         18.4912  -27.5243  -40.8487 S.3       10 UNK        -0.2776 
      8 C8         17.3128  -28.5481  -41.7992 C.3       10 UNK         0.0316 
      9 C9         18.0061  -29.5426  -42.7204 C.ar      10 UNK        -0.0863 
     10 C10        18.2878  -30.8429  -42.2884 C.ar      10 UNK        -0.1009 
     11 C11        18.9378  -31.7476  -43.1365 C.ar      10 UNK        -0.0712 
     12 C12        19.3197  -31.3370  -44.4185 C.ar      10 UNK        -0.0894 
     13 C13        19.0437  -30.0393  -44.8565 C.ar      10 UNK        -0.0745 
     14 C14        18.3604  -29.1608  -44.0161 C.ar      10 UNK        -0.0972 
     15 C15        19.5318  -29.5492  -46.2078 C.3       10 UNK         0.0209 
     16 S16        21.1057  -28.6744  -45.9798 S.3       10 UNK        -0.2568 
     17 C17        21.3753  -27.8833  -47.6014 C.3       10 UNK        -0.0983 
     18 CA         21.6601  -26.3627  -47.4923 C.3       3 UNK         0.0876 
     19 N          20.5051  -25.6396  -46.9455 N.am      3 UNK        -0.4424 
     20 C          20.3109  -24.3174  -47.0391 C.2       2 UNK         0.4918 
     21 O          21.0384  -23.5690  -47.6920 O.2       2 UNK        -0.4875 
     22 CA         19.1262  -23.7120  -46.2593 C.3       2 UNK         0.0481 
     23 CB         17.9550  -23.4284  -47.2134 C.3       2 UNK        -0.1831 
     24 N          18.6308  -24.4949  -45.1175 N.am      2 UNK        -0.4498 
     25 C          19.3419  -24.9133  -44.0598 C.2       1 UNK         0.5027 
     26 O          20.5615  -24.7713  -43.9545 O.2       1 UNK        -0.4969 
     27 C          22.9785  -26.0844  -46.7235 C.2       3 UNK         0.5005 
     28 O          24.0468  -26.4291  -47.2310 O.2       3 UNK        -0.5279 
     29 N          22.8793  -25.4942  -45.5195 N.am      4 UNK        -0.4463 
     30 CA         23.9522  -25.1719  -44.5714 C.3       4 UNK         0.0283 
     31 CB         25.0340  -24.2705  -45.2048 C.3       4 UNK        -0.1875 
     32 C          24.5388  -26.3983  -43.8451 C.2       4 UNK         0.4949 
     33 O          25.6270  -26.2965  -43.2772 O.2       4 UNK        -0.5039 
     34 N          23.8058  -27.5230  -43.8287 N.am      5 UNK        -0.4663 
     35 CA         24.1681  -28.7279  -43.0703 C.3       5 UNK         0.0242 
     36 CB         23.3416  -29.9256  -43.5681 C.3       5 UNK        -0.1982 
     37 C          23.9862  -28.5620  -41.5510 C.2       5 UNK         0.5017 
     38 O          24.7087  -29.2044  -40.7897 O.2       5 UNK        -0.5012 
     39 N          23.0262  -27.7107  -41.1519 N.am      6 UNK        -0.4439 
     40 CA         22.6018  -27.4270  -39.7729 C.3       6 UNK         0.0297 
     41 CB         23.7280  -26.7289  -38.9804 C.3       6 UNK        -0.2006 
     42 C          22.0245  -28.6613  -39.0457 C.2       6 UNK         0.4892 
     43 O          22.2174  -28.8075  -37.8368 O.2       6 UNK        -0.5089 
     44 N          21.3106  -29.5074  -39.8038 N.am      7 UNK        -0.4243 
     45 CA         20.6790  -30.7651  -39.3918 C.3       7 UNK         0.0196 
     46 CB         19.5279  -30.5036  -38.3932 C.3       7 UNK        -0.2007 
     47 C          21.6969  -31.8215  -38.9154 C.2       7 UNK         0.5020 
     48 O          22.8470  -31.8027  -39.3569 O.2       7 UNK        -0.5147 
     49 N          21.2370  -32.7615  -38.0729 N.am      8 UNK        -0.4734 
     50 CA         21.9683  -33.9374  -37.5711 C.3       8 UNK         0.0238 
     51 CB         23.1073  -33.5102  -36.6200 C.3       8 UNK        -0.1912 
     52 C          22.4483  -34.8715  -38.7033 C.2       8 UNK         0.5038 
     53 O          23.5415  -35.4351  -38.6216 O.2       8 UNK        -0.5046 
     54 N          21.6191  -34.9963  -39.7480 N.am      9 UNK        -0.4200 
     55 CA         21.9135  -35.7295  -40.9890 C.3       9 UNK         0.0839 
     56 C          21.9261  -37.2804  -40.8529 C.2       9 UNK         0.5513 
     57 N          21.4562  -37.8590  -39.7542 N.am      9 UNK        -0.7519 
     58 O          22.3738  -37.9713  -41.7646 O.2       9 UNK        -0.4960 
     59 C59        20.9824  -35.2871  -42.1497 C.3       10 UNK        -0.0876 
     60 S60        20.9911  -33.4824  -42.4442 S.3       10 UNK        -0.2414 
     61 C61        19.2135  -33.1742  -42.6835 C.3       10 UNK         0.0169 
     62 H62        16.3791  -21.8407  -41.7816 H         1 UNK         0.0903 
     63 H63        15.3805  -23.0618  -40.9881 H         1 UNK         0.0903 
     64 H64        17.0426  -22.7995  -40.4565 H         1 UNK         0.0903 
     65 H65        18.4420  -24.3919  -41.1919 H         1 UNK         0.3096 
     66 H66        17.7349  -26.1455  -43.3952 H         1 UNK         0.1121 
     67 H67        19.9046  -27.3093  -42.7917 H         1 UNK         0.0849 
     68 H68        20.2231  -26.0679  -41.6215 H         1 UNK         0.0849 
     69 H69        16.6790  -29.0858  -41.0923 H         1 UNK         0.0865 
     70 H70        16.6371  -27.9086  -42.3679 H         1 UNK         0.0865 
     71 H71        17.9975  -31.1495  -41.2928 H         1 UNK         0.1346 
     72 H72        19.8478  -32.0237  -45.0660 H         1 UNK         0.1412 
     73 H73        18.1426  -28.1633  -44.3659 H         1 UNK         0.1426 
     74 H74        18.7930  -28.8822  -46.6549 H         1 UNK         0.0716 
     75 H75        19.6695  -30.3819  -46.8994 H         1 UNK         0.0716 
     76 H76        20.5062  -28.0498  -48.2395 H         1 UNK         0.0695 
     77 H77        22.2043  -28.3925  -48.0966 H         1 UNK         0.0695 
     78 H78        21.8224  -25.9916  -48.5068 H         1 UNK         0.0983 
     79 H79        19.8580  -26.1863  -46.3981 H         1 UNK         0.3095 
     80 H80        19.4711  -22.7572  -45.8577 H         1 UNK         0.0454 
     81 H81        18.2752  -22.8155  -48.0573 H         1 UNK         0.0851 
     82 H82        17.1539  -22.8864  -46.7103 H         1 UNK         0.0851 
     83 H83        17.5347  -24.3488  -47.6205 H         1 UNK         0.0851 
     84 H84        17.6247  -24.5980  -45.0594 H         1 UNK         0.2976 
     85 H85        21.9485  -25.2619  -45.1809 H         1 UNK         0.3116 
     86 H86        23.4692  -24.5826  -43.7905 H         1 UNK         0.0646 
     87 H87        25.6456  -24.8127  -45.9261 H         1 UNK         0.0847 
     88 H88        24.5909  -23.4147  -45.7137 H         1 UNK         0.0847 
     89 H89        25.7093  -23.8783  -44.4435 H         1 UNK         0.0847 
     90 H90        22.9440  -27.5491  -44.3563 H         1 UNK         0.3040 
     91 H91        25.2235  -28.9432  -43.2527 H         1 UNK         0.1015 
     92 H92        23.6185  -30.8383  -43.0380 H         1 UNK         0.0786 
     93 H93        23.5059  -30.1085  -44.6301 H         1 UNK         0.0786 
     94 H94        22.2722  -29.7768  -43.4123 H         1 UNK         0.0786 
     95 H95        22.5190  -27.2255  -41.8774 H         1 UNK         0.3172 
     96 H96        21.7765  -26.7183  -39.8502 H         1 UNK         0.0595 
     97 H97        24.5673  -27.3992  -38.7933 H         1 UNK         0.0839 
     98 H98        23.3673  -26.3840  -38.0106 H         1 UNK         0.0839 
     99 H99        24.1070  -25.8565  -39.5127 H         1 UNK         0.0839 
    100 H100       21.2370  -29.2946  -40.7876 H         1 UNK         0.2998 
    101 H101       20.2413  -31.1788  -40.2996 H         1 UNK         0.0822 
    102 H102       18.9028  -31.3867  -38.2593 H         1 UNK         0.0787 
    103 H103       18.8720  -29.7095  -38.7495 H         1 UNK         0.0787 
    104 H104       19.9015  -30.2071  -37.4122 H         1 UNK         0.0787 
    105 H105       20.2760  -32.6841  -37.7683 H         1 UNK         0.3055 
    106 H106       21.2558  -34.5210  -36.9856 H         1 UNK         0.1106 
    107 H107       22.7378  -32.8653  -35.8228 H         1 UNK         0.0828 
    108 H108       23.5678  -34.3778  -36.1457 H         1 UNK         0.0828 
    109 H109       23.8959  -32.9726  -37.1474 H         1 UNK         0.0828 
    110 H110       20.7475  -34.4898  -39.7313 H         1 UNK         0.2931 
    111 H111       22.9302  -35.4534  -41.2761 H         1 UNK         0.0412 
    112 H112       21.4734  -38.8642  -39.6782 H         1 UNK         0.3472 
    113 H113       21.0903  -37.3015  -38.9992 H         1 UNK         0.3472 
    114 H114       21.2811  -35.7714  -43.0815 H         1 UNK         0.0970 
    115 H115       19.9614  -35.6202  -41.9534 H         1 UNK         0.0970 
    116 H116       18.8260  -33.8647  -43.4341 H         1 UNK         0.0612 
    117 H117       18.6847  -33.3940  -41.7547 H         1 UNK         0.0612 
@<TRIPOS>BOND
     1    1    2 1    
     2    1   62 1    
     3    1   63 1    
     4    1   64 1    
     5    2    3 2    
     6    2    4 am   BACKBONE|DICT|INTERRES
     7    4    5 1    
     8    4   65 1    
     9    5    6 1    
    10    5   25 1    
    11    5   66 1    
    12    6    7 1    
    13    6   67 1    
    14    6   68 1    
    15    7    8 1    
    16    8    9 1    
    17    8   69 1    
    18    8   70 1    
    19    9   10 ar   
    20    9   14 ar   
    21   10   11 ar   
    22   10   71 1    
    23   11   12 ar   
    24   11   61 1    
    25   12   13 ar   
    26   12   72 1    
    27   13   14 ar   
    28   13   15 1    
    29   14   73 1    
    30   15   16 1    
    31   15   74 1    
    32   15   75 1    
    33   16   17 1    
    34   17   18 1    
    35   17   76 1    
    36   17   77 1    
    37   18   19 1    
    38   18   27 1    
    39   18   78 1    
    40   19   20 am   BACKBONE|DICT|INTERRES
    41   19   79 1    
    42   20   21 2    
    43   20   22 1    
    44   22   23 1    
    45   22   24 1    
    46   22   80 1    
    47   23   81 1    
    48   23   82 1    
    49   23   83 1    
    50   24   25 am   BACKBONE|DICT|INTERRES
    51   24   84 1    
    52   25   26 2    
    53   27   28 2    
    54   27   29 am   BACKBONE|DICT|INTERRES
    55   29   30 1    
    56   29   85 1    
    57   30   31 1    
    58   30   32 1    
    59   30   86 1    
    60   31   87 1    
    61   31   88 1    
    62   31   89 1    
    63   32   33 2    
    64   32   34 am   BACKBONE|DICT|INTERRES
    65   34   35 1    
    66   34   90 1    
    67   35   36 1    
    68   35   37 1    
    69   35   91 1    
    70   36   92 1    
    71   36   93 1    
    72   36   94 1    
    73   37   38 2    
    74   37   39 am   BACKBONE|DICT|INTERRES
    75   39   40 1    
    76   39   95 1    
    77   40   41 1    
    78   40   42 1    
    79   40   96 1    
    80   41   97 1    
    81   41   98 1    
    82   41   99 1    
    83   42   43 2    
    84   42   44 am   BACKBONE|DICT|INTERRES
    85   44   45 1    
    86   44  100 1    
    87   45   46 1    
    88   45   47 1    
    89   45  101 1    
    90   46  102 1    
    91   46  103 1    
    92   46  104 1    
    93   47   48 2    
    94   47   49 am   BACKBONE|DICT|INTERRES
    95   49   50 1    
    96   49  105 1    
    97   50   51 1    
    98   50   52 1    
    99   50  106 1    
   100   51  107 1    
   101   51  108 1    
   102   51  109 1    
   103   52   53 2    
   104   52   54 am   BACKBONE|DICT|INTERRES
   105   54   55 1    
   106   54  110 1    
   107   55   56 1    
   108   55   59 1    
   109   55  111 1    
   110   56   57 am   BACKBONE|DICT|INTERRES
   111   56   58 2    
   112   57  112 1    
   113   57  113 1    
   114   59   60 1    
   115   59  114 1    
   116   59  115 1    
   117   60   61 1    
   118   61  116 1    
   119   61  117 1    
@<TRIPOS>SUBSTRUCTURE
     1 UNK         1 GROUP             0       ****    0 ROOT    
