@<TRIPOS>MOLECULE
3R8
117   119    1
SMALL
USER_CHARGES


@<TRIPOS>ATOM
      1 CA         14.8798  -24.8274  -46.1726 C.3       0 UNK        -0.2013 
      2 C          15.5946  -25.9909  -46.8421 C.2       0 UNK         0.4866 
      3 O          16.2789  -25.7961  -47.8478 O.2       0 UNK        -0.5176 
      4 N          15.4456  -27.2023  -46.2933 N.am      1 UNK        -0.4884 
      5 CA         16.0465  -28.4582  -46.7605 C.3       1 UNK         0.0853 
      6 C6         15.2323  -29.7095  -46.3083 C.3       10 UNK        -0.0849 
      7 S7         14.4285  -29.6176  -44.6641 S.3       10 UNK        -0.2776 
      8 C8         15.6533  -30.3910  -43.5458 C.3       10 UNK         0.0316 
      9 C9         16.5120  -29.4233  -42.7251 C.ar      10 UNK        -0.0863 
     10 C10        17.5590  -29.9503  -41.9616 C.ar      10 UNK        -0.1009 
     11 C11        18.3865  -29.1206  -41.1932 C.ar      10 UNK        -0.0712 
     12 C12        18.1336  -27.7456  -41.1680 C.ar      10 UNK        -0.0894 
     13 C13        17.0903  -27.2007  -41.9210 C.ar      10 UNK        -0.0745 
     14 C14        16.2840  -28.0418  -42.6900 C.ar      10 UNK        -0.0972 
     15 C15        16.8191  -25.7043  -41.9142 C.3       10 UNK         0.0209 
     16 S16        17.4233  -24.9164  -43.4402 S.3       10 UNK        -0.2568 
     17 C17        19.1877  -24.6583  -43.0561 C.3       10 UNK        -0.0983 
     18 CA         20.1136  -25.8200  -43.5079 C.3       3 UNK         0.0876 
     19 N          19.9238  -26.1510  -44.9256 N.am      3 UNK        -0.4424 
     20 C          20.2931  -27.2832  -45.5374 C.2       2 UNK         0.4918 
     21 O          20.9674  -28.1664  -45.0065 O.2       2 UNK        -0.4875 
     22 CA         19.7888  -27.4575  -46.9791 C.3       2 UNK         0.0481 
     23 CB         20.4790  -28.6268  -47.7134 C.3       2 UNK        -0.1831 
     24 N          18.3284  -27.5982  -47.0313 N.am      2 UNK        -0.4498 
     25 C          17.5635  -28.5452  -46.4629 C.2       1 UNK         0.5027 
     26 O          18.0066  -29.4612  -45.7702 O.2       1 UNK        -0.4969 
     27 C          21.5876  -25.5659  -43.1042 C.2       3 UNK         0.5005 
     28 O          21.9078  -24.5067  -42.5589 O.2       3 UNK        -0.5279 
     29 N          22.4624  -26.5452  -43.3560 N.am      4 UNK        -0.4463 
     30 CA         23.8186  -26.6240  -42.8147 C.3       4 UNK         0.0283 
     31 CB         24.6152  -27.6592  -43.6221 C.3       4 UNK        -0.1875 
     32 C          23.7877  -26.9897  -41.3186 C.2       4 UNK         0.4949 
     33 O          22.8222  -27.5996  -40.8530 O.2       4 UNK        -0.5039 
     34 N          24.8412  -26.5985  -40.5920 N.am      5 UNK        -0.4663 
     35 CA         24.9698  -26.7948  -39.1455 C.3       5 UNK         0.0242 
     36 CB         26.1666  -25.9754  -38.6351 C.3       5 UNK        -0.1982 
     37 C          25.1305  -28.2735  -38.7516 C.2       5 UNK         0.5017 
     38 O          25.7936  -29.0292  -39.4652 O.2       5 UNK        -0.5012 
     39 N          24.5656  -28.6362  -37.5912 N.am      6 UNK        -0.4439 
     40 CA         24.5913  -29.9710  -36.9828 C.3       6 UNK         0.0297 
     41 CB         26.0162  -30.3112  -36.4843 C.3       6 UNK        -0.2006 
     42 C          23.9645  -31.0375  -37.9059 C.2       6 UNK         0.4892 
     43 O          22.8685  -30.8147  -38.4206 O.2       6 UNK        -0.5089 
     44 N          24.6505  -32.1726  -38.0883 N.am      7 UNK        -0.4243 
     45 CA         24.2080  -33.2973  -38.9161 C.3       7 UNK         0.0196 
     46 CB         24.8812  -34.5806  -38.3994 C.3       7 UNK        -0.2007 
     47 C          24.4852  -33.1121  -40.4199 C.2       7 UNK         0.5020 
     48 O          24.0484  -33.9511  -41.2093 O.2       7 UNK        -0.5147 
     49 N          25.2047  -32.0470  -40.8095 N.am      8 UNK        -0.4734 
     50 CA         25.6370  -31.7926  -42.1913 C.3       8 UNK         0.0238 
     51 CB         26.6328  -30.6227  -42.2143 C.3       8 UNK        -0.1912 
     52 C          24.4912  -31.5441  -43.1891 C.2       8 UNK         0.5038 
     53 O          24.7154  -31.6700  -44.3936 O.2       8 UNK        -0.5046 
     54 N          23.2958  -31.2121  -42.6845 N.am      9 UNK        -0.4200 
     55 CA         22.0557  -31.1276  -43.4667 C.3       9 UNK         0.0839 
     56 C          21.5214  -32.4954  -43.9911 C.2       9 UNK         0.5513 
     57 N          21.9999  -33.6345  -43.4994 N.am      9 UNK        -0.7519 
     58 O          20.6674  -32.5238  -44.8727 O.2       9 UNK        -0.4960 
     59 C59        20.9659  -30.3215  -42.7164 C.3       10 UNK        -0.0876 
     60 S60        20.4252  -31.0800  -41.1459 S.3       10 UNK        -0.2414 
     61 C61        19.5453  -29.6826  -40.3677 C.3       10 UNK         0.0169 
     62 H62        14.1198  -24.4198  -46.8384 H         1 UNK         0.0903 
     63 H63        14.3956  -25.1275  -45.2434 H         1 UNK         0.0903 
     64 H64        15.5909  -24.0350  -45.9403 H         1 UNK         0.0903 
     65 H65        14.8744  -27.3051  -45.4661 H         1 UNK         0.3096 
     66 H66        15.9892  -28.4486  -47.8519 H         1 UNK         0.1121 
     67 H67        14.4158  -29.8476  -47.0187 H         1 UNK         0.0849 
     68 H68        15.8134  -30.6299  -46.3910 H         1 UNK         0.0849 
     69 H69        16.3042  -31.0524  -44.1195 H         1 UNK         0.0865 
     70 H70        15.1098  -31.0308  -42.8494 H         1 UNK         0.0865 
     71 H71        17.7357  -31.0169  -41.9751 H         1 UNK         0.1346 
     72 H72        18.7579  -27.0955  -40.5702 H         1 UNK         0.1412 
     73 H73        15.4805  -27.5988  -43.2582 H         1 UNK         0.1426 
     74 H74        17.2614  -25.2265  -41.0388 H         1 UNK         0.0716 
     75 H75        15.7439  -25.5355  -41.8378 H         1 UNK         0.0716 
     76 H76        19.2889  -24.4815  -41.9837 H         1 UNK         0.0695 
     77 H77        19.4906  -23.7284  -43.5413 H         1 UNK         0.0695 
     78 H78        19.8176  -26.7072  -42.9484 H         1 UNK         0.0983 
     79 H79        19.3663  -25.4905  -45.4468 H         1 UNK         0.3095 
     80 H80        20.0344  -26.5406  -47.5169 H         1 UNK         0.0454 
     81 H81        20.1394  -28.7032  -48.7460 H         1 UNK         0.0851 
     82 H82        20.2899  -29.5842  -47.2263 H         1 UNK         0.0851 
     83 H83        21.5602  -28.4859  -47.7366 H         1 UNK         0.0851 
     84 H84        17.8291  -26.8671  -47.5330 H         1 UNK         0.2976 
     85 H85        22.1055  -27.3671  -43.8390 H         1 UNK         0.3116 
     86 H86        24.2963  -25.6485  -42.9281 H         1 UNK         0.0646 
     87 H87        24.1701  -28.6504  -43.5490 H         1 UNK         0.0847 
     88 H88        25.6433  -27.7298  -43.2662 H         1 UNK         0.0847 
     89 H89        24.6576  -27.3912  -44.6779 H         1 UNK         0.0847 
     90 H90        25.6109  -26.1372  -41.0551 H         1 UNK         0.3040 
     91 H91        24.0605  -26.4082  -38.6792 H         1 UNK         0.1015 
     92 H92        26.0445  -24.9140  -38.8519 H         1 UNK         0.0786 
     93 H93        27.1029  -26.3065  -39.0867 H         1 UNK         0.0786 
     94 H94        26.2756  -26.0727  -37.5539 H         1 UNK         0.0786 
     95 H95        24.0213  -27.9466  -37.0916 H         1 UNK         0.3172 
     96 H96        23.9435  -29.9179  -36.1067 H         1 UNK         0.0595 
     97 H97        26.7267  -30.4201  -37.3048 H         1 UNK         0.0839 
     98 H98        26.0263  -31.2356  -35.9055 H         1 UNK         0.0839 
     99 H99        26.3956  -29.5281  -35.8277 H         1 UNK         0.0839 
    100 H100       25.5484  -32.2687  -37.6361 H         1 UNK         0.2998 
    101 H101       23.1276  -33.4126  -38.8032 H         1 UNK         0.0822 
    102 H102       25.9668  -34.5342  -38.4955 H         1 UNK         0.0787 
    103 H103       24.6430  -34.7597  -37.3507 H         1 UNK         0.0787 
    104 H104       24.5422  -35.4539  -38.9586 H         1 UNK         0.0787 
    105 H105       25.4914  -31.3706  -40.1129 H         1 UNK         0.3055 
    106 H106       26.1607  -32.6873  -42.5354 H         1 UNK         0.1106 
    107 H107       27.0434  -30.4789  -43.2147 H         1 UNK         0.0828 
    108 H108       26.1572  -29.6869  -41.9236 H         1 UNK         0.0828 
    109 H109       27.4725  -30.7969  -41.5414 H         1 UNK         0.0828 
    110 H110       23.1943  -31.1399  -41.6823 H         1 UNK         0.2931 
    111 H111       22.2979  -30.5519  -44.3622 H         1 UNK         0.0412 
    112 H112       22.6969  -33.6327  -42.7635 H         1 UNK         0.3472 
    113 H113       21.6478  -34.5095  -43.8534 H         1 UNK         0.3472 
    114 H114       21.3384  -29.3184  -42.5039 H         1 UNK         0.0970 
    115 H115       20.0946  -30.1803  -43.3596 H         1 UNK         0.0970 
    116 H116       19.1587  -30.0105  -39.4023 H         1 UNK         0.0612 
    117 H117       20.2772  -28.9002  -40.1589 H         1 UNK         0.0612 
@<TRIPOS>BOND
     1    1    2 1    
     2    1   62 1    
     3    1   63 1    
     4    1   64 1    
     5    2    3 2    
     6    2    4 am   BACKBONE|DICT|INTERRES
     7    4    5 1    
     8    4   65 1    
     9    5    6 1    
    10    5   25 1    
    11    5   66 1    
    12    6    7 1    
    13    6   67 1    
    14    6   68 1    
    15    7    8 1    
    16    8    9 1    
    17    8   69 1    
    18    8   70 1    
    19    9   10 ar   
    20    9   14 ar   
    21   10   11 ar   
    22   10   71 1    
    23   11   12 ar   
    24   11   61 1    
    25   12   13 ar   
    26   12   72 1    
    27   13   14 ar   
    28   13   15 1    
    29   14   73 1    
    30   15   16 1    
    31   15   74 1    
    32   15   75 1    
    33   16   17 1    
    34   17   18 1    
    35   17   76 1    
    36   17   77 1    
    37   18   19 1    
    38   18   27 1    
    39   18   78 1    
    40   19   20 am   BACKBONE|DICT|INTERRES
    41   19   79 1    
    42   20   21 2    
    43   20   22 1    
    44   22   23 1    
    45   22   24 1    
    46   22   80 1    
    47   23   81 1    
    48   23   82 1    
    49   23   83 1    
    50   24   25 am   BACKBONE|DICT|INTERRES
    51   24   84 1    
    52   25   26 2    
    53   27   28 2    
    54   27   29 am   BACKBONE|DICT|INTERRES
    55   29   30 1    
    56   29   85 1    
    57   30   31 1    
    58   30   32 1    
    59   30   86 1    
    60   31   87 1    
    61   31   88 1    
    62   31   89 1    
    63   32   33 2    
    64   32   34 am   BACKBONE|DICT|INTERRES
    65   34   35 1    
    66   34   90 1    
    67   35   36 1    
    68   35   37 1    
    69   35   91 1    
    70   36   92 1    
    71   36   93 1    
    72   36   94 1    
    73   37   38 2    
    74   37   39 am   BACKBONE|DICT|INTERRES
    75   39   40 1    
    76   39   95 1    
    77   40   41 1    
    78   40   42 1    
    79   40   96 1    
    80   41   97 1    
    81   41   98 1    
    82   41   99 1    
    83   42   43 2    
    84   42   44 am   BACKBONE|DICT|INTERRES
    85   44   45 1    
    86   44  100 1    
    87   45   46 1    
    88   45   47 1    
    89   45  101 1    
    90   46  102 1    
    91   46  103 1    
    92   46  104 1    
    93   47   48 2    
    94   47   49 am   BACKBONE|DICT|INTERRES
    95   49   50 1    
    96   49  105 1    
    97   50   51 1    
    98   50   52 1    
    99   50  106 1    
   100   51  107 1    
   101   51  108 1    
   102   51  109 1    
   103   52   53 2    
   104   52   54 am   BACKBONE|DICT|INTERRES
   105   54   55 1    
   106   54  110 1    
   107   55   56 1    
   108   55   59 1    
   109   55  111 1    
   110   56   57 am   BACKBONE|DICT|INTERRES
   111   56   58 2    
   112   57  112 1    
   113   57  113 1    
   114   59   60 1    
   115   59  114 1    
   116   59  115 1    
   117   60   61 1    
   118   61  116 1    
   119   61  117 1    
@<TRIPOS>SUBSTRUCTURE
     1 UNK         1 GROUP             0       ****    0 ROOT    
