@<TRIPOS>MOLECULE
3R8
117   119    1
SMALL
USER_CHARGES


@<TRIPOS>ATOM
      1 CA         14.3515  -22.7895  -43.9051 C.3       0 UNK        -0.2013 
      2 C          15.3747  -23.9106  -44.0038 C.2       0 UNK         0.4866 
      3 O          15.4353  -24.5991  -45.0236 O.2       0 UNK        -0.5176 
      4 N          16.1852  -24.1033  -42.9545 N.am      1 UNK        -0.4884 
      5 CA         17.2516  -25.1066  -42.8914 C.3       1 UNK         0.0853 
      6 C6         17.5302  -25.5297  -41.4257 C.3       10 UNK        -0.0849 
      7 S7         18.5142  -27.0597  -41.2931 S.3       10 UNK        -0.2776 
      8 C8         17.2834  -28.3496  -41.6763 C.3       10 UNK         0.0316 
      9 C9         17.8147  -29.3027  -42.7380 C.ar      10 UNK        -0.0863 
     10 C10        18.1512  -30.6198  -42.4102 C.ar      10 UNK        -0.1009 
     11 C11        18.6759  -31.4812  -43.3795 C.ar      10 UNK        -0.0712 
     12 C12        18.8464  -31.0220  -44.6893 C.ar      10 UNK        -0.0894 
     13 C13        18.5295  -29.7026  -45.0250 C.ar      10 UNK        -0.0745 
     14 C14        17.9962  -28.8569  -44.0502 C.ar      10 UNK        -0.0972 
     15 C15        18.7996  -29.1675  -46.4249 C.3       10 UNK         0.0209 
     16 S16        20.5554  -29.2863  -46.9122 S.3       10 UNK        -0.2568 
     17 C17        21.4649  -28.5477  -45.5089 C.3       10 UNK        -0.0983 
     18 CA         21.8540  -27.0724  -45.7642 C.3       3 UNK         0.0876 
     19 N          20.6950  -26.1782  -45.6797 N.am      3 UNK        -0.4424 
     20 C          20.6904  -24.9037  -46.0925 C.2       2 UNK         0.4918 
     21 O          21.6608  -24.3582  -46.6201 O.2       2 UNK        -0.4875 
     22 CA         19.3889  -24.0960  -45.9326 C.3       2 UNK         0.0481 
     23 CB         18.7052  -23.9202  -47.2986 C.3       2 UNK        -0.1831 
     24 N          18.4173  -24.6661  -44.9951 N.am      2 UNK        -0.4498 
     25 C          18.4932  -24.5965  -43.6588 C.2       1 UNK         0.5027 
     26 O          19.4423  -24.0977  -43.0522 O.2       1 UNK        -0.4969 
     27 C          22.9581  -26.6264  -44.7844 C.2       3 UNK         0.5005 
     28 O          22.6649  -26.3474  -43.6200 O.2       3 UNK        -0.5279 
     29 N          24.2125  -26.6070  -45.2601 N.am      4 UNK        -0.4463 
     30 CA         25.3970  -26.1679  -44.5087 C.3       4 UNK         0.0283 
     31 CB         26.6054  -26.1061  -45.4569 C.3       4 UNK        -0.1875 
     32 C          25.7277  -27.0304  -43.2764 C.2       4 UNK         0.4949 
     33 O          26.3412  -26.5274  -42.3353 O.2       4 UNK        -0.5039 
     34 N          25.3006  -28.3001  -43.2917 N.am      5 UNK        -0.4663 
     35 CA         25.3987  -29.2290  -42.1622 C.3       5 UNK         0.0242 
     36 CB         25.2370  -30.6663  -42.6880 C.3       5 UNK        -0.1982 
     37 C          24.3681  -28.9551  -41.0493 C.2       5 UNK         0.5017 
     38 O          24.4882  -29.5453  -39.9748 O.2       5 UNK        -0.5012 
     39 N          23.3663  -28.1031  -41.3228 N.am      6 UNK        -0.4439 
     40 CA         22.1767  -27.8585  -40.5042 C.3       6 UNK         0.0297 
     41 CB         22.5437  -27.1252  -39.1933 C.3       6 UNK        -0.2006 
     42 C          21.3731  -29.1606  -40.3121 C.2       6 UNK         0.4892 
     43 O          21.2280  -29.9192  -41.2699 O.2       6 UNK        -0.5089 
     44 N          20.8773  -29.4086  -39.0934 N.am      7 UNK        -0.4243 
     45 CA         20.1121  -30.6061  -38.7386 C.3       7 UNK         0.0196 
     46 CB         19.3704  -30.3472  -37.4171 C.3       7 UNK        -0.2007 
     47 C          20.9562  -31.8920  -38.6419 C.2       7 UNK         0.5020 
     48 O          20.3794  -32.9799  -38.6061 O.2       7 UNK        -0.5147 
     49 N          22.2909  -31.7731  -38.5872 N.am      8 UNK        -0.4734 
     50 CA         23.2356  -32.8831  -38.4174 C.3       8 UNK         0.0238 
     51 CB         24.5336  -32.3438  -37.7870 C.3       8 UNK        -0.1912 
     52 C          23.4885  -33.6636  -39.7245 C.2       8 UNK         0.5038 
     53 O          24.6413  -33.8457  -40.1213 O.2       8 UNK        -0.5046 
     54 N          22.4061  -34.1185  -40.3649 N.am      9 UNK        -0.4200 
     55 CA         22.4242  -34.9412  -41.5858 C.3       9 UNK         0.0839 
     56 C          22.7218  -36.4484  -41.3358 C.2       9 UNK         0.5513 
     57 N          22.7627  -36.9277  -40.0979 N.am      9 UNK        -0.7519 
     58 O          22.9282  -37.1979  -42.2868 O.2       9 UNK        -0.4960 
     59 C59        21.1298  -34.7591  -42.4209 C.3       10 UNK        -0.0876 
     60 S60        20.9102  -33.0337  -42.9651 S.3       10 UNK        -0.2414 
     61 C61        19.0971  -32.8948  -43.0079 C.3       10 UNK         0.0169 
     62 H62        13.3445  -23.1907  -44.0161 H         1 UNK         0.0903 
     63 H63        14.4060  -22.2697  -42.9488 H         1 UNK         0.0903 
     64 H64        14.5172  -22.0605  -44.6978 H         1 UNK         0.0903 
     65 H65        16.1146  -23.4878  -42.1558 H         1 UNK         0.3096 
     66 H66        16.8875  -25.9914  -43.4141 H         1 UNK         0.1121 
     67 H67        16.5900  -25.6936  -40.8960 H         1 UNK         0.0849 
     68 H68        18.0408  -24.7348  -40.8788 H         1 UNK         0.0849 
     69 H69        16.3494  -27.9077  -42.0254 H         1 UNK         0.0865 
     70 H70        17.0406  -28.8865  -40.7579 H         1 UNK         0.0865 
     71 H71        18.0272  -30.9698  -41.3956 H         1 UNK         0.1346 
     72 H72        19.2715  -31.6784  -45.4364 H         1 UNK         0.1412 
     73 H73        17.7509  -27.8388  -44.3083 H         1 UNK         0.1426 
     74 H74        18.4854  -28.1264  -46.5128 H         1 UNK         0.0716 
     75 H75        18.1977  -29.7286  -47.1409 H         1 UNK         0.0716 
     76 H76        22.3590  -29.1607  -45.3783 H         1 UNK         0.0695 
     77 H77        20.9086  -28.6483  -44.5758 H         1 UNK         0.0695 
     78 H78        22.2541  -26.9944  -46.7779 H         1 UNK         0.0983 
     79 H79        19.8763  -26.5420  -45.2197 H         1 UNK         0.3095 
     80 H80        19.6685  -23.1052  -45.5685 H         1 UNK         0.0454 
     81 H81        18.3915  -24.8764  -47.7194 H         1 UNK         0.0851 
     82 H82        19.3799  -23.4539  -48.0180 H         1 UNK         0.0851 
     83 H83        17.8251  -23.2811  -47.2235 H         1 UNK         0.0851 
     84 H84        17.5472  -24.9996  -45.3944 H         1 UNK         0.2976 
     85 H85        24.3682  -26.8629  -46.2254 H         1 UNK         0.3116 
     86 H86        25.1971  -25.1568  -44.1475 H         1 UNK         0.0646 
     87 H87        26.8417  -27.0850  -45.8761 H         1 UNK         0.0847 
     88 H88        27.4952  -25.7543  -44.9327 H         1 UNK         0.0847 
     89 H89        26.4286  -25.4183  -46.2840 H         1 UNK         0.0847 
     90 H90        24.8187  -28.6315  -44.1145 H         1 UNK         0.3040 
     91 H91        26.3910  -29.1338  -41.7154 H         1 UNK         0.1015 
     92 H92        25.9899  -30.9037  -43.4397 H         1 UNK         0.0786 
     93 H93        24.2527  -30.8252  -43.1314 H         1 UNK         0.0786 
     94 H94        25.3471  -31.3927  -41.8809 H         1 UNK         0.0786 
     95 H95        23.3456  -27.6580  -42.2349 H         1 UNK         0.3172 
     96 H96        21.5436  -27.1916  -41.0905 H         1 UNK         0.0595 
     97 H97        23.1202  -27.7542  -38.5141 H         1 UNK         0.0839 
     98 H98        21.6509  -26.7898  -38.6643 H         1 UNK         0.0839 
     99 H99        23.1385  -26.2353  -39.3998 H         1 UNK         0.0839 
    100 H100       21.0476  -28.7399  -38.3565 H         1 UNK         0.2998 
    101 H101       19.3667  -30.7736  -39.5173 H         1 UNK         0.0822 
    102 H102       18.7042  -29.4878  -37.4976 H         1 UNK         0.0787 
    103 H103       18.7560  -31.2048  -37.1388 H         1 UNK         0.0787 
    104 H104       20.0628  -30.1623  -36.5949 H         1 UNK         0.0787 
    105 H105       22.6964  -30.8541  -38.7064 H         1 UNK         0.3055 
    106 H106       22.8050  -33.5954  -37.7098 H         1 UNK         0.1106 
    107 H107       25.2283  -33.1557  -37.5677 H         1 UNK         0.0828 
    108 H108       24.3361  -31.8275  -36.8475 H         1 UNK         0.0828 
    109 H109       25.0472  -31.6484  -38.4513 H         1 UNK         0.0828 
    110 H110       21.4973  -33.9085  -39.9661 H         1 UNK         0.2931 
    111 H111       23.2510  -34.5854  -42.2041 H         1 UNK         0.0412 
    112 H112       22.5918  -36.3252  -39.3092 H         1 UNK         0.3472 
    113 H113       22.9613  -37.9055  -39.9531 H         1 UNK         0.3472 
    114 H114       21.1522  -35.3844  -43.3155 H         1 UNK         0.0970 
    115 H115       20.2601  -35.0792  -41.8443 H         1 UNK         0.0970 
    116 H116       18.6904  -33.1725  -42.0341 H         1 UNK         0.0612 
    117 H117       18.6940  -33.6029  -43.7333 H         1 UNK         0.0612 
@<TRIPOS>BOND
     1    1    2 1    
     2    1   62 1    
     3    1   63 1    
     4    1   64 1    
     5    2    3 2    
     6    2    4 am   BACKBONE|DICT|INTERRES
     7    4    5 1    
     8    4   65 1    
     9    5    6 1    
    10    5   25 1    
    11    5   66 1    
    12    6    7 1    
    13    6   67 1    
    14    6   68 1    
    15    7    8 1    
    16    8    9 1    
    17    8   69 1    
    18    8   70 1    
    19    9   10 ar   
    20    9   14 ar   
    21   10   11 ar   
    22   10   71 1    
    23   11   12 ar   
    24   11   61 1    
    25   12   13 ar   
    26   12   72 1    
    27   13   14 ar   
    28   13   15 1    
    29   14   73 1    
    30   15   16 1    
    31   15   74 1    
    32   15   75 1    
    33   16   17 1    
    34   17   18 1    
    35   17   76 1    
    36   17   77 1    
    37   18   19 1    
    38   18   27 1    
    39   18   78 1    
    40   19   20 am   BACKBONE|DICT|INTERRES
    41   19   79 1    
    42   20   21 2    
    43   20   22 1    
    44   22   23 1    
    45   22   24 1    
    46   22   80 1    
    47   23   81 1    
    48   23   82 1    
    49   23   83 1    
    50   24   25 am   BACKBONE|DICT|INTERRES
    51   24   84 1    
    52   25   26 2    
    53   27   28 2    
    54   27   29 am   BACKBONE|DICT|INTERRES
    55   29   30 1    
    56   29   85 1    
    57   30   31 1    
    58   30   32 1    
    59   30   86 1    
    60   31   87 1    
    61   31   88 1    
    62   31   89 1    
    63   32   33 2    
    64   32   34 am   BACKBONE|DICT|INTERRES
    65   34   35 1    
    66   34   90 1    
    67   35   36 1    
    68   35   37 1    
    69   35   91 1    
    70   36   92 1    
    71   36   93 1    
    72   36   94 1    
    73   37   38 2    
    74   37   39 am   BACKBONE|DICT|INTERRES
    75   39   40 1    
    76   39   95 1    
    77   40   41 1    
    78   40   42 1    
    79   40   96 1    
    80   41   97 1    
    81   41   98 1    
    82   41   99 1    
    83   42   43 2    
    84   42   44 am   BACKBONE|DICT|INTERRES
    85   44   45 1    
    86   44  100 1    
    87   45   46 1    
    88   45   47 1    
    89   45  101 1    
    90   46  102 1    
    91   46  103 1    
    92   46  104 1    
    93   47   48 2    
    94   47   49 am   BACKBONE|DICT|INTERRES
    95   49   50 1    
    96   49  105 1    
    97   50   51 1    
    98   50   52 1    
    99   50  106 1    
   100   51  107 1    
   101   51  108 1    
   102   51  109 1    
   103   52   53 2    
   104   52   54 am   BACKBONE|DICT|INTERRES
   105   54   55 1    
   106   54  110 1    
   107   55   56 1    
   108   55   59 1    
   109   55  111 1    
   110   56   57 am   BACKBONE|DICT|INTERRES
   111   56   58 2    
   112   57  112 1    
   113   57  113 1    
   114   59   60 1    
   115   59  114 1    
   116   59  115 1    
   117   60   61 1    
   118   61  116 1    
   119   61  117 1    
@<TRIPOS>SUBSTRUCTURE
     1 UNK         1 GROUP             0       ****    0 ROOT    
