@<TRIPOS>MOLECULE
3R8
117   119    1
SMALL
USER_CHARGES


@<TRIPOS>ATOM
      1 CA         19.1067  -24.8048  -49.7316 C.3       0 UNK        -0.2013 
      2 C          18.2445  -23.8919  -48.8638 C.2       0 UNK         0.4866 
      3 O          17.6534  -22.9462  -49.3816 O.2       0 UNK        -0.5176 
      4 N          18.1413  -24.1249  -47.5506 N.am      1 UNK        -0.4884 
      5 CA         18.8088  -25.1718  -46.7790 C.3       1 UNK         0.0853 
      6 C6         18.0067  -26.4998  -46.7996 C.3       10 UNK        -0.0849 
      7 S7         19.0645  -27.9659  -46.5595 S.3       10 UNK        -0.2776 
      8 C8         17.8438  -29.3150  -46.7165 C.3       10 UNK         0.0316 
      9 C9         17.3446  -29.7735  -45.3536 C.ar      10 UNK        -0.0863 
     10 C10        17.8264  -30.9582  -44.7858 C.ar      10 UNK        -0.1009 
     11 C11        17.4146  -31.3510  -43.5080 C.ar      10 UNK        -0.0712 
     12 C12        16.5186  -30.5494  -42.7955 C.ar      10 UNK        -0.0894 
     13 C13        16.0455  -29.3562  -43.3472 C.ar      10 UNK        -0.0745 
     14 C14        16.4292  -28.9946  -44.6408 C.ar      10 UNK        -0.0972 
     15 C15        15.2084  -28.4020  -42.5113 C.3       10 UNK         0.0209 
     16 S16        16.1722  -26.9176  -42.0601 S.3       10 UNK        -0.2568 
     17 C17        17.5678  -27.6257  -41.1130 C.3       10 UNK        -0.0983 
     18 CA         18.8222  -27.9280  -41.9905 C.3       3 UNK         0.0876 
     19 N          19.3073  -26.7841  -42.7673 N.am      3 UNK        -0.4424 
     20 C          19.8542  -25.6608  -42.2834 C.2       2 UNK         0.4918 
     21 O          19.9593  -25.4146  -41.0813 O.2       2 UNK        -0.4875 
     22 CA         20.4025  -24.6457  -43.3062 C.3       2 UNK         0.0481 
     23 CB         21.9250  -24.4891  -43.1522 C.3       2 UNK        -0.1831 
     24 N          20.0973  -25.0116  -44.6955 N.am      2 UNK        -0.4498 
     25 C          18.9879  -24.6387  -45.3471 C.2       1 UNK         0.5027 
     26 O          18.1136  -23.9159  -44.8604 O.2       1 UNK        -0.4969 
     27 C          19.9928  -28.5962  -41.2385 C.2       3 UNK         0.5005 
     28 O          21.0536  -28.7805  -41.8389 O.2       3 UNK        -0.5279 
     29 N          19.8137  -28.9432  -39.9544 N.am      4 UNK        -0.4463 
     30 CA         20.8065  -29.6325  -39.1175 C.3       4 UNK         0.0283 
     31 CB         20.2051  -29.9037  -37.7303 C.3       4 UNK        -0.1875 
     32 C          22.1575  -28.9041  -38.9843 C.2       4 UNK         0.4949 
     33 O          23.1756  -29.5613  -38.7635 O.2       4 UNK        -0.5039 
     34 N          22.1542  -27.5757  -39.1684 N.am      5 UNK        -0.4663 
     35 CA         23.3507  -26.7340  -39.2130 C.3       5 UNK         0.0242 
     36 CB         22.9396  -25.2555  -39.1437 C.3       5 UNK        -0.1982 
     37 C          24.2585  -26.9980  -40.4299 C.2       5 UNK         0.5017 
     38 O          25.4268  -26.6117  -40.3821 O.2       5 UNK        -0.5012 
     39 N          23.7610  -27.6898  -41.4694 N.am      6 UNK        -0.4439 
     40 CA         24.5419  -28.1653  -42.6196 C.3       6 UNK         0.0297 
     41 CB         23.5985  -28.4132  -43.8133 C.3       6 UNK        -0.2006 
     42 C          25.3869  -29.4141  -42.2773 C.2       6 UNK         0.4892 
     43 O          25.3546  -30.3979  -43.0183 O.2       6 UNK        -0.5089 
     44 N          26.1211  -29.3468  -41.1560 N.am      7 UNK        -0.4243 
     45 CA         27.0065  -30.3693  -40.5862 C.3       7 UNK         0.0196 
     46 CB         28.2836  -30.5009  -41.4439 C.3       7 UNK        -0.2007 
     47 C          26.3059  -31.7217  -40.3378 C.2       7 UNK         0.5020 
     48 O          26.8811  -32.7649  -40.6512 O.2       7 UNK        -0.5147 
     49 N          25.0864  -31.6679  -39.7752 N.am      8 UNK        -0.4734 
     50 CA         24.1523  -32.7777  -39.5407 C.3       8 UNK         0.0238 
     51 CB         24.7476  -33.8431  -38.5955 C.3       8 UNK        -0.1912 
     52 C          23.6545  -33.3756  -40.8694 C.2       8 UNK         0.5038 
     53 O          24.2910  -34.2726  -41.4252 O.2       8 UNK        -0.5046 
     54 N          22.5265  -32.8451  -41.3568 N.am      9 UNK        -0.4200 
     55 CA         21.8902  -33.1960  -42.6374 C.3       9 UNK         0.0839 
     56 C          21.4150  -34.6721  -42.8016 C.2       9 UNK         0.5513 
     57 N          21.3035  -35.4612  -41.7398 N.am      9 UNK        -0.7519 
     58 O          21.1448  -35.1055  -43.9187 O.2       9 UNK        -0.4960 
     59 C59        20.7621  -32.1891  -42.9835 C.3       10 UNK        -0.0876 
     60 S60        19.3779  -32.2265  -41.7864 S.3       10 UNK        -0.2414 
     61 C61        17.9654  -32.6139  -42.8659 C.3       10 UNK         0.0169 
     62 H62        20.1638  -24.5960  -49.5699 H         1 UNK         0.0903 
     63 H63        18.9218  -25.8572  -49.5210 H         1 UNK         0.0903 
     64 H64        18.8916  -24.6403  -50.7873 H         1 UNK         0.0903 
     65 H65        17.5991  -23.4934  -46.9725 H         1 UNK         0.3096 
     66 H66        19.8040  -25.3297  -47.2004 H         1 UNK         0.1121 
     67 H67        17.5071  -26.6243  -47.7614 H         1 UNK         0.0849 
     68 H68        17.2058  -26.4843  -46.0600 H         1 UNK         0.0849 
     69 H69        17.0030  -29.0024  -47.3376 H         1 UNK         0.0865 
     70 H70        18.3129  -30.1468  -47.2444 H         1 UNK         0.0865 
     71 H71        18.5376  -31.5643  -45.3298 H         1 UNK         0.1346 
     72 H72        16.2325  -30.8311  -41.7912 H         1 UNK         0.1412 
     73 H73        16.0583  -28.0716  -45.0609 H         1 UNK         0.1426 
     74 H74        14.8441  -28.8880  -41.6048 H         1 UNK         0.0716 
     75 H75        14.3265  -28.0988  -43.0772 H         1 UNK         0.0716 
     76 H76        17.2125  -28.5313  -40.6185 H         1 UNK         0.0695 
     77 H77        17.8170  -26.9198  -40.3190 H         1 UNK         0.0695 
     78 H78        18.5435  -28.6684  -42.7365 H         1 UNK         0.0983 
     79 H79        19.2897  -26.9072  -43.7683 H         1 UNK         0.3095 
     80 H80        19.9476  -23.6793  -43.0787 H         1 UNK         0.0454 
     81 H81        22.4458  -25.4408  -43.2485 H         1 UNK         0.0851 
     82 H82        22.1758  -24.0806  -42.1734 H         1 UNK         0.0851 
     83 H83        22.3331  -23.8041  -43.8955 H         1 UNK         0.0851 
     84 H84        20.7650  -25.6098  -45.1627 H         1 UNK         0.2976 
     85 H85        18.9221  -28.7464  -39.5233 H         1 UNK         0.3116 
     86 H86        21.0105  -30.5945  -39.5906 H         1 UNK         0.0646 
     87 H87        19.3084  -30.5200  -37.7985 H         1 UNK         0.0847 
     88 H88        20.9134  -30.4380  -37.0951 H         1 UNK         0.0847 
     89 H89        19.9414  -28.9786  -37.2161 H         1 UNK         0.0847 
     90 H90        21.2739  -27.1233  -39.3746 H         1 UNK         0.3040 
     91 H91        23.9452  -26.9598  -38.3247 H         1 UNK         0.1015 
     92 H92        22.3257  -24.9676  -39.9955 H         1 UNK         0.0786 
     93 H93        23.8154  -24.6049  -39.1388 H         1 UNK         0.0786 
     94 H94        22.3745  -25.0423  -38.2362 H         1 UNK         0.0786 
     95 H95        22.7962  -28.0115  -41.4285 H         1 UNK         0.3172 
     96 H96        25.2391  -27.3775  -42.9122 H         1 UNK         0.0595 
     97 H97        22.9250  -29.2503  -43.6270 H         1 UNK         0.0839 
     98 H98        24.1653  -28.6506  -44.7143 H         1 UNK         0.0839 
     99 H99        22.9888  -27.5401  -44.0386 H         1 UNK         0.0839 
    100 H100       26.0699  -28.4727  -40.6419 H         1 UNK         0.2998 
    101 H101       27.3070  -30.0014  -39.6039 H         1 UNK         0.0822 
    102 H102       29.0045  -31.1718  -40.9748 H         1 UNK         0.0787 
    103 H103       28.0638  -30.8996  -42.4351 H         1 UNK         0.0787 
    104 H104       28.7768  -29.5373  -41.5720 H         1 UNK         0.0787 
    105 H105       24.7059  -30.7520  -39.5557 H         1 UNK         0.3055 
    106 H106       23.2918  -32.3472  -39.0253 H         1 UNK         0.1106 
    107 H107       24.0036  -34.6033  -38.3550 H         1 UNK         0.0828 
    108 H108       25.6004  -34.3600  -39.0360 H         1 UNK         0.0828 
    109 H109       25.0743  -33.3999  -37.6549 H         1 UNK         0.0828 
    110 H110       22.0574  -32.1230  -40.8325 H         1 UNK         0.2931 
    111 H111       22.6678  -33.0622  -43.3921 H         1 UNK         0.0412 
    112 H112       20.9978  -36.4139  -41.8609 H         1 UNK         0.3472 
    113 H113       21.5217  -35.1129  -40.8206 H         1 UNK         0.3472 
    114 H114       20.3944  -32.3718  -43.9940 H         1 UNK         0.0970 
    115 H115       21.1652  -31.1759  -43.0066 H         1 UNK         0.0970 
    116 H116       17.1872  -33.0878  -42.2659 H         1 UNK         0.0612 
    117 H117       18.2542  -33.3464  -43.6213 H         1 UNK         0.0612 
@<TRIPOS>BOND
     1    1    2 1    
     2    1   62 1    
     3    1   63 1    
     4    1   64 1    
     5    2    3 2    
     6    2    4 am   BACKBONE|DICT|INTERRES
     7    4    5 1    
     8    4   65 1    
     9    5    6 1    
    10    5   25 1    
    11    5   66 1    
    12    6    7 1    
    13    6   67 1    
    14    6   68 1    
    15    7    8 1    
    16    8    9 1    
    17    8   69 1    
    18    8   70 1    
    19    9   10 ar   
    20    9   14 ar   
    21   10   11 ar   
    22   10   71 1    
    23   11   12 ar   
    24   11   61 1    
    25   12   13 ar   
    26   12   72 1    
    27   13   14 ar   
    28   13   15 1    
    29   14   73 1    
    30   15   16 1    
    31   15   74 1    
    32   15   75 1    
    33   16   17 1    
    34   17   18 1    
    35   17   76 1    
    36   17   77 1    
    37   18   19 1    
    38   18   27 1    
    39   18   78 1    
    40   19   20 am   BACKBONE|DICT|INTERRES
    41   19   79 1    
    42   20   21 2    
    43   20   22 1    
    44   22   23 1    
    45   22   24 1    
    46   22   80 1    
    47   23   81 1    
    48   23   82 1    
    49   23   83 1    
    50   24   25 am   BACKBONE|DICT|INTERRES
    51   24   84 1    
    52   25   26 2    
    53   27   28 2    
    54   27   29 am   BACKBONE|DICT|INTERRES
    55   29   30 1    
    56   29   85 1    
    57   30   31 1    
    58   30   32 1    
    59   30   86 1    
    60   31   87 1    
    61   31   88 1    
    62   31   89 1    
    63   32   33 2    
    64   32   34 am   BACKBONE|DICT|INTERRES
    65   34   35 1    
    66   34   90 1    
    67   35   36 1    
    68   35   37 1    
    69   35   91 1    
    70   36   92 1    
    71   36   93 1    
    72   36   94 1    
    73   37   38 2    
    74   37   39 am   BACKBONE|DICT|INTERRES
    75   39   40 1    
    76   39   95 1    
    77   40   41 1    
    78   40   42 1    
    79   40   96 1    
    80   41   97 1    
    81   41   98 1    
    82   41   99 1    
    83   42   43 2    
    84   42   44 am   BACKBONE|DICT|INTERRES
    85   44   45 1    
    86   44  100 1    
    87   45   46 1    
    88   45   47 1    
    89   45  101 1    
    90   46  102 1    
    91   46  103 1    
    92   46  104 1    
    93   47   48 2    
    94   47   49 am   BACKBONE|DICT|INTERRES
    95   49   50 1    
    96   49  105 1    
    97   50   51 1    
    98   50   52 1    
    99   50  106 1    
   100   51  107 1    
   101   51  108 1    
   102   51  109 1    
   103   52   53 2    
   104   52   54 am   BACKBONE|DICT|INTERRES
   105   54   55 1    
   106   54  110 1    
   107   55   56 1    
   108   55   59 1    
   109   55  111 1    
   110   56   57 am   BACKBONE|DICT|INTERRES
   111   56   58 2    
   112   57  112 1    
   113   57  113 1    
   114   59   60 1    
   115   59  114 1    
   116   59  115 1    
   117   60   61 1    
   118   61  116 1    
   119   61  117 1    
@<TRIPOS>SUBSTRUCTURE
     1 UNK         1 GROUP             0       ****    0 ROOT    
