@<TRIPOS>MOLECULE
3R8
117   119    1
SMALL
USER_CHARGES


@<TRIPOS>ATOM
      1 CA         16.5790  -21.9980  -47.3424 C.3       0 UNK        -0.2013 
      2 C          17.4257  -23.2613  -47.2956 C.2       0 UNK         0.4866 
      3 O          18.4508  -23.3369  -47.9741 O.2       0 UNK        -0.5176 
      4 N          17.0011  -24.2569  -46.5083 N.am      1 UNK        -0.4884 
      5 CA         17.7151  -25.5210  -46.3042 C.3       1 UNK         0.0853 
      6 C6         16.8355  -26.5655  -45.5755 C.3       10 UNK        -0.0849 
      7 S7         15.4862  -27.2193  -46.6042 S.3       10 UNK        -0.2776 
      8 C8         14.5400  -28.1647  -45.3618 C.3       10 UNK         0.0316 
      9 C9         15.4073  -29.1223  -44.5482 C.ar      10 UNK        -0.0863 
     10 C10        15.9990  -30.2341  -45.1566 C.ar      10 UNK        -0.1009 
     11 C11        16.7736  -31.1278  -44.4088 C.ar      10 UNK        -0.0712 
     12 C12        16.9354  -30.9094  -43.0374 C.ar      10 UNK        -0.0894 
     13 C13        16.3778  -29.7860  -42.4190 C.ar      10 UNK        -0.0745 
     14 C14        15.6114  -28.8986  -43.1818 C.ar      10 UNK        -0.0972 
     15 C15        16.5542  -29.5481  -40.9213 C.3       10 UNK         0.0209 
     16 S16        18.2606  -29.8060  -40.3221 S.3       10 UNK        -0.2568 
     17 C17        19.1498  -28.3661  -41.0103 C.3       10 UNK        -0.0983 
     18 CA         20.4810  -28.7525  -41.7171 C.3       3 UNK         0.0876 
     19 N          20.8955  -27.7373  -42.6841 N.am      3 UNK        -0.4424 
     20 C          20.5055  -27.7014  -43.9582 C.2       2 UNK         0.4918 
     21 O          19.7635  -28.5403  -44.4716 O.2       2 UNK        -0.4875 
     22 CA         21.0440  -26.5447  -44.8172 C.3       2 UNK         0.0481 
     23 CB         22.3041  -26.9758  -45.5845 C.3       2 UNK        -0.1831 
     24 N          20.0005  -26.1727  -45.7697 N.am      2 UNK        -0.4498 
     25 C          19.0048  -25.3249  -45.4850 C.2       1 UNK         0.5027 
     26 O          19.0336  -24.5069  -44.5612 O.2       1 UNK        -0.4969 
     27 C          21.6629  -29.0198  -40.7636 C.2       3 UNK         0.5005 
     28 O          22.8058  -28.6905  -41.0997 O.2       3 UNK        -0.5279 
     29 N          21.3811  -29.6085  -39.5934 N.am      4 UNK        -0.4463 
     30 CA         22.3515  -30.0629  -38.5898 C.3       4 UNK         0.0283 
     31 CB         21.6003  -30.6912  -37.4060 C.3       4 UNK        -0.1875 
     32 C          23.3282  -28.9829  -38.0921 C.2       4 UNK         0.4949 
     33 O          24.4654  -29.3134  -37.7591 O.2       4 UNK        -0.5039 
     34 N          22.9024  -27.7118  -38.1118 N.am      5 UNK        -0.4663 
     35 CA         23.7383  -26.5400  -37.8234 C.3       5 UNK         0.0242 
     36 CB         22.8458  -25.2897  -37.7681 C.3       5 UNK        -0.1982 
     37 C          24.8917  -26.3327  -38.8269 C.2       5 UNK         0.5017 
     38 O          25.8992  -25.7257  -38.4633 O.2       5 UNK        -0.5012 
     39 N          24.7323  -26.8513  -40.0521 N.am      6 UNK        -0.4439 
     40 CA         25.7434  -26.8809  -41.1110 C.3       6 UNK         0.0297 
     41 CB         25.1043  -26.3463  -42.4058 C.3       6 UNK        -0.2006 
     42 C          26.3015  -28.3030  -41.3243 C.2       6 UNK         0.4892 
     43 O          27.0382  -28.5139  -42.2884 O.2       6 UNK        -0.5089 
     44 N          25.9287  -29.2512  -40.4477 N.am      7 UNK        -0.4243 
     45 CA         26.2192  -30.6900  -40.4963 C.3       7 UNK         0.0196 
     46 CB         27.7297  -30.9543  -40.3177 C.3       7 UNK        -0.2007 
     47 C          25.6270  -31.4049  -41.7300 C.2       7 UNK         0.5020 
     48 O          26.1542  -32.4389  -42.1444 O.2       7 UNK        -0.5147 
     49 N          24.5408  -30.8598  -42.2915 N.am      8 UNK        -0.4734 
     50 CA         23.8128  -31.4313  -43.4247 C.3       8 UNK         0.0238 
     51 CB         23.3540  -30.2832  -44.3365 C.3       8 UNK        -0.1912 
     52 C          22.6053  -32.2426  -42.9325 C.2       8 UNK         0.5038 
     53 O          22.1346  -32.0244  -41.8142 O.2       8 UNK        -0.5046 
     54 N          22.1097  -33.1448  -43.7901 N.am      9 UNK        -0.4200 
     55 CA         20.9211  -33.9888  -43.5568 C.3       9 UNK         0.0839 
     56 C          21.0692  -35.0242  -42.3975 C.2       9 UNK         0.5513 
     57 N          22.2775  -35.3539  -41.9567 N.am      9 UNK        -0.7519 
     58 O          20.0802  -35.5689  -41.9134 O.2       9 UNK        -0.4960 
     59 C59        19.6081  -33.1555  -43.4638 C.3       10 UNK        -0.0876 
     60 S60        19.2419  -32.2699  -45.0209 S.3       10 UNK        -0.2414 
     61 C61        17.4184  -32.3344  -45.0813 C.3       10 UNK         0.0169 
     62 H62        15.6968  -22.0740  -46.7068 H         1 UNK         0.0903 
     63 H63        17.1645  -21.1418  -47.0084 H         1 UNK         0.0903 
     64 H64        16.2462  -21.8067  -48.3623 H         1 UNK         0.0903 
     65 H65        16.1572  -24.1394  -45.9662 H         1 UNK         0.3096 
     66 H66        17.9907  -25.9135  -47.2860 H         1 UNK         0.1121 
     67 H67        17.4345  -27.4269  -45.2714 H         1 UNK         0.0849 
     68 H68        16.4199  -26.1483  -44.6558 H         1 UNK         0.0849 
     69 H69        14.0235  -27.4619  -44.7060 H         1 UNK         0.0865 
     70 H70        13.7590  -28.7325  -45.8695 H         1 UNK         0.0865 
     71 H71        15.8549  -30.3990  -46.2158 H         1 UNK         0.1346 
     72 H72        17.5080  -31.6097  -42.4482 H         1 UNK         0.1412 
     73 H73        15.1607  -28.0375  -42.7071 H         1 UNK         0.1426 
     74 H74        15.8942  -30.2326  -40.3871 H         1 UNK         0.0716 
     75 H75        16.2373  -28.5405  -40.6474 H         1 UNK         0.0716 
     76 H76        18.4856  -27.8804  -41.7272 H         1 UNK         0.0695 
     77 H77        19.3165  -27.6303  -40.2215 H         1 UNK         0.0695 
     78 H78        20.3292  -29.6914  -42.2563 H         1 UNK         0.0983 
     79 H79        21.5776  -27.0741  -42.3438 H         1 UNK         0.3095 
     80 H80        21.2939  -25.6954  -44.1776 H         1 UNK         0.0454 
     81 H81        23.1136  -27.2249  -44.8984 H         1 UNK         0.0851 
     82 H82        22.6656  -26.1774  -46.2326 H         1 UNK         0.0851 
     83 H83        22.1215  -27.8544  -46.2049 H         1 UNK         0.0851 
     84 H84        19.8564  -26.8344  -46.5197 H         1 UNK         0.2976 
     85 H85        20.4107  -29.8412  -39.4206 H         1 UNK         0.3116 
     86 H86        22.9516  -30.8425  -39.0640 H         1 UNK         0.0646 
     87 H87        22.2972  -31.0627  -36.6532 H         1 UNK         0.0847 
     88 H88        20.9441  -29.9709  -36.9158 H         1 UNK         0.0847 
     89 H89        20.9922  -31.5376  -37.7256 H         1 UNK         0.0847 
     90 H90        21.9505  -27.5349  -38.3982 H         1 UNK         0.3040 
     91 H91        24.1898  -26.6861  -36.8395 H         1 UNK         0.1015 
     92 H92        23.4323  -24.4018  -37.5269 H         1 UNK         0.0786 
     93 H93        22.0762  -25.3841  -37.0017 H         1 UNK         0.0786 
     94 H94        22.3510  -25.1037  -38.7223 H         1 UNK         0.0786 
     95 H95        23.8816  -27.3711  -40.2565 H         1 UNK         0.3172 
     96 H96        26.5867  -26.2377  -40.8525 H         1 UNK         0.0595 
     97 H97        24.2927  -26.9899  -42.7460 H         1 UNK         0.0839 
     98 H98        25.8361  -26.2905  -43.2127 H         1 UNK         0.0839 
     99 H99        24.7024  -25.3428  -42.2659 H         1 UNK         0.0839 
    100 H100       25.3472  -28.9655  -39.6690 H         1 UNK         0.2998 
    101 H101       25.7095  -31.1234  -39.6345 H         1 UNK         0.0822 
    102 H102       27.9294  -32.0194  -40.1948 H         1 UNK         0.0787 
    103 H103       28.1185  -30.4500  -39.4331 H         1 UNK         0.0787 
    104 H104       28.3052  -30.6142  -41.1791 H         1 UNK         0.0787 
    105 H105       24.1100  -30.0550  -41.8463 H         1 UNK         0.3055 
    106 H106       24.4672  -32.0920  -43.9980 H         1 UNK         0.1106 
    107 H107       22.7075  -29.5898  -43.8023 H         1 UNK         0.0828 
    108 H108       24.2042  -29.7187  -44.7200 H         1 UNK         0.0828 
    109 H109       22.7946  -30.6546  -45.1961 H         1 UNK         0.0828 
    110 H110       22.5558  -33.2654  -44.6877 H         1 UNK         0.2931 
    111 H111       20.8374  -34.6111  -44.4485 H         1 UNK         0.0412 
    112 H112       22.3647  -36.0328  -41.2167 H         1 UNK         0.3472 
    113 H113       23.1002  -34.9230  -42.3469 H         1 UNK         0.3472 
    114 H114       18.7634  -33.8055  -43.2324 H         1 UNK         0.0970 
    115 H115       19.6650  -32.4349  -42.6472 H         1 UNK         0.0970 
    116 H116       17.1224  -32.3811  -46.1303 H         1 UNK         0.0612 
    117 H117       17.0480  -33.2533  -44.6258 H         1 UNK         0.0612 
@<TRIPOS>BOND
     1    1    2 1    
     2    1   62 1    
     3    1   63 1    
     4    1   64 1    
     5    2    3 2    
     6    2    4 am   BACKBONE|DICT|INTERRES
     7    4    5 1    
     8    4   65 1    
     9    5    6 1    
    10    5   25 1    
    11    5   66 1    
    12    6    7 1    
    13    6   67 1    
    14    6   68 1    
    15    7    8 1    
    16    8    9 1    
    17    8   69 1    
    18    8   70 1    
    19    9   10 ar   
    20    9   14 ar   
    21   10   11 ar   
    22   10   71 1    
    23   11   12 ar   
    24   11   61 1    
    25   12   13 ar   
    26   12   72 1    
    27   13   14 ar   
    28   13   15 1    
    29   14   73 1    
    30   15   16 1    
    31   15   74 1    
    32   15   75 1    
    33   16   17 1    
    34   17   18 1    
    35   17   76 1    
    36   17   77 1    
    37   18   19 1    
    38   18   27 1    
    39   18   78 1    
    40   19   20 am   BACKBONE|DICT|INTERRES
    41   19   79 1    
    42   20   21 2    
    43   20   22 1    
    44   22   23 1    
    45   22   24 1    
    46   22   80 1    
    47   23   81 1    
    48   23   82 1    
    49   23   83 1    
    50   24   25 am   BACKBONE|DICT|INTERRES
    51   24   84 1    
    52   25   26 2    
    53   27   28 2    
    54   27   29 am   BACKBONE|DICT|INTERRES
    55   29   30 1    
    56   29   85 1    
    57   30   31 1    
    58   30   32 1    
    59   30   86 1    
    60   31   87 1    
    61   31   88 1    
    62   31   89 1    
    63   32   33 2    
    64   32   34 am   BACKBONE|DICT|INTERRES
    65   34   35 1    
    66   34   90 1    
    67   35   36 1    
    68   35   37 1    
    69   35   91 1    
    70   36   92 1    
    71   36   93 1    
    72   36   94 1    
    73   37   38 2    
    74   37   39 am   BACKBONE|DICT|INTERRES
    75   39   40 1    
    76   39   95 1    
    77   40   41 1    
    78   40   42 1    
    79   40   96 1    
    80   41   97 1    
    81   41   98 1    
    82   41   99 1    
    83   42   43 2    
    84   42   44 am   BACKBONE|DICT|INTERRES
    85   44   45 1    
    86   44  100 1    
    87   45   46 1    
    88   45   47 1    
    89   45  101 1    
    90   46  102 1    
    91   46  103 1    
    92   46  104 1    
    93   47   48 2    
    94   47   49 am   BACKBONE|DICT|INTERRES
    95   49   50 1    
    96   49  105 1    
    97   50   51 1    
    98   50   52 1    
    99   50  106 1    
   100   51  107 1    
   101   51  108 1    
   102   51  109 1    
   103   52   53 2    
   104   52   54 am   BACKBONE|DICT|INTERRES
   105   54   55 1    
   106   54  110 1    
   107   55   56 1    
   108   55   59 1    
   109   55  111 1    
   110   56   57 am   BACKBONE|DICT|INTERRES
   111   56   58 2    
   112   57  112 1    
   113   57  113 1    
   114   59   60 1    
   115   59  114 1    
   116   59  115 1    
   117   60   61 1    
   118   61  116 1    
   119   61  117 1    
@<TRIPOS>SUBSTRUCTURE
     1 UNK         1 GROUP             0       ****    0 ROOT    
