@<TRIPOS>MOLECULE
3R8
117   119    1
SMALL
USER_CHARGES


@<TRIPOS>ATOM
      1 CA         13.2201  -22.0446  -46.1684 C.3       0 UNK        -0.2013 
      2 C          14.2013  -23.0625  -46.7306 C.2       0 UNK         0.4866 
      3 O          14.6102  -22.9452  -47.8865 O.2       0 UNK        -0.5176 
      4 N          14.5763  -24.0652  -45.9263 N.am      1 UNK        -0.4884 
      5 CA         15.5654  -25.0886  -46.2785 C.3       1 UNK         0.0853 
      6 C6         15.4612  -26.3116  -45.3311 C.3       10 UNK        -0.0849 
      7 S7         16.1718  -27.8276  -46.0585 S.3       10 UNK        -0.2776 
      8 C8         15.9071  -29.0317  -44.7176 C.3       10 UNK         0.0316 
      9 C9         17.0811  -29.0800  -43.7484 C.ar      10 UNK        -0.0863 
     10 C10        18.0964  -30.0267  -43.9237 C.ar      10 UNK        -0.1009 
     11 C11        19.1561  -30.1123  -43.0151 C.ar      10 UNK        -0.0712 
     12 C12        19.2012  -29.2318  -41.9314 C.ar      10 UNK        -0.0894 
     13 C13        18.2075  -28.2638  -41.7588 C.ar      10 UNK        -0.0745 
     14 C14        17.1424  -28.2013  -42.6626 C.ar      10 UNK        -0.0972 
     15 C15        18.2983  -27.2738  -40.6067 C.3       10 UNK         0.0209 
     16 S16        19.7901  -26.2335  -40.7245 S.3       10 UNK        -0.2568 
     17 C17        19.5012  -25.3135  -42.2794 C.3       10 UNK        -0.0983 
     18 CA         20.1082  -25.9785  -43.5438 C.3       3 UNK         0.0876 
     19 N          19.7318  -25.2468  -44.7519 N.am      3 UNK        -0.4424 
     20 C          19.9444  -25.6545  -46.0093 C.2       2 UNK         0.4918 
     21 O          20.5330  -26.6943  -46.3105 O.2       2 UNK        -0.4875 
     22 CA         19.3086  -24.7823  -47.1073 C.3       2 UNK         0.0481 
     23 CB         19.8904  -25.0714  -48.5031 C.3       2 UNK        -0.1831 
     24 N          17.8643  -25.0168  -47.1314 N.am      2 UNK        -0.4498 
     25 C          16.9905  -24.4989  -46.2585 C.2       1 UNK         0.5027 
     26 O          17.2907  -23.6449  -45.4181 O.2       1 UNK        -0.4969 
     27 C          21.6352  -26.1713  -43.4413 C.2       3 UNK         0.5005 
     28 O          22.3931  -25.2123  -43.6102 O.2       3 UNK        -0.5279 
     29 N          22.0391  -27.4088  -43.1387 N.am      4 UNK        -0.4463 
     30 CA         23.4159  -27.8289  -42.9041 C.3       4 UNK         0.0283 
     31 CB         24.0788  -28.2355  -44.2341 C.3       4 UNK        -0.1875 
     32 C          23.3998  -28.9562  -41.8646 C.2       4 UNK         0.4949 
     33 O          23.9323  -30.0390  -42.1097 O.2       4 UNK        -0.5039 
     34 N          22.7476  -28.6995  -40.7206 N.am      5 UNK        -0.4663 
     35 CA         22.5574  -29.6684  -39.6340 C.3       5 UNK         0.0242 
     36 CB         21.6858  -29.0519  -38.5294 C.3       5 UNK        -0.1982 
     37 C          23.8721  -30.2139  -39.0550 C.2       5 UNK         0.5017 
     38 O          23.9610  -31.4109  -38.7866 O.2       5 UNK        -0.5012 
     39 N          24.8871  -29.3472  -38.9455 N.am      6 UNK        -0.4439 
     40 CA         26.2399  -29.7012  -38.5070 C.3       6 UNK         0.0297 
     41 CB         27.0582  -28.4143  -38.3121 C.3       6 UNK        -0.2006 
     42 C          26.9777  -30.6673  -39.4556 C.2       6 UNK         0.4892 
     43 O          27.9019  -31.3470  -39.0077 O.2       6 UNK        -0.5089 
     44 N          26.5734  -30.7101  -40.7334 N.am      7 UNK        -0.4243 
     45 CA         27.1578  -31.5785  -41.7538 C.3       7 UNK         0.0196 
     46 CB         27.1536  -30.8412  -43.1035 C.3       7 UNK        -0.2007 
     47 C          26.4245  -32.9232  -41.8847 C.2       7 UNK         0.5020 
     48 O          27.0276  -33.8663  -42.3990 O.2       7 UNK        -0.5147 
     49 N          25.1558  -33.0071  -41.4553 N.am      8 UNK        -0.4734 
     50 CA         24.3261  -34.1996  -41.6386 C.3       8 UNK         0.0238 
     51 CB         23.8027  -34.2756  -43.0895 C.3       8 UNK        -0.1912 
     52 C          23.1796  -34.2905  -40.6245 C.2       8 UNK         0.5038 
     53 O          23.1781  -35.2082  -39.8034 O.2       8 UNK        -0.5046 
     54 N          22.1930  -33.3935  -40.7556 N.am      9 UNK        -0.4200 
     55 CA         20.8545  -33.5352  -40.1498 C.3       9 UNK         0.0839 
     56 C          20.7679  -33.4363  -38.5988 C.2       9 UNK         0.5513 
     57 N          21.7797  -32.9525  -37.8936 N.am      9 UNK        -0.7519 
     58 O          19.7526  -33.8168  -38.0218 O.2       9 UNK        -0.4960 
     59 C59        19.8065  -32.6077  -40.8206 C.3       10 UNK        -0.0876 
     60 S60        19.7401  -32.7970  -42.6371 S.3       10 UNK        -0.2414 
     61 C61        20.2535  -31.1489  -43.2139 C.3       10 UNK         0.0169 
     62 H62        12.3164  -22.0185  -46.7768 H         1 UNK         0.0903 
     63 H63        12.9320  -22.2778  -45.1435 H         1 UNK         0.0903 
     64 H64        13.6658  -21.0502  -46.1771 H         1 UNK         0.0903 
     65 H65        14.2369  -24.0896  -44.9751 H         1 UNK         0.3096 
     66 H66        15.3412  -25.4155  -47.2971 H         1 UNK         0.1121 
     67 H67        15.9301  -26.1051  -44.3675 H         1 UNK         0.0849 
     68 H68        14.4125  -26.5250  -45.1166 H         1 UNK         0.0849 
     69 H69        14.9830  -28.8046  -44.1836 H         1 UNK         0.0865 
     70 H70        15.7573  -30.0168  -45.1623 H         1 UNK         0.0865 
     71 H71        18.0565  -30.7095  -44.7617 H         1 UNK         0.1346 
     72 H72        20.0172  -29.2839  -41.2259 H         1 UNK         0.1412 
     73 H73        16.3618  -27.4668  -42.5216 H         1 UNK         0.1426 
     74 H74        18.3229  -27.8238  -39.6651 H         1 UNK         0.0716 
     75 H75        17.4164  -26.6325  -40.5664 H         1 UNK         0.0716 
     76 H76        18.4253  -25.1831  -42.4083 H         1 UNK         0.0695 
     77 H77        19.9090  -24.3089  -42.1529 H         1 UNK         0.0695 
     78 H78        19.6549  -26.9641  -43.6571 H         1 UNK         0.0983 
     79 H79        19.1958  -24.3986  -44.6179 H         1 UNK         0.3095 
     80 H80        19.5063  -23.7343  -46.8718 H         1 UNK         0.0454 
     81 H81        19.7065  -26.0996  -48.8172 H         1 UNK         0.0851 
     82 H82        19.4611  -24.4099  -49.2556 H         1 UNK         0.0851 
     83 H83        20.9699  -24.9158  -48.5137 H         1 UNK         0.0851 
     84 H84        17.5462  -25.7532  -47.7461 H         1 UNK         0.2976 
     85 H85        21.3392  -28.1266  -43.0103 H         1 UNK         0.3116 
     86 H86        23.9825  -27.0026  -42.4696 H         1 UNK         0.0646 
     87 H87        25.1216  -28.5145  -44.0809 H         1 UNK         0.0847 
     88 H88        24.0669  -27.4146  -44.9511 H         1 UNK         0.0847 
     89 H89        23.5741  -29.0870  -44.6923 H         1 UNK         0.0847 
     90 H90        22.3372  -27.7839  -40.5935 H         1 UNK         0.3040 
     91 H91        22.0222  -30.5215  -40.0510 H         1 UNK         0.1015 
     92 H92        20.7048  -28.7647  -38.9070 H         1 UNK         0.0786 
     93 H93        22.1494  -28.1657  -38.0945 H         1 UNK         0.0786 
     94 H94        21.5209  -29.7650  -37.7201 H         1 UNK         0.0786 
     95 H95        24.7231  -28.3849  -39.2041 H         1 UNK         0.3172 
     96 H96        26.1540  -30.2004  -37.5395 H         1 UNK         0.0595 
     97 H97        26.5969  -27.7562  -37.5755 H         1 UNK         0.0839 
     98 H98        27.1641  -27.8571  -39.2438 H         1 UNK         0.0839 
     99 H99        28.0634  -28.6417  -37.9538 H         1 UNK         0.0839 
    100 H100       25.7739  -30.1584  -41.0199 H         1 UNK         0.2998 
    101 H101       28.1972  -31.7948  -41.4969 H         1 UNK         0.0822 
    102 H102       27.6636  -29.8801  -43.0356 H         1 UNK         0.0787 
    103 H103       27.6669  -31.4272  -43.8671 H         1 UNK         0.0787 
    104 H104       26.1401  -30.6619  -43.4627 H         1 UNK         0.0787 
    105 H105       24.7296  -32.2102  -40.9993 H         1 UNK         0.3055 
    106 H106       24.9476  -35.0816  -41.4643 H         1 UNK         0.1106 
    107 H107       23.2820  -33.3639  -43.3845 H         1 UNK         0.0828 
    108 H108       24.6169  -34.4334  -43.7967 H         1 UNK         0.0828 
    109 H109       23.1066  -35.1065  -43.2143 H         1 UNK         0.0828 
    110 H110       22.2825  -32.6831  -41.4653 H         1 UNK         0.2931 
    111 H111       20.5430  -34.5571  -40.3769 H         1 UNK         0.0412 
    112 H112       21.7012  -32.9126  -36.8904 H         1 UNK         0.3472 
    113 H113       22.6221  -32.6067  -38.3447 H         1 UNK         0.3472 
    114 H114       19.9950  -31.5686  -40.5557 H         1 UNK         0.0970 
    115 H115       18.8077  -32.8295  -40.4396 H         1 UNK         0.0970 
    116 H116       21.1702  -30.8528  -42.7030 H         1 UNK         0.0612 
    117 H117       20.5039  -31.2115  -44.2740 H         1 UNK         0.0612 
@<TRIPOS>BOND
     1    1    2 1    
     2    1   62 1    
     3    1   63 1    
     4    1   64 1    
     5    2    3 2    
     6    2    4 am   BACKBONE|DICT|INTERRES
     7    4    5 1    
     8    4   65 1    
     9    5    6 1    
    10    5   25 1    
    11    5   66 1    
    12    6    7 1    
    13    6   67 1    
    14    6   68 1    
    15    7    8 1    
    16    8    9 1    
    17    8   69 1    
    18    8   70 1    
    19    9   10 ar   
    20    9   14 ar   
    21   10   11 ar   
    22   10   71 1    
    23   11   12 ar   
    24   11   61 1    
    25   12   13 ar   
    26   12   72 1    
    27   13   14 ar   
    28   13   15 1    
    29   14   73 1    
    30   15   16 1    
    31   15   74 1    
    32   15   75 1    
    33   16   17 1    
    34   17   18 1    
    35   17   76 1    
    36   17   77 1    
    37   18   19 1    
    38   18   27 1    
    39   18   78 1    
    40   19   20 am   BACKBONE|DICT|INTERRES
    41   19   79 1    
    42   20   21 2    
    43   20   22 1    
    44   22   23 1    
    45   22   24 1    
    46   22   80 1    
    47   23   81 1    
    48   23   82 1    
    49   23   83 1    
    50   24   25 am   BACKBONE|DICT|INTERRES
    51   24   84 1    
    52   25   26 2    
    53   27   28 2    
    54   27   29 am   BACKBONE|DICT|INTERRES
    55   29   30 1    
    56   29   85 1    
    57   30   31 1    
    58   30   32 1    
    59   30   86 1    
    60   31   87 1    
    61   31   88 1    
    62   31   89 1    
    63   32   33 2    
    64   32   34 am   BACKBONE|DICT|INTERRES
    65   34   35 1    
    66   34   90 1    
    67   35   36 1    
    68   35   37 1    
    69   35   91 1    
    70   36   92 1    
    71   36   93 1    
    72   36   94 1    
    73   37   38 2    
    74   37   39 am   BACKBONE|DICT|INTERRES
    75   39   40 1    
    76   39   95 1    
    77   40   41 1    
    78   40   42 1    
    79   40   96 1    
    80   41   97 1    
    81   41   98 1    
    82   41   99 1    
    83   42   43 2    
    84   42   44 am   BACKBONE|DICT|INTERRES
    85   44   45 1    
    86   44  100 1    
    87   45   46 1    
    88   45   47 1    
    89   45  101 1    
    90   46  102 1    
    91   46  103 1    
    92   46  104 1    
    93   47   48 2    
    94   47   49 am   BACKBONE|DICT|INTERRES
    95   49   50 1    
    96   49  105 1    
    97   50   51 1    
    98   50   52 1    
    99   50  106 1    
   100   51  107 1    
   101   51  108 1    
   102   51  109 1    
   103   52   53 2    
   104   52   54 am   BACKBONE|DICT|INTERRES
   105   54   55 1    
   106   54  110 1    
   107   55   56 1    
   108   55   59 1    
   109   55  111 1    
   110   56   57 am   BACKBONE|DICT|INTERRES
   111   56   58 2    
   112   57  112 1    
   113   57  113 1    
   114   59   60 1    
   115   59  114 1    
   116   59  115 1    
   117   60   61 1    
   118   61  116 1    
   119   61  117 1    
@<TRIPOS>SUBSTRUCTURE
     1 UNK         1 GROUP             0       ****    0 ROOT    
