@<TRIPOS>MOLECULE
3R8
117   119    1
SMALL
USER_CHARGES


@<TRIPOS>ATOM
      1 CA         17.2541  -22.0739  -45.3725 C.3       0 UNK        -0.2013 
      2 C          17.7038  -23.4692  -45.7799 C.2       0 UNK         0.4866 
      3 O          18.5122  -23.6066  -46.6990 O.2       0 UNK        -0.5176 
      4 N          17.1811  -24.5033  -45.1080 N.am      1 UNK        -0.4884 
      5 CA         17.5655  -25.9060  -45.3033 C.3       1 UNK         0.0853 
      6 C6         16.4036  -26.8654  -44.9265 C.3       10 UNK        -0.0849 
      7 S7         16.4414  -28.4180  -45.8912 S.3       10 UNK        -0.2776 
      8 C8         15.6338  -29.5973  -44.7625 C.3       10 UNK         0.0316 
      9 C9         16.5961  -30.1461  -43.7178 C.ar      10 UNK        -0.0863 
     10 C10        17.3767  -31.2709  -44.0022 C.ar      10 UNK        -0.1009 
     11 C11        18.2415  -31.8017  -43.0381 C.ar      10 UNK        -0.0712 
     12 C12        18.3102  -31.1951  -41.7806 C.ar      10 UNK        -0.0894 
     13 C13        17.5352  -30.0724  -41.4743 C.ar      10 UNK        -0.0745 
     14 C14        16.6739  -29.5583  -42.4526 C.ar      10 UNK        -0.0972 
     15 C15        17.6054  -29.5019  -40.0559 C.3       10 UNK         0.0209 
     16 S16        16.9584  -27.8021  -39.8521 S.3       10 UNK        -0.2568 
     17 C17        18.3702  -26.6383  -39.9218 C.3       10 UNK        -0.0983 
     18 CA         19.7401  -27.1305  -40.4543 C.3       3 UNK         0.0876 
     19 N          19.6689  -27.5733  -41.8528 N.am      3 UNK        -0.4424 
     20 C          20.7138  -27.9835  -42.5860 C.2       2 UNK         0.4918 
     21 O          21.8122  -28.2400  -42.0961 O.2       2 UNK        -0.4875 
     22 CA         20.5677  -28.0350  -44.1176 C.3       2 UNK         0.0481 
     23 CB         20.7737  -29.4625  -44.6321 C.3       2 UNK        -0.1831 
     24 N          19.3177  -27.4952  -44.6643 N.am      2 UNK        -0.4498 
     25 C          18.8770  -26.2347  -44.5525 C.2       1 UNK         0.5027 
     26 O          19.4463  -25.3776  -43.8685 O.2       1 UNK        -0.4969 
     27 C          20.7895  -26.0083  -40.2621 C.2       3 UNK         0.5005 
     28 O          21.5008  -26.0122  -39.2568 O.2       3 UNK        -0.5279 
     29 N          20.9211  -25.1144  -41.2575 N.am      4 UNK        -0.4463 
     30 CA         21.9447  -24.0644  -41.3175 C.3       4 UNK         0.0283 
     31 CB         21.6183  -23.1136  -42.4803 C.3       4 UNK        -0.1875 
     32 C          23.3843  -24.6016  -41.4540 C.2       4 UNK         0.4949 
     33 O          24.3260  -23.8875  -41.1113 O.2       4 UNK        -0.5039 
     34 N          23.5292  -25.8460  -41.9280 N.am      5 UNK        -0.4663 
     35 CA         24.7878  -26.5857  -42.0363 C.3       5 UNK         0.0242 
     36 CB         24.8545  -27.2400  -43.4295 C.3       5 UNK        -0.1982 
     37 C          24.9270  -27.6340  -40.9140 C.2       5 UNK         0.5017 
     38 O          25.7270  -28.5581  -41.0560 O.2       5 UNK        -0.5012 
     39 N          24.1438  -27.4913  -39.8319 N.am      6 UNK        -0.4439 
     40 CA         24.0817  -28.3687  -38.6562 C.3       6 UNK         0.0297 
     41 CB         25.4208  -28.3680  -37.8871 C.3       6 UNK        -0.2006 
     42 C          23.5658  -29.7873  -38.9740 C.2       6 UNK         0.4892 
     43 O          24.0292  -30.7564  -38.3706 O.2       6 UNK        -0.5089 
     44 N          22.5991  -29.8717  -39.9010 N.am      7 UNK        -0.4243 
     45 CA         21.8967  -31.0768  -40.3594 C.3       7 UNK         0.0196 
     46 CB         21.1272  -31.7532  -39.2028 C.3       7 UNK        -0.2007 
     47 C          22.7951  -32.0548  -41.1379 C.2       7 UNK         0.5020 
     48 O          22.5413  -33.2605  -41.1287 O.2       7 UNK        -0.5147 
     49 N          23.8150  -31.5270  -41.8282 N.am      8 UNK        -0.4734 
     50 CA         24.8032  -32.2799  -42.6094 C.3       8 UNK         0.0238 
     51 CB         26.0663  -31.4134  -42.7711 C.3       8 UNK        -0.1912 
     52 C          24.2652  -32.8013  -43.9608 C.2       8 UNK         0.5038 
     53 O          24.9089  -32.6062  -44.9942 O.2       8 UNK        -0.5046 
     54 N          23.1008  -33.4585  -43.9345 N.am      9 UNK        -0.4200 
     55 CA         22.5140  -34.1796  -45.0722 C.3       9 UNK         0.0839 
     56 C          23.2747  -35.5002  -45.3685 C.2       9 UNK         0.5513 
     57 N          23.3248  -35.9157  -46.6265 N.am      9 UNK        -0.7519 
     58 O          23.7823  -36.1690  -44.4699 O.2       9 UNK        -0.4960 
     59 C59        21.0015  -34.4491  -44.8636 C.3       10 UNK        -0.0876 
     60 S60        20.0356  -32.9033  -44.8722 S.3       10 UNK        -0.2414 
     61 C61        19.0757  -33.0473  -43.3290 C.3       10 UNK         0.0169 
     62 H62        18.1090  -21.4900  -45.0324 H         1 UNK         0.0903 
     63 H63        16.8066  -21.5602  -46.2229 H         1 UNK         0.0903 
     64 H64        16.5198  -22.0998  -44.5675 H         1 UNK         0.0903 
     65 H65        16.5491  -24.3232  -44.3408 H         1 UNK         0.3096 
     66 H66        17.7799  -26.0360  -46.3670 H         1 UNK         0.1121 
     67 H67        16.3896  -27.0698  -43.8553 H         1 UNK         0.0849 
     68 H68        15.4435  -26.3953  -45.1469 H         1 UNK         0.0849 
     69 H69        15.2307  -30.4223  -45.3521 H         1 UNK         0.0865 
     70 H70        14.7735  -29.1241  -44.2862 H         1 UNK         0.0865 
     71 H71        17.3087  -31.7384  -44.9751 H         1 UNK         0.1346 
     72 H72        18.9504  -31.6183  -41.0218 H         1 UNK         0.1412 
     73 H73        16.0369  -28.7152  -42.2288 H         1 UNK         0.1426 
     74 H74        18.6158  -29.5777  -39.6579 H         1 UNK         0.0716 
     75 H75        16.9982  -30.1506  -39.4234 H         1 UNK         0.0716 
     76 H76        18.4911  -26.2660  -38.9021 H         1 UNK         0.0695 
     77 H77        18.0367  -25.7773  -40.5049 H         1 UNK         0.0695 
     78 H78        20.0840  -27.9708  -39.8510 H         1 UNK         0.0983 
     79 H79        18.7932  -27.4111  -42.3256 H         1 UNK         0.3095 
     80 H80        21.3775  -27.4215  -44.5172 H         1 UNK         0.0454 
     81 H81        20.8225  -29.4951  -45.7203 H         1 UNK         0.0851 
     82 H82        19.9570  -30.1044  -44.3136 H         1 UNK         0.0851 
     83 H83        21.6999  -29.8983  -44.2537 H         1 UNK         0.0851 
     84 H84        18.7478  -28.1421  -45.1954 H         1 UNK         0.2976 
     85 H85        20.3160  -25.1964  -42.0709 H         1 UNK         0.3116 
     86 H86        21.8955  -23.4965  -40.3861 H         1 UNK         0.0646 
     87 H87        22.3366  -22.2941  -42.5295 H         1 UNK         0.0847 
     88 H88        20.6291  -22.6701  -42.3664 H         1 UNK         0.0847 
     89 H89        21.6446  -23.6286  -43.4416 H         1 UNK         0.0847 
     90 H90        22.6976  -26.3840  -42.1400 H         1 UNK         0.3040 
     91 H91        25.6352  -25.9037  -41.9396 H         1 UNK         0.1015 
     92 H92        24.7386  -26.4996  -44.2209 H         1 UNK         0.0786 
     93 H93        24.0788  -27.9952  -43.5606 H         1 UNK         0.0786 
     94 H94        25.8158  -27.7306  -43.5876 H         1 UNK         0.0786 
     95 H95        23.4896  -26.7167  -39.8212 H         1 UNK         0.3172 
     96 H96        23.3328  -27.9250  -37.9986 H         1 UNK         0.0595 
     97 H97        26.2128  -28.8640  -38.4490 H         1 UNK         0.0839 
     98 H98        25.3243  -28.8918  -36.9353 H         1 UNK         0.0839 
     99 H99        25.7510  -27.3535  -37.6642 H         1 UNK         0.0839 
    100 H100       22.3597  -29.0278  -40.4129 H         1 UNK         0.2998 
    101 H101       21.1592  -30.7289  -41.0829 H         1 UNK         0.0822 
    102 H102       21.8023  -32.1698  -38.4551 H         1 UNK         0.0787 
    103 H103       20.4648  -31.0489  -38.7001 H         1 UNK         0.0787 
    104 H104       20.5114  -32.5770  -39.5649 H         1 UNK         0.0787 
    105 H105       23.9464  -30.5255  -41.7866 H         1 UNK         0.3055 
    106 H106       25.0866  -33.1641  -42.0335 H         1 UNK         0.1106 
    107 H107       26.8524  -31.9542  -43.3000 H         1 UNK         0.0828 
    108 H108       25.8602  -30.5010  -43.3323 H         1 UNK         0.0828 
    109 H109       26.4746  -31.1246  -41.8023 H         1 UNK         0.0828 
    110 H110       22.6603  -33.5926  -43.0301 H         1 UNK         0.2931 
    111 H111       22.6191  -33.5408  -45.9522 H         1 UNK         0.0412 
    112 H112       22.9046  -35.3788  -47.3699 H         1 UNK         0.3472 
    113 H113       23.8011  -36.7786  -46.8401 H         1 UNK         0.3472 
    114 H114       20.6074  -35.0781  -45.6643 H         1 UNK         0.0970 
    115 H115       20.8329  -34.9995  -43.9360 H         1 UNK         0.0970 
    116 H116       18.4116  -33.9122  -43.3968 H         1 UNK         0.0612 
    117 H117       19.7687  -33.2439  -42.5066 H         1 UNK         0.0612 
@<TRIPOS>BOND
     1    1    2 1    
     2    1   62 1    
     3    1   63 1    
     4    1   64 1    
     5    2    3 2    
     6    2    4 am   BACKBONE|DICT|INTERRES
     7    4    5 1    
     8    4   65 1    
     9    5    6 1    
    10    5   25 1    
    11    5   66 1    
    12    6    7 1    
    13    6   67 1    
    14    6   68 1    
    15    7    8 1    
    16    8    9 1    
    17    8   69 1    
    18    8   70 1    
    19    9   10 ar   
    20    9   14 ar   
    21   10   11 ar   
    22   10   71 1    
    23   11   12 ar   
    24   11   61 1    
    25   12   13 ar   
    26   12   72 1    
    27   13   14 ar   
    28   13   15 1    
    29   14   73 1    
    30   15   16 1    
    31   15   74 1    
    32   15   75 1    
    33   16   17 1    
    34   17   18 1    
    35   17   76 1    
    36   17   77 1    
    37   18   19 1    
    38   18   27 1    
    39   18   78 1    
    40   19   20 am   BACKBONE|DICT|INTERRES
    41   19   79 1    
    42   20   21 2    
    43   20   22 1    
    44   22   23 1    
    45   22   24 1    
    46   22   80 1    
    47   23   81 1    
    48   23   82 1    
    49   23   83 1    
    50   24   25 am   BACKBONE|DICT|INTERRES
    51   24   84 1    
    52   25   26 2    
    53   27   28 2    
    54   27   29 am   BACKBONE|DICT|INTERRES
    55   29   30 1    
    56   29   85 1    
    57   30   31 1    
    58   30   32 1    
    59   30   86 1    
    60   31   87 1    
    61   31   88 1    
    62   31   89 1    
    63   32   33 2    
    64   32   34 am   BACKBONE|DICT|INTERRES
    65   34   35 1    
    66   34   90 1    
    67   35   36 1    
    68   35   37 1    
    69   35   91 1    
    70   36   92 1    
    71   36   93 1    
    72   36   94 1    
    73   37   38 2    
    74   37   39 am   BACKBONE|DICT|INTERRES
    75   39   40 1    
    76   39   95 1    
    77   40   41 1    
    78   40   42 1    
    79   40   96 1    
    80   41   97 1    
    81   41   98 1    
    82   41   99 1    
    83   42   43 2    
    84   42   44 am   BACKBONE|DICT|INTERRES
    85   44   45 1    
    86   44  100 1    
    87   45   46 1    
    88   45   47 1    
    89   45  101 1    
    90   46  102 1    
    91   46  103 1    
    92   46  104 1    
    93   47   48 2    
    94   47   49 am   BACKBONE|DICT|INTERRES
    95   49   50 1    
    96   49  105 1    
    97   50   51 1    
    98   50   52 1    
    99   50  106 1    
   100   51  107 1    
   101   51  108 1    
   102   51  109 1    
   103   52   53 2    
   104   52   54 am   BACKBONE|DICT|INTERRES
   105   54   55 1    
   106   54  110 1    
   107   55   56 1    
   108   55   59 1    
   109   55  111 1    
   110   56   57 am   BACKBONE|DICT|INTERRES
   111   56   58 2    
   112   57  112 1    
   113   57  113 1    
   114   59   60 1    
   115   59  114 1    
   116   59  115 1    
   117   60   61 1    
   118   61  116 1    
   119   61  117 1    
@<TRIPOS>SUBSTRUCTURE
     1 UNK         1 GROUP             0       ****    0 ROOT    
