@<TRIPOS>MOLECULE
3R8
117   119    1
SMALL
USER_CHARGES


@<TRIPOS>ATOM
      1 CA         15.9015  -23.3272  -43.2426 C.3       0 UNK        -0.2013 
      2 C          16.5749  -24.6812  -43.4061 C.2       0 UNK         0.4866 
      3 O          17.3226  -24.8824  -44.3640 O.2       0 UNK        -0.5176 
      4 N          16.3238  -25.6117  -42.4761 N.am      1 UNK        -0.4884 
      5 CA         16.8823  -26.9690  -42.4569 C.3       1 UNK         0.0853 
      6 C6         15.9804  -27.9474  -41.6543 C.3       10 UNK        -0.0849 
      7 S7         14.6643  -28.6243  -42.7175 S.3       10 UNK        -0.2776 
      8 C8         15.3901  -30.2323  -43.1909 C.3       10 UNK         0.0316 
      9 C9         16.7551  -30.0839  -43.8559 C.ar      10 UNK        -0.0863 
     10 C10        17.9233  -30.4077  -43.1559 C.ar      10 UNK        -0.1009 
     11 C11        19.1751  -30.2731  -43.7638 C.ar      10 UNK        -0.0712 
     12 C12        19.2521  -29.8242  -45.0832 C.ar      10 UNK        -0.0894 
     13 C13        18.0968  -29.4715  -45.7875 C.ar      10 UNK        -0.0745 
     14 C14        16.8500  -29.6117  -45.1689 C.ar      10 UNK        -0.0972 
     15 C15        18.1858  -28.9616  -47.2209 C.3       10 UNK         0.0209 
     16 S16        18.8938  -27.2819  -47.3240 S.3       10 UNK        -0.2568 
     17 C17        20.6839  -27.6389  -47.4046 C.3       10 UNK        -0.0983 
     18 CA         21.5389  -26.8899  -46.3445 C.3       3 UNK         0.0876 
     19 N          20.9808  -26.9409  -44.9900 N.am      3 UNK        -0.4424 
     20 C          21.3365  -26.1167  -43.9943 C.2       2 UNK         0.4918 
     21 O          22.1151  -25.1721  -44.1391 O.2       2 UNK        -0.4875 
     22 CA         20.6743  -26.3682  -42.6321 C.3       2 UNK         0.0481 
     23 CB         21.0865  -25.3456  -41.5534 C.3       2 UNK        -0.1831 
     24 N          19.2269  -26.3890  -42.8042 N.am      2 UNK        -0.4498 
     25 C          18.3499  -26.9707  -41.9815 C.2       1 UNK         0.5027 
     26 O          18.6591  -27.4872  -40.9069 O.2       1 UNK        -0.4969 
     27 C          22.9812  -27.4358  -46.3120 C.2       3 UNK         0.5005 
     28 O          23.1621  -28.6555  -46.2734 O.2       3 UNK        -0.5279 
     29 N          23.9711  -26.5317  -46.2764 N.am      4 UNK        -0.4463 
     30 CA         25.4216  -26.7592  -46.1714 C.3       4 UNK         0.0283 
     31 CB         25.9638  -27.5820  -47.3572 C.3       4 UNK        -0.1875 
     32 C          25.8710  -27.3532  -44.8225 C.2       4 UNK         0.4949 
     33 O          26.7630  -26.7913  -44.1862 O.2       4 UNK        -0.5039 
     34 N          25.2498  -28.4609  -44.4028 N.am      5 UNK        -0.4663 
     35 CA         25.4214  -29.0731  -43.0860 C.3       5 UNK         0.0242 
     36 CB         24.8639  -30.5052  -43.1217 C.3       5 UNK        -0.1982 
     37 C          24.6923  -28.2438  -42.0198 C.2       5 UNK         0.5017 
     38 O          23.5659  -27.8075  -42.2625 O.2       5 UNK        -0.5012 
     39 N          25.3148  -28.0717  -40.8472 N.am      6 UNK        -0.4439 
     40 CA         24.8033  -27.2763  -39.7245 C.3       6 UNK         0.0297 
     41 CB         25.9850  -26.8776  -38.8201 C.3       6 UNK        -0.2006 
     42 C          23.6799  -27.9945  -38.9480 C.2       6 UNK         0.4892 
     43 O          23.8354  -28.2752  -37.7586 O.2       6 UNK        -0.5089 
     44 N          22.5808  -28.2986  -39.6536 N.am      7 UNK        -0.4243 
     45 CA         21.3694  -28.9907  -39.1884 C.3       7 UNK         0.0196 
     46 CB         20.6215  -28.1391  -38.1411 C.3       7 UNK        -0.2007 
     47 C          21.6190  -30.4365  -38.7065 C.2       7 UNK         0.5020 
     48 O          20.8356  -30.9650  -37.9173 O.2       7 UNK        -0.5147 
     49 N          22.6997  -31.0603  -39.1951 N.am      8 UNK        -0.4734 
     50 CA         23.1452  -32.4039  -38.8074 C.3       8 UNK         0.0238 
     51 CB         24.6638  -32.4982  -39.0376 C.3       8 UNK        -0.1912 
     52 C          22.4139  -33.5435  -39.5431 C.2       8 UNK         0.5038 
     53 O          22.6483  -34.7086  -39.2185 O.2       8 UNK        -0.5046 
     54 N          21.5826  -33.1964  -40.5333 N.am      9 UNK        -0.4200 
     55 CA         20.8223  -34.1121  -41.3963 C.3       9 UNK         0.0839 
     56 C          19.8550  -35.0389  -40.6101 C.2       9 UNK         0.5513 
     57 N          19.7308  -36.2947  -41.0172 N.am      9 UNK        -0.7519 
     58 O          19.1833  -34.6156  -39.6718 O.2       9 UNK        -0.4960 
     59 C59        20.0476  -33.3406  -42.4967 C.3       10 UNK        -0.0876 
     60 S60        21.1175  -32.2226  -43.4676 S.3       10 UNK        -0.2414 
     61 C61        20.4539  -30.5934  -43.0041 C.3       10 UNK         0.0169 
     62 H62        15.2671  -23.2904  -42.3572 H         1 UNK         0.0903 
     63 H63        16.6531  -22.5431  -43.1547 H         1 UNK         0.0903 
     64 H64        15.2823  -23.1097  -44.1125 H         1 UNK         0.0903 
     65 H65        15.7162  -25.3817  -41.7024 H         1 UNK         0.3096 
     66 H66        16.9264  -27.3218  -43.4895 H         1 UNK         0.1121 
     67 H67        16.5388  -28.7895  -41.2425 H         1 UNK         0.0849 
     68 H68        15.5318  -27.4522  -40.7918 H         1 UNK         0.0849 
     69 H69        14.7084  -30.7410  -43.8741 H         1 UNK         0.0865 
     70 H70        15.4600  -30.8681  -42.3067 H         1 UNK         0.0865 
     71 H71        17.8586  -30.7561  -42.1344 H         1 UNK         0.1346 
     72 H72        20.2218  -29.7551  -45.5528 H         1 UNK         0.1412 
     73 H73        15.9482  -29.3488  -45.7055 H         1 UNK         0.1426 
     74 H74        18.7659  -29.6573  -47.8286 H         1 UNK         0.0716 
     75 H75        17.1921  -28.9351  -47.6705 H         1 UNK         0.0716 
     76 H76        20.8360  -28.7166  -47.3539 H         1 UNK         0.0695 
     77 H77        21.0243  -27.3575  -48.4027 H         1 UNK         0.0695 
     78 H78        21.5710  -25.8410  -46.6487 H         1 UNK         0.0983 
     79 H79        20.3139  -27.6761  -44.8082 H         1 UNK         0.3095 
     80 H80        20.9908  -27.3600  -42.3057 H         1 UNK         0.0454 
     81 H81        20.7655  -24.3366  -41.8138 H         1 UNK         0.0851 
     82 H82        20.6609  -25.5939  -40.5815 H         1 UNK         0.0851 
     83 H83        22.1703  -25.3257  -41.4322 H         1 UNK         0.0851 
     84 H84        18.8611  -25.9290  -43.6349 H         1 UNK         0.2976 
     85 H85        23.6972  -25.5592  -46.2203 H         1 UNK         0.3116 
     86 H86        25.8732  -25.7679  -46.2379 H         1 UNK         0.0646 
     87 H87        27.0514  -27.6523  -47.3138 H         1 UNK         0.0847 
     88 H88        25.7074  -27.1202  -48.3105 H         1 UNK         0.0847 
     89 H89        25.5767  -28.6012  -47.3638 H         1 UNK         0.0847 
     90 H90        24.4836  -28.8032  -44.9790 H         1 UNK         0.3040 
     91 H91        26.4878  -29.1116  -42.8524 H         1 UNK         0.1015 
     92 H92        25.3797  -31.1127  -43.8655 H         1 UNK         0.0786 
     93 H93        23.7997  -30.5176  -43.3618 H         1 UNK         0.0786 
     94 H94        24.9879  -30.9996  -42.1579 H         1 UNK         0.0786 
     95 H95        26.2214  -28.4972  -40.7136 H         1 UNK         0.3172 
     96 H96        24.3734  -26.3549  -40.1239 H         1 UNK         0.0595 
     97 H97        25.6496  -26.2503  -37.9930 H         1 UNK         0.0839 
     98 H98        26.7331  -26.3074  -39.3713 H         1 UNK         0.0839 
     99 H99        26.4773  -27.7498  -38.3881 H         1 UNK         0.0839 
    100 H100       22.6059  -28.0563  -40.6416 H         1 UNK         0.2998 
    101 H101       20.7195  -29.0737  -40.0598 H         1 UNK         0.0822 
    102 H102       19.6487  -28.5730  -37.9071 H         1 UNK         0.0787 
    103 H103       21.1782  -28.0619  -37.2067 H         1 UNK         0.0787 
    104 H104       20.4389  -27.1300  -38.5104 H         1 UNK         0.0787 
    105 H105       23.2941  -30.5499  -39.8313 H         1 UNK         0.3055 
    106 H106       22.9539  -32.5414  -37.7405 H         1 UNK         0.1106 
    107 H107       25.0524  -33.4586  -38.6957 H         1 UNK         0.0828 
    108 H108       24.9204  -32.4025  -40.0929 H         1 UNK         0.0828 
    109 H109       25.1983  -31.7229  -38.4880 H         1 UNK         0.0828 
    110 H110       21.4613  -32.2142  -40.7190 H         1 UNK         0.2931 
    111 H111       21.5619  -34.7441  -41.8922 H         1 UNK         0.0412 
    112 H112       19.0945  -36.9076  -40.5309 H         1 UNK         0.3472 
    113 H113       20.2698  -36.6472  -41.7934 H         1 UNK         0.3472 
    114 H114       19.2242  -32.7765  -42.0566 H         1 UNK         0.0970 
    115 H115       19.5864  -34.0423  -43.1942 H         1 UNK         0.0970 
    116 H116       20.2862  -30.5521  -41.9275 H         1 UNK         0.0612 
    117 H117       21.2064  -29.8340  -43.2238 H         1 UNK         0.0612 
@<TRIPOS>BOND
     1    1    2 1    
     2    1   62 1    
     3    1   63 1    
     4    1   64 1    
     5    2    3 2    
     6    2    4 am   BACKBONE|DICT|INTERRES
     7    4    5 1    
     8    4   65 1    
     9    5    6 1    
    10    5   25 1    
    11    5   66 1    
    12    6    7 1    
    13    6   67 1    
    14    6   68 1    
    15    7    8 1    
    16    8    9 1    
    17    8   69 1    
    18    8   70 1    
    19    9   10 ar   
    20    9   14 ar   
    21   10   11 ar   
    22   10   71 1    
    23   11   12 ar   
    24   11   61 1    
    25   12   13 ar   
    26   12   72 1    
    27   13   14 ar   
    28   13   15 1    
    29   14   73 1    
    30   15   16 1    
    31   15   74 1    
    32   15   75 1    
    33   16   17 1    
    34   17   18 1    
    35   17   76 1    
    36   17   77 1    
    37   18   19 1    
    38   18   27 1    
    39   18   78 1    
    40   19   20 am   BACKBONE|DICT|INTERRES
    41   19   79 1    
    42   20   21 2    
    43   20   22 1    
    44   22   23 1    
    45   22   24 1    
    46   22   80 1    
    47   23   81 1    
    48   23   82 1    
    49   23   83 1    
    50   24   25 am   BACKBONE|DICT|INTERRES
    51   24   84 1    
    52   25   26 2    
    53   27   28 2    
    54   27   29 am   BACKBONE|DICT|INTERRES
    55   29   30 1    
    56   29   85 1    
    57   30   31 1    
    58   30   32 1    
    59   30   86 1    
    60   31   87 1    
    61   31   88 1    
    62   31   89 1    
    63   32   33 2    
    64   32   34 am   BACKBONE|DICT|INTERRES
    65   34   35 1    
    66   34   90 1    
    67   35   36 1    
    68   35   37 1    
    69   35   91 1    
    70   36   92 1    
    71   36   93 1    
    72   36   94 1    
    73   37   38 2    
    74   37   39 am   BACKBONE|DICT|INTERRES
    75   39   40 1    
    76   39   95 1    
    77   40   41 1    
    78   40   42 1    
    79   40   96 1    
    80   41   97 1    
    81   41   98 1    
    82   41   99 1    
    83   42   43 2    
    84   42   44 am   BACKBONE|DICT|INTERRES
    85   44   45 1    
    86   44  100 1    
    87   45   46 1    
    88   45   47 1    
    89   45  101 1    
    90   46  102 1    
    91   46  103 1    
    92   46  104 1    
    93   47   48 2    
    94   47   49 am   BACKBONE|DICT|INTERRES
    95   49   50 1    
    96   49  105 1    
    97   50   51 1    
    98   50   52 1    
    99   50  106 1    
   100   51  107 1    
   101   51  108 1    
   102   51  109 1    
   103   52   53 2    
   104   52   54 am   BACKBONE|DICT|INTERRES
   105   54   55 1    
   106   54  110 1    
   107   55   56 1    
   108   55   59 1    
   109   55  111 1    
   110   56   57 am   BACKBONE|DICT|INTERRES
   111   56   58 2    
   112   57  112 1    
   113   57  113 1    
   114   59   60 1    
   115   59  114 1    
   116   59  115 1    
   117   60   61 1    
   118   61  116 1    
   119   61  117 1    
@<TRIPOS>SUBSTRUCTURE
     1 UNK         1 GROUP             0       ****    0 ROOT    
