@<TRIPOS>MOLECULE
3R8
117   119    1
SMALL
USER_CHARGES


@<TRIPOS>ATOM
      1 CA         14.9841  -25.4804  -49.6107 C.3       0 UNK        -0.2013 
      2 C          15.8829  -26.5816  -49.0679 C.2       0 UNK         0.4866 
      3 O          16.6622  -27.1638  -49.8232 O.2       0 UNK        -0.5176 
      4 N          15.7759  -26.8776  -47.7663 N.am      1 UNK        -0.4884 
      5 CA         16.6125  -27.8558  -47.0639 C.3       1 UNK         0.0853 
      6 C6         15.9664  -28.2755  -45.7197 C.3       10 UNK        -0.0849 
      7 S7         16.5377  -29.9121  -45.1514 S.3       10 UNK        -0.2776 
      8 C8         15.6943  -30.0383  -43.5431 C.3       10 UNK         0.0316 
      9 C9         16.5284  -29.4424  -42.4178 C.ar      10 UNK        -0.0863 
     10 C10        17.3992  -30.2584  -41.6907 C.ar      10 UNK        -0.1009 
     11 C11        18.1611  -29.7348  -40.6413 C.ar      10 UNK        -0.0712 
     12 C12        18.0347  -28.3816  -40.3140 C.ar      10 UNK        -0.0894 
     13 C13        17.1616  -27.5548  -41.0289 C.ar      10 UNK        -0.0745 
     14 C14        16.4116  -28.0910  -42.0804 C.ar      10 UNK        -0.0972 
     15 C15        17.0102  -26.0872  -40.6513 C.3       10 UNK         0.0209 
     16 S16        18.5586  -25.1514  -40.8557 S.3       10 UNK        -0.2568 
     17 C17        18.8735  -25.3239  -42.6455 C.3       10 UNK        -0.0983 
     18 CA         19.9458  -26.3952  -42.9667 C.3       3 UNK         0.0876 
     19 N          19.9508  -26.7147  -44.3926 N.am      3 UNK        -0.4424 
     20 C          20.6067  -27.7347  -44.9560 C.2       2 UNK         0.4918 
     21 O          21.2887  -28.5417  -44.3241 O.2       2 UNK        -0.4875 
     22 CA         20.4243  -27.9009  -46.4774 C.3       2 UNK         0.0481 
     23 CB         21.3200  -29.0090  -47.0613 C.3       2 UNK        -0.1831 
     24 N          19.0284  -28.1978  -46.8061 N.am      2 UNK        -0.4498 
     25 C          18.0349  -27.3007  -46.8443 C.2       1 UNK         0.5027 
     26 O          18.2020  -26.0913  -46.6563 O.2       1 UNK        -0.4969 
     27 C          21.3495  -25.9691  -42.4889 C.2       3 UNK         0.5005 
     28 O          21.9759  -25.1108  -43.1169 O.2       3 UNK        -0.5279 
     29 N          21.7947  -26.5574  -41.3754 N.am      4 UNK        -0.4463 
     30 CA         23.0436  -26.2766  -40.6776 C.3       4 UNK         0.0283 
     31 CB         24.2421  -26.8453  -41.4626 C.3       4 UNK        -0.1875 
     32 C          22.9521  -26.9202  -39.2892 C.2       4 UNK         0.4949 
     33 O          22.0522  -27.7301  -39.0435 O.2       4 UNK        -0.5039 
     34 N          23.9077  -26.5919  -38.4122 N.am      5 UNK        -0.4663 
     35 CA         24.0912  -27.2220  -37.1005 C.3       5 UNK         0.0242 
     36 CB         24.8885  -26.2645  -36.1944 C.3       5 UNK        -0.1982 
     37 C          24.7633  -28.6029  -37.2494 C.2       5 UNK         0.5017 
     38 O          25.9045  -28.7820  -36.8186 O.2       5 UNK        -0.5012 
     39 N          24.0419  -29.5301  -37.8969 N.am      6 UNK        -0.4439 
     40 CA         24.4744  -30.8496  -38.3745 C.3       6 UNK         0.0297 
     41 CB         24.9800  -31.7329  -37.2116 C.3       6 UNK        -0.2006 
     42 C          25.4855  -30.7518  -39.5377 C.2       6 UNK         0.4892 
     43 O          25.7602  -29.6572  -40.0337 O.2       6 UNK        -0.5089 
     44 N          25.9826  -31.9164  -39.9840 N.am      7 UNK        -0.4243 
     45 CA         26.9168  -32.1133  -41.1064 C.3       7 UNK         0.0196 
     46 CB         28.2870  -31.4676  -40.8056 C.3       7 UNK        -0.2007 
     47 C          26.3513  -31.6938  -42.4823 C.2       7 UNK         0.5020 
     48 O          27.1201  -31.4205  -43.4054 O.2       7 UNK        -0.5147 
     49 N          25.0203  -31.6781  -42.6034 N.am      8 UNK        -0.4734 
     50 CA         24.2586  -31.3797  -43.8128 C.3       8 UNK         0.0238 
     51 CB         24.2211  -29.8580  -44.0683 C.3       8 UNK        -0.1912 
     52 C          22.8852  -32.0431  -43.6363 C.2       8 UNK         0.5038 
     53 O          22.8494  -33.2595  -43.4409 O.2       8 UNK        -0.5046 
     54 N          21.7972  -31.2602  -43.6575 N.am      9 UNK        -0.4200 
     55 CA         20.4207  -31.6842  -43.3403 C.3       9 UNK         0.0839 
     56 C          19.7696  -32.6437  -44.3817 C.2       9 UNK         0.5513 
     57 N          20.3155  -32.7837  -45.5841 N.am      9 UNK        -0.7519 
     58 O          18.7360  -33.2494  -44.1106 O.2       9 UNK        -0.4960 
     59 C59        20.2811  -32.1916  -41.8739 C.3       10 UNK        -0.0876 
     60 S60        20.6944  -30.8983  -40.6496 S.3       10 UNK        -0.2414 
     61 C61        19.0886  -30.6320  -39.8316 C.3       10 UNK         0.0169 
     62 H62        14.3378  -25.0630  -48.8387 H         1 UNK         0.0903 
     63 H63        15.5885  -24.6714  -50.0203 H         1 UNK         0.0903 
     64 H64        14.3515  -25.8706  -50.4075 H         1 UNK         0.0903 
     65 H65        15.1456  -26.3407  -47.1874 H         1 UNK         0.3096 
     66 H66        16.6844  -28.7362  -47.7077 H         1 UNK         0.1121 
     67 H67        16.1417  -27.5268  -44.9453 H         1 UNK         0.0849 
     68 H68        14.8829  -28.3432  -45.8330 H         1 UNK         0.0849 
     69 H69        14.7160  -29.5574  -43.5907 H         1 UNK         0.0865 
     70 H70        15.4981  -31.0918  -43.3372 H         1 UNK         0.0865 
     71 H71        17.4723  -31.3061  -41.9430 H         1 UNK         0.1346 
     72 H72        18.6132  -27.9689  -39.4982 H         1 UNK         0.1412 
     73 H73        15.7267  -27.4589  -42.6282 H         1 UNK         0.1426 
     74 H74        16.6940  -26.0204  -39.6094 H         1 UNK         0.0716 
     75 H75        16.2259  -25.6088  -41.2401 H         1 UNK         0.0716 
     76 H76        17.9337  -25.5741  -43.1406 H         1 UNK         0.0695 
     77 H77        19.1672  -24.3505  -43.0432 H         1 UNK         0.0695 
     78 H78        19.6723  -27.3190  -42.4519 H         1 UNK         0.0983 
     79 H79        19.4020  -26.1165  -44.9995 H         1 UNK         0.3095 
     80 H80        20.7100  -26.9589  -46.9501 H         1 UNK         0.0454 
     81 H81        21.0985  -29.9829  -46.6239 H         1 UNK         0.0851 
     82 H82        21.1967  -29.0907  -48.1412 H         1 UNK         0.0851 
     83 H83        22.3729  -28.7960  -46.8744 H         1 UNK         0.0851 
     84 H84        18.7937  -29.1756  -46.9055 H         1 UNK         0.2976 
     85 H85        21.2141  -27.2320  -40.8886 H         1 UNK         0.3116 
     86 H86        23.1492  -25.1963  -40.5602 H         1 UNK         0.0646 
     87 H87        25.1868  -26.5847  -40.9844 H         1 UNK         0.0847 
     88 H88        24.2010  -27.9332  -41.5138 H         1 UNK         0.0847 
     89 H89        24.2831  -26.4622  -42.4820 H         1 UNK         0.0847 
     90 H90        24.6295  -25.9475  -38.7025 H         1 UNK         0.3040 
     91 H91        23.1140  -27.3806  -36.6379 H         1 UNK         0.1015 
     92 H92        25.0315  -26.6955  -35.2025 H         1 UNK         0.0786 
     93 H93        24.3657  -25.3171  -36.0618 H         1 UNK         0.0786 
     94 H94        25.8769  -26.0483  -36.6020 H         1 UNK         0.0786 
     95 H95        23.1496  -29.2116  -38.2650 H         1 UNK         0.3172 
     96 H96        23.5781  -31.3179  -38.7843 H         1 UNK         0.0595 
     97 H97        25.9628  -31.4186  -36.8585 H         1 UNK         0.0839 
     98 H98        25.0633  -32.7778  -37.5108 H         1 UNK         0.0839 
     99 H99        24.2956  -31.7012  -36.3637 H         1 UNK         0.0839 
    100 H100       25.6820  -32.7638  -39.5222 H         1 UNK         0.2998 
    101 H101       27.0764  -33.1905  -41.1745 H         1 UNK         0.0822 
    102 H102       29.0260  -31.7471  -41.5576 H         1 UNK         0.0787 
    103 H103       28.6741  -31.7894  -39.8389 H         1 UNK         0.0787 
    104 H104       28.2289  -30.3788  -40.7987 H         1 UNK         0.0787 
    105 H105       24.4663  -31.9687  -41.8095 H         1 UNK         0.3055 
    106 H106       24.7412  -31.8663  -44.6633 H         1 UNK         0.1106 
    107 H107       25.2254  -29.4431  -44.1531 H         1 UNK         0.0828 
    108 H108       23.7118  -29.3239  -43.2668 H         1 UNK         0.0828 
    109 H109       23.7065  -29.6307  -45.0016 H         1 UNK         0.0828 
    110 H110       21.8944  -30.2657  -43.8455 H         1 UNK         0.2931 
    111 H111       19.8235  -30.7747  -43.4185 H         1 UNK         0.0412 
    112 H112       19.8818  -33.3995  -46.2538 H         1 UNK         0.3472 
    113 H113       21.1689  -32.3031  -45.8159 H         1 UNK         0.3472 
    114 H114       19.2754  -32.5612  -41.6781 H         1 UNK         0.0970 
    115 H115       20.9293  -33.0505  -41.6981 H         1 UNK         0.0970 
    116 H116       18.6070  -31.5901  -39.6310 H         1 UNK         0.0612 
    117 H117       19.2771  -30.1836  -38.8550 H         1 UNK         0.0612 
@<TRIPOS>BOND
     1    1    2 1    
     2    1   62 1    
     3    1   63 1    
     4    1   64 1    
     5    2    3 2    
     6    2    4 am   BACKBONE|DICT|INTERRES
     7    4    5 1    
     8    4   65 1    
     9    5    6 1    
    10    5   25 1    
    11    5   66 1    
    12    6    7 1    
    13    6   67 1    
    14    6   68 1    
    15    7    8 1    
    16    8    9 1    
    17    8   69 1    
    18    8   70 1    
    19    9   10 ar   
    20    9   14 ar   
    21   10   11 ar   
    22   10   71 1    
    23   11   12 ar   
    24   11   61 1    
    25   12   13 ar   
    26   12   72 1    
    27   13   14 ar   
    28   13   15 1    
    29   14   73 1    
    30   15   16 1    
    31   15   74 1    
    32   15   75 1    
    33   16   17 1    
    34   17   18 1    
    35   17   76 1    
    36   17   77 1    
    37   18   19 1    
    38   18   27 1    
    39   18   78 1    
    40   19   20 am   BACKBONE|DICT|INTERRES
    41   19   79 1    
    42   20   21 2    
    43   20   22 1    
    44   22   23 1    
    45   22   24 1    
    46   22   80 1    
    47   23   81 1    
    48   23   82 1    
    49   23   83 1    
    50   24   25 am   BACKBONE|DICT|INTERRES
    51   24   84 1    
    52   25   26 2    
    53   27   28 2    
    54   27   29 am   BACKBONE|DICT|INTERRES
    55   29   30 1    
    56   29   85 1    
    57   30   31 1    
    58   30   32 1    
    59   30   86 1    
    60   31   87 1    
    61   31   88 1    
    62   31   89 1    
    63   32   33 2    
    64   32   34 am   BACKBONE|DICT|INTERRES
    65   34   35 1    
    66   34   90 1    
    67   35   36 1    
    68   35   37 1    
    69   35   91 1    
    70   36   92 1    
    71   36   93 1    
    72   36   94 1    
    73   37   38 2    
    74   37   39 am   BACKBONE|DICT|INTERRES
    75   39   40 1    
    76   39   95 1    
    77   40   41 1    
    78   40   42 1    
    79   40   96 1    
    80   41   97 1    
    81   41   98 1    
    82   41   99 1    
    83   42   43 2    
    84   42   44 am   BACKBONE|DICT|INTERRES
    85   44   45 1    
    86   44  100 1    
    87   45   46 1    
    88   45   47 1    
    89   45  101 1    
    90   46  102 1    
    91   46  103 1    
    92   46  104 1    
    93   47   48 2    
    94   47   49 am   BACKBONE|DICT|INTERRES
    95   49   50 1    
    96   49  105 1    
    97   50   51 1    
    98   50   52 1    
    99   50  106 1    
   100   51  107 1    
   101   51  108 1    
   102   51  109 1    
   103   52   53 2    
   104   52   54 am   BACKBONE|DICT|INTERRES
   105   54   55 1    
   106   54  110 1    
   107   55   56 1    
   108   55   59 1    
   109   55  111 1    
   110   56   57 am   BACKBONE|DICT|INTERRES
   111   56   58 2    
   112   57  112 1    
   113   57  113 1    
   114   59   60 1    
   115   59  114 1    
   116   59  115 1    
   117   60   61 1    
   118   61  116 1    
   119   61  117 1    
@<TRIPOS>SUBSTRUCTURE
     1 UNK         1 GROUP             0       ****    0 ROOT    
