@<TRIPOS>MOLECULE
3R8
117   119    1
SMALL
USER_CHARGES


@<TRIPOS>ATOM
      1 CA         19.7022  -24.2022  -39.4624 C.3       0 UNK        -0.2013 
      2 C          18.9359  -24.5167  -40.7388 C.2       0 UNK         0.4866 
      3 O          18.3570  -23.6121  -41.3402 O.2       0 UNK        -0.5176 
      4 N          18.9304  -25.7888  -41.1617 N.am      1 UNK        -0.4884 
      5 CA         18.2252  -26.2668  -42.3622 C.3       1 UNK         0.0853 
      6 C6         17.8071  -27.7575  -42.2315 C.3       10 UNK        -0.0849 
      7 S7         16.0985  -28.0134  -42.8183 S.3       10 UNK        -0.2776 
      8 C8         15.9147  -29.8210  -42.6545 C.3       10 UNK         0.0316 
      9 C9         16.7534  -30.6425  -43.6326 C.ar      10 UNK        -0.0863 
     10 C10        17.1877  -31.9141  -43.2462 C.ar      10 UNK        -0.1009 
     11 C11        17.9419  -32.7067  -44.1154 C.ar      10 UNK        -0.0712 
     12 C12        18.2601  -32.2208  -45.3872 C.ar      10 UNK        -0.0894 
     13 C13        17.8271  -30.9562  -45.7942 C.ar      10 UNK        -0.0745 
     14 C14        17.0659  -30.1778  -44.9173 C.ar      10 UNK        -0.0972 
     15 C15        18.1561  -30.4448  -47.1913 C.3       10 UNK         0.0209 
     16 S16        19.1638  -28.9275  -47.1683 S.3       10 UNK        -0.2568 
     17 C17        20.7299  -29.5387  -46.4637 C.3       10 UNK        -0.0983 
     18 CA         21.7911  -28.4137  -46.3490 C.3       3 UNK         0.0876 
     19 N          21.3443  -27.3274  -45.4672 N.am      3 UNK        -0.4424 
     20 C          21.7226  -26.0484  -45.5798 C.2       2 UNK         0.4918 
     21 O          22.5451  -25.6711  -46.4165 O.2       2 UNK        -0.4875 
     22 CA         21.1513  -25.0097  -44.5952 C.3       2 UNK         0.0481 
     23 CB         20.5118  -23.8205  -45.3416 C.3       2 UNK        -0.1831 
     24 N          20.2525  -25.5263  -43.5526 N.am      2 UNK        -0.4498 
     25 C          18.9951  -25.9799  -43.6742 C.2       1 UNK         0.5027 
     26 O          18.4342  -26.1499  -44.7559 O.2       1 UNK        -0.4969 
     27 C          23.1800  -28.9342  -45.9139 C.2       3 UNK         0.5005 
     28 O          23.3196  -30.1040  -45.5545 O.2       3 UNK        -0.5279 
     29 N          24.1843  -28.0459  -45.9392 N.am      4 UNK        -0.4463 
     30 CA         25.5799  -28.2291  -45.5201 C.3       4 UNK         0.0283 
     31 CB         26.2928  -29.3366  -46.3242 C.3       4 UNK        -0.1875 
     32 C          25.7190  -28.4229  -44.0012 C.2       4 UNK         0.4949 
     33 O          26.1492  -27.4974  -43.3126 O.2       4 UNK        -0.5039 
     34 N          25.3115  -29.5897  -43.4862 N.am      5 UNK        -0.4663 
     35 CA         25.3123  -29.9426  -42.0598 C.3       5 UNK         0.0242 
     36 CB         25.4021  -31.4741  -41.9241 C.3       5 UNK        -0.1982 
     37 C          24.0855  -29.3560  -41.3328 C.2       5 UNK         0.5017 
     38 O          23.3678  -30.0851  -40.6449 O.2       5 UNK        -0.5012 
     39 N          23.8685  -28.0482  -41.5292 N.am      6 UNK        -0.4439 
     40 CA         22.6602  -27.2653  -41.2488 C.3       6 UNK         0.0297 
     41 CB         22.9984  -25.7759  -41.4234 C.3       6 UNK        -0.2006 
     42 C          21.9952  -27.4868  -39.8820 C.2       6 UNK         0.4892 
     43 O          20.7669  -27.4575  -39.8042 O.2       6 UNK        -0.5089 
     44 N          22.8090  -27.6851  -38.8380 N.am      7 UNK        -0.4243 
     45 CA         22.3586  -27.9027  -37.4622 C.3       7 UNK         0.0196 
     46 CB         23.5623  -27.7618  -36.5161 C.3       7 UNK        -0.2007 
     47 C          21.6553  -29.2540  -37.2361 C.2       7 UNK         0.5020 
     48 O          20.9070  -29.3732  -36.2651 O.2       7 UNK        -0.5147 
     49 N          21.9127  -30.2424  -38.1029 N.am      8 UNK        -0.4734 
     50 CA         21.3592  -31.5947  -38.0056 C.3       8 UNK         0.0238 
     51 CB         22.5097  -32.5968  -37.8085 C.3       8 UNK        -0.1912 
     52 C          20.5321  -31.9703  -39.2416 C.2       8 UNK         0.5038 
     53 O          19.4688  -32.5724  -39.0888 O.2       8 UNK        -0.5046 
     54 N          21.0359  -31.6382  -40.4340 N.am      9 UNK        -0.4200 
     55 CA         20.4847  -32.0237  -41.7337 C.3       9 UNK         0.0839 
     56 C          21.1343  -31.1052  -42.8004 C.2       9 UNK         0.5513 
     57 N          22.0287  -31.6192  -43.6312 N.am      9 UNK        -0.7519 
     58 O          20.8294  -29.9166  -42.8665 O.2       9 UNK        -0.4960 
     59 C59        20.5788  -33.5707  -41.9537 C.3       10 UNK        -0.0876 
     60 S60        20.2032  -34.2318  -43.6163 S.3       10 UNK        -0.2414 
     61 C61        18.3916  -34.0989  -43.6956 C.3       10 UNK         0.0169 
     62 H62        19.9592  -25.1035  -38.9071 H         1 UNK         0.0903 
     63 H63        19.0995  -23.5712  -38.8097 H         1 UNK         0.0903 
     64 H64        20.6224  -23.6679  -39.6962 H         1 UNK         0.0903 
     65 H65        19.4521  -26.4904  -40.6354 H         1 UNK         0.3096 
     66 H66        17.3150  -25.6665  -42.4367 H         1 UNK         0.1121 
     67 H67        18.4882  -28.4244  -42.7654 H         1 UNK         0.0849 
     68 H68        17.8394  -28.0794  -41.1891 H         1 UNK         0.0849 
     69 H69        16.1514  -30.0989  -41.6261 H         1 UNK         0.0865 
     70 H70        14.8654  -30.0760  -42.8079 H         1 UNK         0.0865 
     71 H71        16.9362  -32.2909  -42.2639 H         1 UNK         0.1346 
     72 H72        18.8440  -32.8341  -46.0599 H         1 UNK         0.1412 
     73 H73        16.7255  -29.2044  -45.2427 H         1 UNK         0.1426 
     74 H74        18.6749  -31.2063  -47.7757 H         1 UNK         0.0716 
     75 H75        17.2238  -30.2373  -47.7181 H         1 UNK         0.0716 
     76 H76        21.0933  -30.3486  -47.0990 H         1 UNK         0.0695 
     77 H77        20.5230  -29.9782  -45.4885 H         1 UNK         0.0695 
     78 H78        21.9255  -28.0091  -47.3550 H         1 UNK         0.0983 
     79 H79        20.6726  -27.5794  -44.7570 H         1 UNK         0.3095 
     80 H80        22.0135  -24.6125  -44.0600 H         1 UNK         0.0454 
     81 H81        20.1481  -23.0637  -44.6466 H         1 UNK         0.0851 
     82 H82        19.6748  -24.1337  -45.9662 H         1 UNK         0.0851 
     83 H83        21.2356  -23.3341  -45.9966 H         1 UNK         0.0851 
     84 H84        20.5953  -25.4402  -42.6074 H         1 UNK         0.2976 
     85 H85        23.9344  -27.0998  -46.2138 H         1 UNK         0.3116 
     86 H86        26.0828  -27.2906  -45.7595 H         1 UNK         0.0646 
     87 H87        26.2616  -29.1280  -47.3934 H         1 UNK         0.0847 
     88 H88        27.3435  -29.4051  -46.0397 H         1 UNK         0.0847 
     89 H89        25.8532  -30.3214  -46.1662 H         1 UNK         0.0847 
     90 H90        24.8465  -30.2334  -44.1174 H         1 UNK         0.3040 
     91 H91        26.1992  -29.5143  -41.5876 H         1 UNK         0.1015 
     92 H92        24.5351  -31.9698  -42.3613 H         1 UNK         0.0786 
     93 H93        25.4542  -31.7725  -40.8761 H         1 UNK         0.0786 
     94 H94        26.2939  -31.8638  -42.4149 H         1 UNK         0.0786 
     95 H95        24.5742  -27.5781  -42.0879 H         1 UNK         0.3172 
     96 H96        21.9293  -27.5440  -42.0100 H         1 UNK         0.0595 
     97 H97        23.3859  -25.5697  -42.4207 H         1 UNK         0.0839 
     98 H98        22.1224  -25.1451  -41.2728 H         1 UNK         0.0839 
     99 H99        23.7533  -25.4511  -40.7060 H         1 UNK         0.0839 
    100 H100       23.8046  -27.7044  -39.0046 H         1 UNK         0.2998 
    101 H101       21.6379  -27.1192  -37.2177 H         1 UNK         0.0822 
    102 H102       24.0227  -26.7773  -36.6019 H         1 UNK         0.0787 
    103 H103       23.2580  -27.8851  -35.4756 H         1 UNK         0.0787 
    104 H104       24.3273  -28.5116  -36.7225 H         1 UNK         0.0787 
    105 H105       22.5127  -30.0482  -38.8999 H         1 UNK         0.3055 
    106 H106       20.6925  -31.6766  -37.1440 H         1 UNK         0.1106 
    107 H107       23.0531  -32.3961  -36.8851 H         1 UNK         0.0828 
    108 H108       22.1328  -33.6187  -37.7465 H         1 UNK         0.0828 
    109 H109       23.2248  -32.5604  -38.6316 H         1 UNK         0.0828 
    110 H110       21.8985  -31.0986  -40.4871 H         1 UNK         0.2931 
    111 H111       19.4290  -31.7549  -41.7206 H         1 UNK         0.0412 
    112 H112       22.4578  -31.0276  -44.3397 H         1 UNK         0.3472 
    113 H113       22.2197  -32.6078  -43.6202 H         1 UNK         0.3472 
    114 H114       21.5888  -33.9038  -41.7092 H         1 UNK         0.0970 
    115 H115       19.9300  -34.0831  -41.2425 H         1 UNK         0.0970 
    116 H116       18.0219  -34.8201  -44.4257 H         1 UNK         0.0612 
    117 H117       17.9592  -34.3852  -42.7356 H         1 UNK         0.0612 
@<TRIPOS>BOND
     1    1    2 1    
     2    1   62 1    
     3    1   63 1    
     4    1   64 1    
     5    2    3 2    
     6    2    4 am   BACKBONE|DICT|INTERRES
     7    4    5 1    
     8    4   65 1    
     9    5    6 1    
    10    5   25 1    
    11    5   66 1    
    12    6    7 1    
    13    6   67 1    
    14    6   68 1    
    15    7    8 1    
    16    8    9 1    
    17    8   69 1    
    18    8   70 1    
    19    9   10 ar   
    20    9   14 ar   
    21   10   11 ar   
    22   10   71 1    
    23   11   12 ar   
    24   11   61 1    
    25   12   13 ar   
    26   12   72 1    
    27   13   14 ar   
    28   13   15 1    
    29   14   73 1    
    30   15   16 1    
    31   15   74 1    
    32   15   75 1    
    33   16   17 1    
    34   17   18 1    
    35   17   76 1    
    36   17   77 1    
    37   18   19 1    
    38   18   27 1    
    39   18   78 1    
    40   19   20 am   BACKBONE|DICT|INTERRES
    41   19   79 1    
    42   20   21 2    
    43   20   22 1    
    44   22   23 1    
    45   22   24 1    
    46   22   80 1    
    47   23   81 1    
    48   23   82 1    
    49   23   83 1    
    50   24   25 am   BACKBONE|DICT|INTERRES
    51   24   84 1    
    52   25   26 2    
    53   27   28 2    
    54   27   29 am   BACKBONE|DICT|INTERRES
    55   29   30 1    
    56   29   85 1    
    57   30   31 1    
    58   30   32 1    
    59   30   86 1    
    60   31   87 1    
    61   31   88 1    
    62   31   89 1    
    63   32   33 2    
    64   32   34 am   BACKBONE|DICT|INTERRES
    65   34   35 1    
    66   34   90 1    
    67   35   36 1    
    68   35   37 1    
    69   35   91 1    
    70   36   92 1    
    71   36   93 1    
    72   36   94 1    
    73   37   38 2    
    74   37   39 am   BACKBONE|DICT|INTERRES
    75   39   40 1    
    76   39   95 1    
    77   40   41 1    
    78   40   42 1    
    79   40   96 1    
    80   41   97 1    
    81   41   98 1    
    82   41   99 1    
    83   42   43 2    
    84   42   44 am   BACKBONE|DICT|INTERRES
    85   44   45 1    
    86   44  100 1    
    87   45   46 1    
    88   45   47 1    
    89   45  101 1    
    90   46  102 1    
    91   46  103 1    
    92   46  104 1    
    93   47   48 2    
    94   47   49 am   BACKBONE|DICT|INTERRES
    95   49   50 1    
    96   49  105 1    
    97   50   51 1    
    98   50   52 1    
    99   50  106 1    
   100   51  107 1    
   101   51  108 1    
   102   51  109 1    
   103   52   53 2    
   104   52   54 am   BACKBONE|DICT|INTERRES
   105   54   55 1    
   106   54  110 1    
   107   55   56 1    
   108   55   59 1    
   109   55  111 1    
   110   56   57 am   BACKBONE|DICT|INTERRES
   111   56   58 2    
   112   57  112 1    
   113   57  113 1    
   114   59   60 1    
   115   59  114 1    
   116   59  115 1    
   117   60   61 1    
   118   61  116 1    
   119   61  117 1    
@<TRIPOS>SUBSTRUCTURE
     1 UNK         1 GROUP             0       ****    0 ROOT    
