@<TRIPOS>MOLECULE
3R8
117   119    1
SMALL
USER_CHARGES


@<TRIPOS>ATOM
      1 CA         14.0446  -23.8044  -45.0521 C.3       0 UNK        -0.2013 
      2 C          15.1268  -24.8630  -44.9054 C.2       0 UNK         0.4866 
      3 O          16.3082  -24.5248  -44.8250 O.2       0 UNK        -0.5176 
      4 N          14.7359  -26.1433  -44.8622 N.am      1 UNK        -0.4884 
      5 CA         15.6239  -27.3042  -44.7230 C.3       1 UNK         0.0853 
      6 C6         14.9571  -28.5974  -45.2680 C.3       10 UNK        -0.0849 
      7 S7         15.0660  -28.6685  -47.0886 S.3       10 UNK        -0.2776 
      8 C8         16.5135  -29.7590  -47.3292 C.3       10 UNK         0.0316 
      9 C9         17.7374  -29.2628  -46.5684 C.ar      10 UNK        -0.0863 
     10 C10        18.1291  -29.8885  -45.3802 C.ar      10 UNK        -0.1009 
     11 C11        19.2031  -29.3926  -44.6366 C.ar      10 UNK        -0.0712 
     12 C12        19.9090  -28.2840  -45.1095 C.ar      10 UNK        -0.0894 
     13 C13        19.5290  -27.6459  -46.2945 C.ar      10 UNK        -0.0745 
     14 C14        18.4462  -28.1472  -47.0242 C.ar      10 UNK        -0.0972 
     15 C15        20.2762  -26.4140  -46.7897 C.3       10 UNK         0.0209 
     16 S16        19.9961  -24.9577  -45.7245 S.3       10 UNK        -0.2568 
     17 C17        21.3426  -25.1327  -44.5030 C.3       10 UNK        -0.0983 
     18 CA         20.9051  -25.0563  -43.0132 C.3       3 UNK         0.0876 
     19 N          19.6655  -25.7970  -42.7291 N.am      3 UNK        -0.4424 
     20 C          18.9292  -25.6446  -41.6174 C.2       2 UNK         0.4918 
     21 O          19.2548  -24.9064  -40.6871 O.2       2 UNK        -0.4875 
     22 CA         17.6126  -26.4364  -41.5395 C.3       2 UNK         0.0481 
     23 CB         16.6302  -25.8699  -40.4944 C.3       2 UNK        -0.1831 
     24 N          16.9721  -26.4958  -42.8518 N.am      2 UNK        -0.4498 
     25 C          16.1392  -27.4526  -43.2752 C.2       1 UNK         0.5027 
     26 O          15.7762  -28.4009  -42.5764 O.2       1 UNK        -0.4969 
     27 C          22.0972  -25.4818  -42.1248 C.2       3 UNK         0.5005 
     28 O          23.0758  -24.7374  -42.0499 O.2       3 UNK        -0.5279 
     29 N          22.0214  -26.6849  -41.5277 N.am      4 UNK        -0.4463 
     30 CA         23.1025  -27.4006  -40.8312 C.3       4 UNK         0.0283 
     31 CB         23.5706  -26.6390  -39.5729 C.3       4 UNK        -0.1875 
     32 C          24.2604  -27.7665  -41.7840 C.2       4 UNK         0.4949 
     33 O          25.4291  -27.7046  -41.3999 O.2       4 UNK        -0.5039 
     34 N          23.9033  -28.1329  -43.0252 N.am      5 UNK        -0.4663 
     35 CA         24.8211  -28.3970  -44.1394 C.3       5 UNK         0.0242 
     36 CB         24.0061  -28.5436  -45.4355 C.3       5 UNK        -0.1982 
     37 C          25.7299  -29.6209  -43.9368 C.2       5 UNK         0.5017 
     38 O          26.8224  -29.6590  -44.5038 O.2       5 UNK        -0.5012 
     39 N          25.2703  -30.5824  -43.1296 N.am      6 UNK        -0.4439 
     40 CA         26.0132  -31.7722  -42.7248 C.3       6 UNK         0.0297 
     41 CB         25.5341  -32.9883  -43.5406 C.3       6 UNK        -0.2006 
     42 C          25.8705  -31.9535  -41.2081 C.2       6 UNK         0.4892 
     43 O          25.4248  -33.0095  -40.7548 O.2       6 UNK        -0.5089 
     44 N          26.2205  -30.8959  -40.4578 N.am      7 UNK        -0.4243 
     45 CA         26.1703  -30.7781  -38.9950 C.3       7 UNK         0.0196 
     46 CB         27.2174  -31.7010  -38.3309 C.3       7 UNK        -0.2007 
     47 C          24.7417  -30.9785  -38.4613 C.2       7 UNK         0.5020 
     48 O          23.9500  -30.0371  -38.5000 O.2       7 UNK        -0.5147 
     49 N          24.4242  -32.2028  -38.0161 N.am      8 UNK        -0.4734 
     50 CA         23.0755  -32.6349  -37.6333 C.3       8 UNK         0.0238 
     51 CB         23.1487  -34.0375  -37.0089 C.3       8 UNK        -0.1912 
     52 C          22.0759  -32.6155  -38.8060 C.2       8 UNK         0.5038 
     53 O          20.8836  -32.4164  -38.5689 O.2       8 UNK        -0.5046 
     54 N          22.5852  -32.7736  -40.0373 N.am      9 UNK        -0.4200 
     55 CA         21.8513  -32.6448  -41.3028 C.3       9 UNK         0.0839 
     56 C          20.7974  -33.7684  -41.5410 C.2       9 UNK         0.5513 
     57 N          19.9656  -33.6381  -42.5648 N.am      9 UNK        -0.7519 
     58 O          20.7533  -34.7799  -40.8432 O.2       9 UNK        -0.4960 
     59 C59        21.3070  -31.1964  -41.4837 C.3       10 UNK        -0.0876 
     60 S60        21.2583  -30.6335  -43.2181 S.3       10 UNK        -0.2414 
     61 C61        19.5512  -30.0069  -43.2887 C.3       10 UNK         0.0169 
     62 H62        14.2214  -23.2104  -45.9482 H         1 UNK         0.0903 
     63 H63        13.0502  -24.2440  -45.1278 H         1 UNK         0.0903 
     64 H64        14.0558  -23.1356  -44.1922 H         1 UNK         0.0903 
     65 H65        13.7502  -26.3575  -44.9178 H         1 UNK         0.3096 
     66 H66        16.5159  -27.1087  -45.3208 H         1 UNK         0.1121 
     67 H67        15.4182  -29.5003  -44.8653 H         1 UNK         0.0849 
     68 H68        13.9095  -28.6519  -44.9674 H         1 UNK         0.0849 
     69 H69        16.2534  -30.7729  -47.0209 H         1 UNK         0.0865 
     70 H70        16.7442  -29.8159  -48.3941 H         1 UNK         0.0865 
     71 H71        17.5718  -30.7397  -45.0133 H         1 UNK         0.1346 
     72 H72        20.7465  -27.9167  -44.5390 H         1 UNK         0.1412 
     73 H73        18.1341  -27.6550  -47.9356 H         1 UNK         0.1426 
     74 H74        21.3419  -26.6313  -46.8717 H         1 UNK         0.0716 
     75 H75        19.9493  -26.1583  -47.7987 H         1 UNK         0.0716 
     76 H76        21.8863  -26.0558  -44.7011 H         1 UNK         0.0695 
     77 H77        22.0624  -24.3378  -44.7078 H         1 UNK         0.0695 
     78 H78        20.7051  -24.0067  -42.7851 H         1 UNK         0.0983 
     79 H79        19.3144  -26.3830  -43.4727 H         1 UNK         0.3095 
     80 H80        17.8865  -27.4495  -41.2383 H         1 UNK         0.0454 
     81 H81        16.3316  -24.8499  -40.7383 H         1 UNK         0.0851 
     82 H82        15.7268  -26.4757  -40.4252 H         1 UNK         0.0851 
     83 H83        17.0786  -25.8522  -39.5003 H         1 UNK         0.0851 
     84 H84        17.1332  -25.7073  -43.4755 H         1 UNK         0.2976 
     85 H85        21.1564  -27.1949  -41.6321 H         1 UNK         0.3116 
     86 H86        22.6773  -28.3448  -40.4918 H         1 UNK         0.0646 
     87 H87        24.2588  -27.2488  -38.9861 H         1 UNK         0.0847 
     88 H88        22.7308  -26.3875  -38.9256 H         1 UNK         0.0847 
     89 H89        24.0925  -25.7153  -39.8231 H         1 UNK         0.0847 
     90 H90        22.9188  -28.1849  -43.2371 H         1 UNK         0.3040 
     91 H91        25.4753  -27.5281  -44.2410 H         1 UNK         0.1015 
     92 H92        23.4563  -27.6318  -45.6660 H         1 UNK         0.0786 
     93 H93        23.2896  -29.3639  -45.3736 H         1 UNK         0.0786 
     94 H94        24.6583  -28.7457  -46.2864 H         1 UNK         0.0786 
     95 H95        24.3633  -30.4489  -42.7047 H         1 UNK         0.3172 
     96 H96        27.0800  -31.6370  -42.9154 H         1 UNK         0.0595 
     97 H97        26.0681  -33.8926  -43.2458 H         1 UNK         0.0839 
     98 H98        25.7121  -32.8415  -44.6060 H         1 UNK         0.0839 
     99 H99        24.4699  -33.1775  -43.4049 H         1 UNK         0.0839 
    100 H100       26.5067  -30.0556  -40.9439 H         1 UNK         0.2998 
    101 H101       26.4428  -29.7483  -38.7574 H         1 UNK         0.0822 
    102 H102       28.2270  -31.4205  -38.6315 H         1 UNK         0.0787 
    103 H103       27.1751  -31.6231  -37.2435 H         1 UNK         0.0787 
    104 H104       27.0803  -32.7504  -38.5927 H         1 UNK         0.0787 
    105 H105       25.1354  -32.9187  -38.0643 H         1 UNK         0.3055 
    106 H106       22.7028  -31.9383  -36.8790 H         1 UNK         0.1106 
    107 H107       22.1607  -34.3744  -36.6916 H         1 UNK         0.0828 
    108 H108       23.5322  -34.7748  -37.7153 H         1 UNK         0.0828 
    109 H109       23.7909  -34.0480  -36.1280 H         1 UNK         0.0828 
    110 H110       23.5793  -32.9625  -40.1268 H         1 UNK         0.2931 
    111 H111       22.6161  -32.8128  -42.0598 H         1 UNK         0.0412 
    112 H112       19.2890  -34.3623  -42.7492 H         1 UNK         0.3472 
    113 H113       20.0255  -32.8313  -43.1675 H         1 UNK         0.3472 
    114 H114       21.9513  -30.4920  -40.9575 H         1 UNK         0.0970 
    115 H115       20.3279  -31.0948  -41.0114 H         1 UNK         0.0970 
    116 H116       19.4153  -29.2495  -42.5155 H         1 UNK         0.0612 
    117 H117       18.8638  -30.8193  -43.0475 H         1 UNK         0.0612 
@<TRIPOS>BOND
     1    1    2 1    
     2    1   62 1    
     3    1   63 1    
     4    1   64 1    
     5    2    3 2    
     6    2    4 am   BACKBONE|DICT|INTERRES
     7    4    5 1    
     8    4   65 1    
     9    5    6 1    
    10    5   25 1    
    11    5   66 1    
    12    6    7 1    
    13    6   67 1    
    14    6   68 1    
    15    7    8 1    
    16    8    9 1    
    17    8   69 1    
    18    8   70 1    
    19    9   10 ar   
    20    9   14 ar   
    21   10   11 ar   
    22   10   71 1    
    23   11   12 ar   
    24   11   61 1    
    25   12   13 ar   
    26   12   72 1    
    27   13   14 ar   
    28   13   15 1    
    29   14   73 1    
    30   15   16 1    
    31   15   74 1    
    32   15   75 1    
    33   16   17 1    
    34   17   18 1    
    35   17   76 1    
    36   17   77 1    
    37   18   19 1    
    38   18   27 1    
    39   18   78 1    
    40   19   20 am   BACKBONE|DICT|INTERRES
    41   19   79 1    
    42   20   21 2    
    43   20   22 1    
    44   22   23 1    
    45   22   24 1    
    46   22   80 1    
    47   23   81 1    
    48   23   82 1    
    49   23   83 1    
    50   24   25 am   BACKBONE|DICT|INTERRES
    51   24   84 1    
    52   25   26 2    
    53   27   28 2    
    54   27   29 am   BACKBONE|DICT|INTERRES
    55   29   30 1    
    56   29   85 1    
    57   30   31 1    
    58   30   32 1    
    59   30   86 1    
    60   31   87 1    
    61   31   88 1    
    62   31   89 1    
    63   32   33 2    
    64   32   34 am   BACKBONE|DICT|INTERRES
    65   34   35 1    
    66   34   90 1    
    67   35   36 1    
    68   35   37 1    
    69   35   91 1    
    70   36   92 1    
    71   36   93 1    
    72   36   94 1    
    73   37   38 2    
    74   37   39 am   BACKBONE|DICT|INTERRES
    75   39   40 1    
    76   39   95 1    
    77   40   41 1    
    78   40   42 1    
    79   40   96 1    
    80   41   97 1    
    81   41   98 1    
    82   41   99 1    
    83   42   43 2    
    84   42   44 am   BACKBONE|DICT|INTERRES
    85   44   45 1    
    86   44  100 1    
    87   45   46 1    
    88   45   47 1    
    89   45  101 1    
    90   46  102 1    
    91   46  103 1    
    92   46  104 1    
    93   47   48 2    
    94   47   49 am   BACKBONE|DICT|INTERRES
    95   49   50 1    
    96   49  105 1    
    97   50   51 1    
    98   50   52 1    
    99   50  106 1    
   100   51  107 1    
   101   51  108 1    
   102   51  109 1    
   103   52   53 2    
   104   52   54 am   BACKBONE|DICT|INTERRES
   105   54   55 1    
   106   54  110 1    
   107   55   56 1    
   108   55   59 1    
   109   55  111 1    
   110   56   57 am   BACKBONE|DICT|INTERRES
   111   56   58 2    
   112   57  112 1    
   113   57  113 1    
   114   59   60 1    
   115   59  114 1    
   116   59  115 1    
   117   60   61 1    
   118   61  116 1    
   119   61  117 1    
@<TRIPOS>SUBSTRUCTURE
     1 UNK         1 GROUP             0       ****    0 ROOT    
