@<TRIPOS>MOLECULE
3R8
117   119    1
SMALL
USER_CHARGES


@<TRIPOS>ATOM
      1 CA         12.0281  -22.9995  -45.1896 C.3       0 UNK        -0.2013 
      2 C          13.2288  -23.7631  -45.7283 C.2       0 UNK         0.4866 
      3 O          13.3807  -23.8873  -46.9443 O.2       0 UNK        -0.5176 
      4 N          14.0775  -24.2842  -44.8341 N.am      1 UNK        -0.4884 
      5 CA         15.3065  -25.0089  -45.1714 C.3       1 UNK         0.0853 
      6 C6         15.9198  -25.7108  -43.9351 C.3       10 UNK        -0.0849 
      7 S7         14.8393  -26.9563  -43.1556 S.3       10 UNK        -0.2776 
      8 C8         15.7350  -28.5145  -43.5098 C.3       10 UNK         0.0316 
      9 C9         17.1339  -28.6700  -42.8967 C.ar      10 UNK        -0.0863 
     10 C10        17.8569  -29.8286  -43.2030 C.ar      10 UNK        -0.1009 
     11 C11        19.1441  -30.0294  -42.6959 C.ar      10 UNK        -0.0712 
     12 C12        19.7223  -29.0544  -41.8808 C.ar      10 UNK        -0.0894 
     13 C13        19.0235  -27.8842  -41.5742 C.ar      10 UNK        -0.0745 
     14 C14        17.7249  -27.7098  -42.0614 C.ar      10 UNK        -0.0972 
     15 C15        19.6815  -26.7989  -40.7343 C.3       10 UNK         0.0209 
     16 S16        21.1113  -26.0560  -41.5877 S.3       10 UNK        -0.2568 
     17 C17        20.3398  -25.2033  -43.0106 C.3       10 UNK        -0.0983 
     18 CA         20.3141  -26.0551  -44.3103 C.3       3 UNK         0.0876 
     19 N          19.4746  -25.4915  -45.3717 N.am      3 UNK        -0.4424 
     20 C          19.5405  -24.2818  -45.9521 C.2       2 UNK         0.4918 
     21 O          20.3359  -23.3933  -45.6490 O.2       2 UNK        -0.4875 
     22 CA         18.4860  -24.0076  -47.0439 C.3       2 UNK         0.0481 
     23 CB         18.9491  -24.5634  -48.4004 C.3       2 UNK        -0.1831 
     24 N          17.1879  -24.5893  -46.6844 N.am      2 UNK        -0.4498 
     25 C          16.3763  -24.0645  -45.7552 C.2       1 UNK         0.5027 
     26 O          16.5127  -22.9318  -45.2846 O.2       1 UNK        -0.4969 
     27 C          21.7195  -26.4281  -44.8289 C.2       3 UNK         0.5005 
     28 O          22.4567  -25.5721  -45.3218 O.2       3 UNK        -0.5279 
     29 N          22.0720  -27.7139  -44.6854 N.am      4 UNK        -0.4463 
     30 CA         23.3911  -28.2576  -45.0255 C.3       4 UNK         0.0283 
     31 CB         23.2797  -29.7837  -45.1852 C.3       4 UNK        -0.1875 
     32 C          24.4762  -27.9139  -43.9877 C.2       4 UNK         0.4949 
     33 O          25.6596  -28.0098  -44.3100 O.2       4 UNK        -0.5039 
     34 N          24.0561  -27.5628  -42.7610 N.am      5 UNK        -0.4663 
     35 CA         24.8671  -27.2221  -41.5803 C.3       5 UNK         0.0242 
     36 CB         25.7307  -25.9711  -41.8463 C.3       5 UNK        -0.1982 
     37 C          25.6963  -28.3881  -40.9991 C.2       5 UNK         0.5017 
     38 O          26.4869  -28.1647  -40.0806 O.2       5 UNK        -0.5012 
     39 N          25.4950  -29.6070  -41.5145 N.am      6 UNK        -0.4439 
     40 CA         26.1017  -30.8418  -41.0231 C.3       6 UNK         0.0297 
     41 CB         26.0914  -31.8854  -42.1514 C.3       6 UNK        -0.2006 
     42 C          25.3394  -31.3657  -39.7977 C.2       6 UNK         0.4892 
     43 O          24.1124  -31.2385  -39.7430 O.2       6 UNK        -0.5089 
     44 N          26.0752  -31.9756  -38.8583 N.am      7 UNK        -0.4243 
     45 CA         25.5410  -32.5997  -37.6450 C.3       7 UNK         0.0196 
     46 CB         26.7025  -33.1001  -36.7706 C.3       7 UNK        -0.2007 
     47 C          24.5792  -33.7465  -37.9923 C.2       7 UNK         0.5020 
     48 O          24.9900  -34.6983  -38.6597 O.2       7 UNK        -0.5147 
     49 N          23.3093  -33.5970  -37.5883 N.am      8 UNK        -0.4734 
     50 CA         22.1741  -34.4800  -37.9012 C.3       8 UNK         0.0238 
     51 CB         22.3181  -35.8251  -37.1569 C.3       8 UNK        -0.1912 
     52 C          21.9321  -34.6653  -39.4166 C.2       8 UNK         0.5038 
     53 O          21.4313  -35.7136  -39.8278 O.2       8 UNK        -0.5046 
     54 N          22.3118  -33.6547  -40.2134 N.am      9 UNK        -0.4200 
     55 CA         22.3215  -33.6585  -41.6856 C.3       9 UNK         0.0839 
     56 C          23.3737  -34.6221  -42.3162 C.2       9 UNK         0.5513 
     57 N          24.3545  -35.1226  -41.5726 N.am      9 UNK        -0.7519 
     58 O          23.3252  -34.8948  -43.5128 O.2       9 UNK        -0.4960 
     59 C59        20.9077  -33.8094  -42.3214 C.3       10 UNK        -0.0876 
     60 S60        19.7306  -32.5446  -41.7346 S.3       10 UNK        -0.2414 
     61 C61        19.9187  -31.2916  -43.0361 C.3       10 UNK         0.0169 
     62 H62        11.1036  -23.4622  -45.5342 H         1 UNK         0.0903 
     63 H63        12.0119  -22.9807  -44.1000 H         1 UNK         0.0903 
     64 H64        12.0478  -21.9700  -45.5462 H         1 UNK         0.0903 
     65 H65        13.9091  -24.1497  -43.8472 H         1 UNK         0.3096 
     66 H66        15.0573  -25.7643  -45.9204 H         1 UNK         0.1121 
     67 H67        16.1786  -24.9751  -43.1702 H         1 UNK         0.0849 
     68 H68        16.8591  -26.1919  -44.2109 H         1 UNK         0.0849 
     69 H69        15.1149  -29.3413  -43.1603 H         1 UNK         0.0865 
     70 H70        15.8088  -28.6272  -44.5926 H         1 UNK         0.0865 
     71 H71        17.4142  -30.5826  -43.8401 H         1 UNK         0.1346 
     72 H72        20.7207  -29.2010  -41.4910 H         1 UNK         0.1412 
     73 H73        17.1920  -26.8096  -41.7946 H         1 UNK         0.1426 
     74 H74        18.9701  -26.0140  -40.4726 H         1 UNK         0.0716 
     75 H75        20.0194  -27.2336  -39.7926 H         1 UNK         0.0716 
     76 H76        20.8828  -24.2714  -43.1758 H         1 UNK         0.0695 
     77 H77        19.3247  -24.9132  -42.7352 H         1 UNK         0.0695 
     78 H78        19.8101  -26.9890  -44.0613 H         1 UNK         0.0983 
     79 H79        18.7945  -26.1348  -45.7463 H         1 UNK         0.3095 
     80 H80        18.3738  -22.9258  -47.1451 H         1 UNK         0.0454 
     81 H81        18.2357  -24.3264  -49.1897 H         1 UNK         0.0851 
     82 H82        19.9067  -24.1288  -48.6908 H         1 UNK         0.0851 
     83 H83        19.0777  -25.6462  -48.3779 H         1 UNK         0.0851 
     84 H84        16.9791  -25.5040  -47.0592 H         1 UNK         0.2976 
     85 H85        21.4063  -28.3609  -44.2873 H         1 UNK         0.3116 
     86 H86        23.7051  -27.8365  -45.9833 H         1 UNK         0.0646 
     87 H87        22.5441  -30.0529  -45.9435 H         1 UNK         0.0847 
     88 H88        24.2331  -30.2124  -45.4979 H         1 UNK         0.0847 
     89 H89        22.9973  -30.2720  -44.2524 H         1 UNK         0.0847 
     90 H90        23.0569  -27.5036  -42.6174 H         1 UNK         0.3040 
     91 H91        24.1521  -26.9602  -40.7984 H         1 UNK         0.1015 
     92 H92        26.5229  -26.1696  -42.5686 H         1 UNK         0.0786 
     93 H93        26.2092  -25.6227  -40.9301 H         1 UNK         0.0786 
     94 H94        25.1268  -25.1472  -42.2270 H         1 UNK         0.0786 
     95 H95        24.7987  -29.6983  -42.2376 H         1 UNK         0.3172 
     96 H96        27.1384  -30.6430  -40.7423 H         1 UNK         0.0595 
     97 H97        25.0808  -32.0895  -42.5053 H         1 UNK         0.0839 
     98 H98        26.5158  -32.8327  -41.8153 H         1 UNK         0.0839 
     99 H99        26.6819  -31.5511  -43.0047 H         1 UNK         0.0839 
    100 H100       27.0700  -32.0648  -39.0063 H         1 UNK         0.2998 
    101 H101       24.9996  -31.8326  -37.0870 H         1 UNK         0.0822 
    102 H102       26.3296  -33.5594  -35.8540 H         1 UNK         0.0787 
    103 H103       27.3048  -33.8486  -37.2877 H         1 UNK         0.0787 
    104 H104       27.3611  -32.2823  -36.4775 H         1 UNK         0.0787 
    105 H105       23.0734  -32.7585  -37.0740 H         1 UNK         0.3055 
    106 H106       21.2804  -33.9843  -37.5184 H         1 UNK         0.1106 
    107 H107       21.4203  -36.4343  -37.2684 H         1 UNK         0.0828 
    108 H108       23.1562  -36.4099  -37.5375 H         1 UNK         0.0828 
    109 H109       22.4724  -35.6736  -36.0886 H         1 UNK         0.0828 
    110 H110       22.7452  -32.8422  -39.7891 H         1 UNK         0.2931 
    111 H111       22.6794  -32.6648  -41.9564 H         1 UNK         0.0412 
    112 H112       25.0287  -35.7355  -42.0024 H         1 UNK         0.3472 
    113 H113       24.4256  -34.9167  -40.5817 H         1 UNK         0.3472 
    114 H114       20.4922  -34.7942  -42.1037 H         1 UNK         0.0970 
    115 H115       20.9655  -33.7510  -43.4098 H         1 UNK         0.0970 
    116 H116       19.5804  -31.7024  -43.9886 H         1 UNK         0.0612 
    117 H117       20.9762  -31.0544  -43.1565 H         1 UNK         0.0612 
@<TRIPOS>BOND
     1    1    2 1    
     2    1   62 1    
     3    1   63 1    
     4    1   64 1    
     5    2    3 2    
     6    2    4 am   BACKBONE|DICT|INTERRES
     7    4    5 1    
     8    4   65 1    
     9    5    6 1    
    10    5   25 1    
    11    5   66 1    
    12    6    7 1    
    13    6   67 1    
    14    6   68 1    
    15    7    8 1    
    16    8    9 1    
    17    8   69 1    
    18    8   70 1    
    19    9   10 ar   
    20    9   14 ar   
    21   10   11 ar   
    22   10   71 1    
    23   11   12 ar   
    24   11   61 1    
    25   12   13 ar   
    26   12   72 1    
    27   13   14 ar   
    28   13   15 1    
    29   14   73 1    
    30   15   16 1    
    31   15   74 1    
    32   15   75 1    
    33   16   17 1    
    34   17   18 1    
    35   17   76 1    
    36   17   77 1    
    37   18   19 1    
    38   18   27 1    
    39   18   78 1    
    40   19   20 am   BACKBONE|DICT|INTERRES
    41   19   79 1    
    42   20   21 2    
    43   20   22 1    
    44   22   23 1    
    45   22   24 1    
    46   22   80 1    
    47   23   81 1    
    48   23   82 1    
    49   23   83 1    
    50   24   25 am   BACKBONE|DICT|INTERRES
    51   24   84 1    
    52   25   26 2    
    53   27   28 2    
    54   27   29 am   BACKBONE|DICT|INTERRES
    55   29   30 1    
    56   29   85 1    
    57   30   31 1    
    58   30   32 1    
    59   30   86 1    
    60   31   87 1    
    61   31   88 1    
    62   31   89 1    
    63   32   33 2    
    64   32   34 am   BACKBONE|DICT|INTERRES
    65   34   35 1    
    66   34   90 1    
    67   35   36 1    
    68   35   37 1    
    69   35   91 1    
    70   36   92 1    
    71   36   93 1    
    72   36   94 1    
    73   37   38 2    
    74   37   39 am   BACKBONE|DICT|INTERRES
    75   39   40 1    
    76   39   95 1    
    77   40   41 1    
    78   40   42 1    
    79   40   96 1    
    80   41   97 1    
    81   41   98 1    
    82   41   99 1    
    83   42   43 2    
    84   42   44 am   BACKBONE|DICT|INTERRES
    85   44   45 1    
    86   44  100 1    
    87   45   46 1    
    88   45   47 1    
    89   45  101 1    
    90   46  102 1    
    91   46  103 1    
    92   46  104 1    
    93   47   48 2    
    94   47   49 am   BACKBONE|DICT|INTERRES
    95   49   50 1    
    96   49  105 1    
    97   50   51 1    
    98   50   52 1    
    99   50  106 1    
   100   51  107 1    
   101   51  108 1    
   102   51  109 1    
   103   52   53 2    
   104   52   54 am   BACKBONE|DICT|INTERRES
   105   54   55 1    
   106   54  110 1    
   107   55   56 1    
   108   55   59 1    
   109   55  111 1    
   110   56   57 am   BACKBONE|DICT|INTERRES
   111   56   58 2    
   112   57  112 1    
   113   57  113 1    
   114   59   60 1    
   115   59  114 1    
   116   59  115 1    
   117   60   61 1    
   118   61  116 1    
   119   61  117 1    
@<TRIPOS>SUBSTRUCTURE
     1 UNK         1 GROUP             0       ****    0 ROOT    
