@<TRIPOS>MOLECULE
3R8
117   119    1
SMALL
USER_CHARGES


@<TRIPOS>ATOM
      1 CA         19.2791  -23.5759  -49.1995 C.3       0 UNK        -0.2013 
      2 C          18.0955  -23.0861  -48.3694 C.2       0 UNK         0.4866 
      3 O          17.2942  -22.2961  -48.8653 O.2       0 UNK        -0.5176 
      4 N          17.9421  -23.5154  -47.1119 N.am      1 UNK        -0.4884 
      5 CA         18.8236  -24.4119  -46.3662 C.3       1 UNK         0.0853 
      6 C6         18.5032  -25.9065  -46.6470 C.3       10 UNK        -0.0849 
      7 S7         19.9704  -26.9796  -46.4827 S.3       10 UNK        -0.2776 
      8 C8         19.3654  -28.5475  -47.1994 C.3       10 UNK         0.0316 
      9 C9         18.7216  -29.4321  -46.1407 C.ar      10 UNK        -0.0863 
     10 C10        19.4335  -30.4970  -45.5790 C.ar      10 UNK        -0.1009 
     11 C11        18.8692  -31.2758  -44.5628 C.ar      10 UNK        -0.0712 
     12 C12        17.5895  -30.9647  -44.0882 C.ar      10 UNK        -0.0894 
     13 C13        16.8744  -29.8918  -44.6351 C.ar      10 UNK        -0.0745 
     14 C14        17.4258  -29.1645  -45.6938 C.ar      10 UNK        -0.0972 
     15 C15        15.5611  -29.4319  -44.0169 C.3       10 UNK         0.0209 
     16 S16        15.7352  -27.7783  -43.2469 S.3       10 UNK        -0.2568 
     17 C17        16.9390  -28.1017  -41.9124 C.3       10 UNK        -0.0983 
     18 CA         18.4117  -27.9412  -42.3893 C.3       3 UNK         0.0876 
     19 N          18.8053  -26.5891  -42.7766 N.am      3 UNK        -0.4424 
     20 C          19.0298  -25.5434  -41.9718 C.2       2 UNK         0.4918 
     21 O          18.7848  -25.5372  -40.7650 O.2       2 UNK        -0.4875 
     22 CA         19.6887  -24.3064  -42.6168 C.3       2 UNK         0.0481 
     23 CB         21.1309  -24.1523  -42.1037 C.3       2 UNK        -0.1831 
     24 N          19.7127  -24.3746  -44.0838 N.am      2 UNK        -0.4498 
     25 C          18.6703  -24.0806  -44.8717 C.2       1 UNK         0.5027 
     26 O          17.6061  -23.6117  -44.4577 O.2       1 UNK        -0.4969 
     27 C          19.4767  -28.5793  -41.4844 C.2       3 UNK         0.5005 
     28 O          20.6333  -28.6003  -41.8981 O.2       3 UNK        -0.5279 
     29 N          19.0913  -29.0961  -40.3082 N.am      4 UNK        -0.4463 
     30 CA         19.8641  -30.0075  -39.4515 C.3       4 UNK         0.0283 
     31 CB         19.0859  -30.2485  -38.1480 C.3       4 UNK        -0.1875 
     32 C          21.3229  -29.6244  -39.1327 C.2       4 UNK         0.4949 
     33 O          22.1184  -30.5174  -38.8415 O.2       4 UNK        -0.5039 
     34 N          21.6522  -28.3284  -39.1873 N.am      5 UNK        -0.4663 
     35 CA         23.0114  -27.8118  -39.0282 C.3       5 UNK         0.0242 
     36 CB         22.9382  -26.3097  -38.7101 C.3       5 UNK        -0.1982 
     37 C          23.9159  -28.0517  -40.2528 C.2       5 UNK         0.5017 
     38 O          25.1329  -28.1276  -40.0779 O.2       5 UNK        -0.5012 
     39 N          23.3364  -28.1519  -41.4597 N.am      6 UNK        -0.4439 
     40 CA         24.0497  -28.2992  -42.7322 C.3       6 UNK         0.0297 
     41 CB         23.0726  -28.0943  -43.9043 C.3       6 UNK        -0.2006 
     42 C          24.7415  -29.6671  -42.8130 C.2       6 UNK         0.4892 
     43 O          24.0677  -30.6817  -42.9906 O.2       6 UNK        -0.5089 
     44 N          26.0672  -29.6694  -42.6066 N.am      7 UNK        -0.4243 
     45 CA         26.9376  -30.8493  -42.4852 C.3       7 UNK         0.0196 
     46 CB         27.0653  -31.5717  -43.8436 C.3       7 UNK        -0.2007 
     47 C          26.5224  -31.8058  -41.3444 C.2       7 UNK         0.5020 
     48 O          26.8410  -32.9944  -41.4010 O.2       7 UNK        -0.5147 
     49 N          25.8143  -31.2676  -40.3380 N.am      8 UNK        -0.4734 
     50 CA         25.2016  -31.9661  -39.2032 C.3       8 UNK         0.0238 
     51 CB         26.2896  -32.4706  -38.2306 C.3       8 UNK        -0.1912 
     52 C          24.2078  -33.0727  -39.6239 C.2       8 UNK         0.5038 
     53 O          24.2019  -34.1423  -39.0101 O.2       8 UNK        -0.5046 
     54 N          23.3943  -32.8139  -40.6616 N.am      9 UNK        -0.4200 
     55 CA         22.3763  -33.7532  -41.1671 C.3       9 UNK         0.0839 
     56 C          21.1850  -34.0490  -40.2071 C.2       9 UNK         0.5513 
     57 N          20.9915  -33.2983  -39.1297 N.am      9 UNK        -0.7519 
     58 O          20.4348  -34.9942  -40.4376 O.2       9 UNK        -0.4960 
     59 C59        21.9145  -33.4072  -42.6088 C.3       10 UNK        -0.0876 
     60 S60        20.8875  -31.9015  -42.7602 S.3       10 UNK        -0.2414 
     61 C61        19.6524  -32.4462  -43.9821 C.3       10 UNK         0.0169 
     62 H62        20.1981  -23.0881  -48.8760 H         1 UNK         0.0903 
     63 H63        19.4102  -24.6542  -49.1224 H         1 UNK         0.0903 
     64 H64        19.1288  -23.3397  -50.2528 H         1 UNK         0.0903 
     65 H65        17.1808  -23.1538  -46.5487 H         1 UNK         0.3096 
     66 H66        19.8555  -24.1878  -46.6455 H         1 UNK         0.1121 
     67 H67        18.1264  -26.0283  -47.6634 H         1 UNK         0.0849 
     68 H68        17.7033  -26.2673  -45.9986 H         1 UNK         0.0849 
     69 H69        18.6600  -28.3522  -48.0083 H         1 UNK         0.0865 
     70 H70        20.2089  -29.0669  -47.6567 H         1 UNK         0.0865 
     71 H71        20.4367  -30.7145  -45.9202 H         1 UNK         0.1346 
     72 H72        17.1684  -31.5346  -43.2712 H         1 UNK         0.1412 
     73 H73        16.8694  -28.3396  -46.1150 H         1 UNK         0.1426 
     74 H74        15.2056  -30.1449  -43.2715 H         1 UNK         0.0716 
     75 H75        14.7951  -29.3856  -44.7921 H         1 UNK         0.0716 
     76 H76        16.7479  -29.1127  -41.5485 H         1 UNK         0.0695 
     77 H77        16.7273  -27.4273  -41.0812 H         1 UNK         0.0695 
     78 H78        18.5339  -28.5036  -43.3078 H         1 UNK         0.0983 
     79 H79        19.0773  -26.4936  -43.7432 H         1 UNK         0.3095 
     80 H80        19.1200  -23.4269  -42.3077 H         1 UNK         0.0454 
     81 H81        21.7444  -25.0204  -42.3492 H         1 UNK         0.0851 
     82 H82        21.1483  -24.0393  -41.0189 H         1 UNK         0.0851 
     83 H83        21.6114  -23.2694  -42.5253 H         1 UNK         0.0851 
     84 H84        20.5507  -24.7532  -44.5041 H         1 UNK         0.2976 
     85 H85        18.1259  -28.9674  -40.0427 H         1 UNK         0.3116 
     86 H86        19.9086  -30.9519  -39.9949 H         1 UNK         0.0646 
     87 H87        18.1054  -30.6834  -38.3424 H         1 UNK         0.0847 
     88 H88        19.6181  -30.9419  -37.4949 H         1 UNK         0.0847 
     89 H89        18.9411  -29.3230  -37.5895 H         1 UNK         0.0847 
     90 H90        20.9357  -27.6693  -39.4570 H         1 UNK         0.3040 
     91 H91        23.4747  -28.3187  -38.1784 H         1 UNK         0.1015 
     92 H92        22.4694  -25.7483  -39.5193 H         1 UNK         0.0786 
     93 H93        23.9353  -25.8933  -38.5590 H         1 UNK         0.0786 
     94 H94        22.3699  -26.1241  -37.7985 H         1 UNK         0.0786 
     95 H95        22.3184  -28.2129  -41.5152 H         1 UNK         0.3172 
     96 H96        24.8050  -27.5126  -42.7879 H         1 UNK         0.0595 
     97 H97        22.3013  -28.8659  -43.9296 H         1 UNK         0.0839 
     98 H98        23.5970  -28.1326  -44.8596 H         1 UNK         0.0839 
     99 H99        22.5726  -27.1278  -43.8449 H         1 UNK         0.0839 
    100 H100       26.5128  -28.7814  -42.4173 H         1 UNK         0.2998 
    101 H101       27.9258  -30.4736  -42.2157 H         1 UNK         0.0822 
    102 H102       27.8185  -32.3594  -43.8003 H         1 UNK         0.0787 
    103 H103       26.1257  -32.0373  -44.1432 H         1 UNK         0.0787 
    104 H104       27.3653  -30.8828  -44.6331 H         1 UNK         0.0787 
    105 H105       25.6206  -30.2737  -40.3911 H         1 UNK         0.3055 
    106 H106       24.6120  -31.2207  -38.6684 H         1 UNK         0.1106 
    107 H107       25.8441  -32.8764  -37.3215 H         1 UNK         0.0828 
    108 H108       26.8960  -33.2602  -38.6755 H         1 UNK         0.0828 
    109 H109       26.9575  -31.6640  -37.9288 H         1 UNK         0.0828 
    110 H110       23.4589  -31.9250  -41.1419 H         1 UNK         0.2931 
    111 H111       22.8950  -34.7100  -41.2552 H         1 UNK         0.0412 
    112 H112       20.2296  -33.5147  -38.5079 H         1 UNK         0.3472 
    113 H113       21.5797  -32.4913  -38.9580 H         1 UNK         0.3472 
    114 H114       21.3674  -34.2555  -43.0238 H         1 UNK         0.0970 
    115 H115       22.7863  -33.2824  -43.2532 H         1 UNK         0.0970 
    116 H116       18.9788  -33.1656  -43.5136 H         1 UNK         0.0612 
    117 H117       20.1559  -32.9753  -44.7928 H         1 UNK         0.0612 
@<TRIPOS>BOND
     1    1    2 1    
     2    1   62 1    
     3    1   63 1    
     4    1   64 1    
     5    2    3 2    
     6    2    4 am   BACKBONE|DICT|INTERRES
     7    4    5 1    
     8    4   65 1    
     9    5    6 1    
    10    5   25 1    
    11    5   66 1    
    12    6    7 1    
    13    6   67 1    
    14    6   68 1    
    15    7    8 1    
    16    8    9 1    
    17    8   69 1    
    18    8   70 1    
    19    9   10 ar   
    20    9   14 ar   
    21   10   11 ar   
    22   10   71 1    
    23   11   12 ar   
    24   11   61 1    
    25   12   13 ar   
    26   12   72 1    
    27   13   14 ar   
    28   13   15 1    
    29   14   73 1    
    30   15   16 1    
    31   15   74 1    
    32   15   75 1    
    33   16   17 1    
    34   17   18 1    
    35   17   76 1    
    36   17   77 1    
    37   18   19 1    
    38   18   27 1    
    39   18   78 1    
    40   19   20 am   BACKBONE|DICT|INTERRES
    41   19   79 1    
    42   20   21 2    
    43   20   22 1    
    44   22   23 1    
    45   22   24 1    
    46   22   80 1    
    47   23   81 1    
    48   23   82 1    
    49   23   83 1    
    50   24   25 am   BACKBONE|DICT|INTERRES
    51   24   84 1    
    52   25   26 2    
    53   27   28 2    
    54   27   29 am   BACKBONE|DICT|INTERRES
    55   29   30 1    
    56   29   85 1    
    57   30   31 1    
    58   30   32 1    
    59   30   86 1    
    60   31   87 1    
    61   31   88 1    
    62   31   89 1    
    63   32   33 2    
    64   32   34 am   BACKBONE|DICT|INTERRES
    65   34   35 1    
    66   34   90 1    
    67   35   36 1    
    68   35   37 1    
    69   35   91 1    
    70   36   92 1    
    71   36   93 1    
    72   36   94 1    
    73   37   38 2    
    74   37   39 am   BACKBONE|DICT|INTERRES
    75   39   40 1    
    76   39   95 1    
    77   40   41 1    
    78   40   42 1    
    79   40   96 1    
    80   41   97 1    
    81   41   98 1    
    82   41   99 1    
    83   42   43 2    
    84   42   44 am   BACKBONE|DICT|INTERRES
    85   44   45 1    
    86   44  100 1    
    87   45   46 1    
    88   45   47 1    
    89   45  101 1    
    90   46  102 1    
    91   46  103 1    
    92   46  104 1    
    93   47   48 2    
    94   47   49 am   BACKBONE|DICT|INTERRES
    95   49   50 1    
    96   49  105 1    
    97   50   51 1    
    98   50   52 1    
    99   50  106 1    
   100   51  107 1    
   101   51  108 1    
   102   51  109 1    
   103   52   53 2    
   104   52   54 am   BACKBONE|DICT|INTERRES
   105   54   55 1    
   106   54  110 1    
   107   55   56 1    
   108   55   59 1    
   109   55  111 1    
   110   56   57 am   BACKBONE|DICT|INTERRES
   111   56   58 2    
   112   57  112 1    
   113   57  113 1    
   114   59   60 1    
   115   59  114 1    
   116   59  115 1    
   117   60   61 1    
   118   61  116 1    
   119   61  117 1    
@<TRIPOS>SUBSTRUCTURE
     1 UNK         1 GROUP             0       ****    0 ROOT    
