@<TRIPOS>MOLECULE
3R8
117   119    1
SMALL
USER_CHARGES


@<TRIPOS>ATOM
      1 CA         19.9012  -23.5185  -40.7017 C.3       0 UNK        -0.2013 
      2 C          20.7754  -24.7312  -41.0057 C.2       0 UNK         0.4866 
      3 O          21.8891  -24.8158  -40.4949 O.2       0 UNK        -0.5176 
      4 N          20.3257  -25.6922  -41.8225 N.am      1 UNK        -0.4884 
      5 CA         19.1036  -25.6653  -42.6340 C.3       1 UNK         0.0853 
      6 C6         18.6059  -27.1135  -42.8876 C.3       10 UNK        -0.0849 
      7 S7         16.8228  -27.2041  -43.2655 S.3       10 UNK        -0.2776 
      8 C8         16.4514  -28.9391  -42.8474 C.3       10 UNK         0.0316 
      9 C9         17.2943  -29.9280  -43.6440 C.ar      10 UNK        -0.0863 
     10 C10        18.0828  -30.8737  -42.9787 C.ar      10 UNK        -0.1009 
     11 C11        18.8446  -31.7956  -43.7028 C.ar      10 UNK        -0.0712 
     12 C12        18.8291  -31.7543  -45.0995 C.ar      10 UNK        -0.0894 
     13 C13        18.0597  -30.8051  -45.7766 C.ar      10 UNK        -0.0745 
     14 C14        17.2777  -29.9075  -45.0436 C.ar      10 UNK        -0.0972 
     15 C15        18.0934  -30.7489  -47.2989 C.3       10 UNK         0.0209 
     16 S16        18.7557  -29.1752  -47.9438 S.3       10 UNK        -0.2568 
     17 C17        20.3480  -29.0026  -47.0575 C.3       10 UNK        -0.0983 
     18 CA         20.8729  -27.5416  -47.0369 C.3       3 UNK         0.0876 
     19 N          19.8355  -26.6077  -46.5899 N.am      3 UNK        -0.4424 
     20 C          19.6596  -25.3511  -47.0180 C.2       2 UNK         0.4918 
     21 O          20.3306  -24.8219  -47.9033 O.2       2 UNK        -0.4875 
     22 CA         18.5754  -24.5334  -46.2845 C.3       2 UNK         0.0481 
     23 CB         17.2316  -24.6426  -47.0213 C.3       2 UNK        -0.1831 
     24 N          18.4011  -24.9536  -44.8870 N.am      2 UNK        -0.4498 
     25 C          19.3619  -24.9000  -43.9541 C.2       1 UNK         0.5027 
     26 O          20.4426  -24.3383  -44.1480 O.2       1 UNK        -0.4969 
     27 C          22.1579  -27.4317  -46.1761 C.2       3 UNK         0.5005 
     28 O          23.0644  -28.2464  -46.3569 O.2       3 UNK        -0.5279 
     29 N          22.2186  -26.4530  -45.2551 N.am      4 UNK        -0.4463 
     30 CA         23.2617  -26.2240  -44.2499 C.3       4 UNK         0.0283 
     31 CB         24.6156  -25.8804  -44.9143 C.3       4 UNK        -0.1875 
     32 C          23.3142  -27.3696  -43.2192 C.2       4 UNK         0.4949 
     33 O          22.2625  -27.7522  -42.6970 O.2       4 UNK        -0.5039 
     34 N          24.5271  -27.8555  -42.9092 N.am      5 UNK        -0.4663 
     35 CA         24.8495  -28.9978  -42.0376 C.3       5 UNK         0.0242 
     36 CB         24.3721  -30.3086  -42.6974 C.3       5 UNK        -0.1982 
     37 C          24.3431  -28.8740  -40.5858 C.2       5 UNK         0.5017 
     38 O          24.1564  -29.8944  -39.9224 O.2       5 UNK        -0.5012 
     39 N          24.0774  -27.6398  -40.1277 N.am      6 UNK        -0.4439 
     40 CA         23.4549  -27.2858  -38.8413 C.3       6 UNK         0.0297 
     41 CB         24.4032  -27.6246  -37.6708 C.3       6 UNK        -0.2006 
     42 C          22.0463  -27.8933  -38.6399 C.2       6 UNK         0.4892 
     43 O          21.5887  -27.9838  -37.4997 O.2       6 UNK        -0.5089 
     44 N          21.4100  -28.3371  -39.7388 N.am      7 UNK        -0.4243 
     45 CA         20.1989  -29.1662  -39.8009 C.3       7 UNK         0.0196 
     46 CB         18.9763  -28.3988  -39.2524 C.3       7 UNK        -0.2007 
     47 C          20.3636  -30.5543  -39.1402 C.2       7 UNK         0.5020 
     48 O          19.3607  -31.1881  -38.8099 O.2       7 UNK        -0.5147 
     49 N          21.6099  -31.0116  -38.9627 N.am      8 UNK        -0.4734 
     50 CA         21.9807  -32.2489  -38.2811 C.3       8 UNK         0.0238 
     51 CB         22.6702  -31.8926  -36.9504 C.3       8 UNK        -0.1912 
     52 C          22.8772  -33.0681  -39.2177 C.2       8 UNK         0.5038 
     53 O          24.0550  -33.2836  -38.9252 O.2       8 UNK        -0.5046 
     54 N          22.2969  -33.4771  -40.3518 N.am      9 UNK        -0.4200 
     55 CA         22.9717  -34.1930  -41.4468 C.3       9 UNK         0.0839 
     56 C          23.5077  -35.6117  -41.0921 C.2       9 UNK         0.5513 
     57 N          23.0582  -36.2442  -40.0148 N.am      9 UNK        -0.7519 
     58 O          24.3447  -36.1476  -41.8138 O.2       9 UNK        -0.4960 
     59 C59        22.0854  -34.2625  -42.7175 C.3       10 UNK        -0.0876 
     60 S60        21.4466  -32.6393  -43.2603 S.3       10 UNK        -0.2414 
     61 C61        19.6605  -32.8631  -42.9906 C.3       10 UNK         0.0169 
     62 H62        20.4208  -22.8329  -40.0325 H         1 UNK         0.0903 
     63 H63        18.9761  -23.8210  -40.2120 H         1 UNK         0.0903 
     64 H64        19.6600  -22.9714  -41.6124 H         1 UNK         0.0903 
     65 H65        20.9574  -26.4563  -42.0422 H         1 UNK         0.3096 
     66 H66        18.3253  -25.1274  -42.0901 H         1 UNK         0.1121 
     67 H67        19.1807  -27.6106  -43.6721 H         1 UNK         0.0849 
     68 H68        18.7641  -27.7153  -41.9946 H         1 UNK         0.0849 
     69 H69        16.5909  -29.0811  -41.7745 H         1 UNK         0.0865 
     70 H70        15.3967  -29.1328  -43.0469 H         1 UNK         0.0865 
     71 H71        18.0923  -30.9036  -41.8974 H         1 UNK         0.1346 
     72 H72        19.4286  -32.4610  -45.6573 H         1 UNK         0.1412 
     73 H73        16.6746  -29.1757  -45.5640 H         1 UNK         0.1426 
     74 H74        18.6912  -31.5671  -47.7036 H         1 UNK         0.0716 
     75 H75        17.0824  -30.8899  -47.6831 H         1 UNK         0.0716 
     76 H76        21.0727  -29.6650  -47.5345 H         1 UNK         0.0695 
     77 H77        20.2352  -29.3625  -46.0340 H         1 UNK         0.0695 
     78 H78        21.1613  -27.2794  -48.0572 H         1 UNK         0.0983 
     79 H79        19.2006  -26.9656  -45.8929 H         1 UNK         0.3095 
     80 H80        18.8864  -23.4867  -46.2865 H         1 UNK         0.0454 
     81 H81        16.4702  -24.0178  -46.5542 H         1 UNK         0.0851 
     82 H82        16.8611  -25.6685  -47.0390 H         1 UNK         0.0851 
     83 H83        17.3275  -24.3135  -48.0570 H         1 UNK         0.0851 
     84 H84        17.5420  -25.4388  -44.6573 H         1 UNK         0.2976 
     85 H85        21.4295  -25.8219  -45.1784 H         1 UNK         0.3116 
     86 H86        22.9473  -25.3421  -43.6900 H         1 UNK         0.0646 
     87 H87        24.5008  -25.0687  -45.6328 H         1 UNK         0.0847 
     88 H88        25.3460  -25.5444  -44.1774 H         1 UNK         0.0847 
     89 H89        25.0444  -26.7299  -45.4470 H         1 UNK         0.0847 
     90 H90        25.3205  -27.4388  -43.3770 H         1 UNK         0.3040 
     91 H91        25.9378  -29.0383  -41.9689 H         1 UNK         0.1015 
     92 H92        24.7552  -30.4067  -43.7131 H         1 UNK         0.0786 
     93 H93        23.2840  -30.3550  -42.7457 H         1 UNK         0.0786 
     94 H94        24.7104  -31.1826  -42.1394 H         1 UNK         0.0786 
     95 H95        24.2338  -26.8674  -40.7607 H         1 UNK         0.3172 
     96 H96        23.3246  -26.2040  -38.8488 H         1 UNK         0.0595 
     97 H97        25.3931  -27.1949  -37.8235 H         1 UNK         0.0839 
     98 H98        24.5201  -28.7011  -37.5419 H         1 UNK         0.0839 
     99 H99        24.0219  -27.2265  -36.7298 H         1 UNK         0.0839 
    100 H100       21.8769  -28.1960  -40.6284 H         1 UNK         0.2998 
    101 H101       20.0291  -29.3611  -40.8605 H         1 UNK         0.0822 
    102 H102       18.9151  -27.3912  -39.6629 H         1 UNK         0.0787 
    103 H103       18.0480  -28.9119  -39.5058 H         1 UNK         0.0787 
    104 H104       19.0106  -28.3109  -38.1662 H         1 UNK         0.0787 
    105 H105       22.3941  -30.4646  -39.3119 H         1 UNK         0.3055 
    106 H106       21.0994  -32.8552  -38.0599 H         1 UNK         0.1106 
    107 H107       22.0019  -31.3304  -36.2980 H         1 UNK         0.0828 
    108 H108       22.9715  -32.7918  -36.4116 H         1 UNK         0.0828 
    109 H109       23.5647  -31.2886  -37.1099 H         1 UNK         0.0828 
    110 H110       21.3334  -33.2289  -40.5158 H         1 UNK         0.2931 
    111 H111       23.8508  -33.5971  -41.6998 H         1 UNK         0.0412 
    112 H112       22.3736  -35.8122  -39.4155 H         1 UNK         0.3472 
    113 H113       23.4144  -37.1615  -39.7955 H         1 UNK         0.3472 
    114 H114       22.6572  -34.6781  -43.5496 H         1 UNK         0.0970 
    115 H115       21.2541  -34.9518  -42.5585 H         1 UNK         0.0970 
    116 H116       19.3518  -33.8393  -43.3674 H         1 UNK         0.0612 
    117 H117       19.4568  -32.8619  -41.9187 H         1 UNK         0.0612 
@<TRIPOS>BOND
     1    1    2 1    
     2    1   62 1    
     3    1   63 1    
     4    1   64 1    
     5    2    3 2    
     6    2    4 am   BACKBONE|DICT|INTERRES
     7    4    5 1    
     8    4   65 1    
     9    5    6 1    
    10    5   25 1    
    11    5   66 1    
    12    6    7 1    
    13    6   67 1    
    14    6   68 1    
    15    7    8 1    
    16    8    9 1    
    17    8   69 1    
    18    8   70 1    
    19    9   10 ar   
    20    9   14 ar   
    21   10   11 ar   
    22   10   71 1    
    23   11   12 ar   
    24   11   61 1    
    25   12   13 ar   
    26   12   72 1    
    27   13   14 ar   
    28   13   15 1    
    29   14   73 1    
    30   15   16 1    
    31   15   74 1    
    32   15   75 1    
    33   16   17 1    
    34   17   18 1    
    35   17   76 1    
    36   17   77 1    
    37   18   19 1    
    38   18   27 1    
    39   18   78 1    
    40   19   20 am   BACKBONE|DICT|INTERRES
    41   19   79 1    
    42   20   21 2    
    43   20   22 1    
    44   22   23 1    
    45   22   24 1    
    46   22   80 1    
    47   23   81 1    
    48   23   82 1    
    49   23   83 1    
    50   24   25 am   BACKBONE|DICT|INTERRES
    51   24   84 1    
    52   25   26 2    
    53   27   28 2    
    54   27   29 am   BACKBONE|DICT|INTERRES
    55   29   30 1    
    56   29   85 1    
    57   30   31 1    
    58   30   32 1    
    59   30   86 1    
    60   31   87 1    
    61   31   88 1    
    62   31   89 1    
    63   32   33 2    
    64   32   34 am   BACKBONE|DICT|INTERRES
    65   34   35 1    
    66   34   90 1    
    67   35   36 1    
    68   35   37 1    
    69   35   91 1    
    70   36   92 1    
    71   36   93 1    
    72   36   94 1    
    73   37   38 2    
    74   37   39 am   BACKBONE|DICT|INTERRES
    75   39   40 1    
    76   39   95 1    
    77   40   41 1    
    78   40   42 1    
    79   40   96 1    
    80   41   97 1    
    81   41   98 1    
    82   41   99 1    
    83   42   43 2    
    84   42   44 am   BACKBONE|DICT|INTERRES
    85   44   45 1    
    86   44  100 1    
    87   45   46 1    
    88   45   47 1    
    89   45  101 1    
    90   46  102 1    
    91   46  103 1    
    92   46  104 1    
    93   47   48 2    
    94   47   49 am   BACKBONE|DICT|INTERRES
    95   49   50 1    
    96   49  105 1    
    97   50   51 1    
    98   50   52 1    
    99   50  106 1    
   100   51  107 1    
   101   51  108 1    
   102   51  109 1    
   103   52   53 2    
   104   52   54 am   BACKBONE|DICT|INTERRES
   105   54   55 1    
   106   54  110 1    
   107   55   56 1    
   108   55   59 1    
   109   55  111 1    
   110   56   57 am   BACKBONE|DICT|INTERRES
   111   56   58 2    
   112   57  112 1    
   113   57  113 1    
   114   59   60 1    
   115   59  114 1    
   116   59  115 1    
   117   60   61 1    
   118   61  116 1    
   119   61  117 1    
@<TRIPOS>SUBSTRUCTURE
     1 UNK         1 GROUP             0       ****    0 ROOT    
