@<TRIPOS>MOLECULE
3R8
117   119    1
SMALL
USER_CHARGES


@<TRIPOS>ATOM
      1 CA         15.1671  -22.8743  -45.7525 C.3       0 UNK        -0.2013 
      2 C          16.3694  -23.6822  -46.2173 C.2       0 UNK         0.4866 
      3 O          17.1067  -23.2338  -47.0953 O.2       0 UNK        -0.5176 
      4 N          16.5742  -24.8711  -45.6351 N.am      1 UNK        -0.4884 
      5 CA         17.6646  -25.7954  -45.9799 C.3       1 UNK         0.0853 
      6 C6         17.4326  -27.2138  -45.4048 C.3       10 UNK        -0.0849 
      7 S7         15.7999  -27.9401  -45.7726 S.3       10 UNK        -0.2776 
      8 C8         16.1949  -29.7214  -45.8868 C.3       10 UNK         0.0316 
      9 C9         17.1833  -30.1910  -44.8221 C.ar      10 UNK        -0.0863 
     10 C10        18.4099  -30.7416  -45.2049 C.ar      10 UNK        -0.1009 
     11 C11        19.3329  -31.1645  -44.2447 C.ar      10 UNK        -0.0712 
     12 C12        19.0274  -31.0219  -42.8877 C.ar      10 UNK        -0.0894 
     13 C13        17.8065  -30.4653  -42.4890 C.ar      10 UNK        -0.0745 
     14 C14        16.8849  -30.0629  -43.4617 C.ar      10 UNK        -0.0972 
     15 C15        17.4593  -30.3293  -41.0111 C.3       10 UNK         0.0209 
     16 S16        18.7165  -29.4242  -40.0493 S.3       10 UNK        -0.2568 
     17 C17        18.6107  -27.7265  -40.7181 C.3       10 UNK        -0.0983 
     18 CA         19.9453  -27.2240  -41.3289 C.3       3 UNK         0.0876 
     19 N          19.7392  -26.0075  -42.1298 N.am      3 UNK        -0.4424 
     20 C          20.6819  -25.3405  -42.8156 C.2       2 UNK         0.4918 
     21 O          21.8708  -25.6623  -42.8337 O.2       2 UNK        -0.4875 
     22 CA         20.1950  -24.1086  -43.6034 C.3       2 UNK         0.0481 
     23 CB         21.3200  -23.4071  -44.3944 C.3       2 UNK        -0.1831 
     24 N          19.0536  -24.4541  -44.4585 N.am      2 UNK        -0.4498 
     25 C          19.0468  -25.3153  -45.4899 C.2       1 UNK         0.5027 
     26 O          20.0601  -25.7895  -46.0046 O.2       1 UNK        -0.4969 
     27 C          21.0497  -27.0592  -40.2577 C.2       3 UNK         0.5005 
     28 O          21.8307  -27.9850  -40.0436 O.2       3 UNK        -0.5279 
     29 N          21.1438  -25.8643  -39.6543 N.am      4 UNK        -0.4463 
     30 CA         22.1838  -25.4967  -38.6871 C.3       4 UNK         0.0283 
     31 CB         21.8617  -24.1145  -38.0966 C.3       4 UNK        -0.1875 
     32 C          23.6145  -25.5133  -39.2619 C.2       4 UNK         0.4949 
     33 O          24.5562  -25.7596  -38.5082 O.2       4 UNK        -0.5039 
     34 N          23.7551  -25.2578  -40.5701 N.am      5 UNK        -0.4663 
     35 CA         25.0247  -25.3352  -41.2941 C.3       5 UNK         0.0242 
     36 CB         25.0526  -24.2642  -42.3976 C.3       5 UNK        -0.1982 
     37 C          25.2437  -26.7340  -41.8906 C.2       5 UNK         0.5017 
     38 O          26.3673  -27.2358  -41.8469 O.2       5 UNK        -0.5012 
     39 N          24.1761  -27.3327  -42.4402 N.am      6 UNK        -0.4439 
     40 CA         24.1917  -28.6526  -43.0784 C.3       6 UNK         0.0297 
     41 CB         22.8840  -28.8601  -43.8586 C.3       6 UNK        -0.2006 
     42 C          24.4228  -29.8174  -42.0976 C.2       6 UNK         0.4892 
     43 O          25.0336  -30.8116  -42.4921 O.2       6 UNK        -0.5089 
     44 N          23.9428  -29.6686  -40.8539 N.am      7 UNK        -0.4243 
     45 CA         23.9817  -30.6413  -39.7586 C.3       7 UNK         0.0196 
     46 CB         25.4369  -30.9370  -39.3260 C.3       7 UNK        -0.2007 
     47 C          23.1386  -31.8930  -40.0754 C.2       7 UNK         0.5020 
     48 O          22.0743  -31.7687  -40.6854 O.2       7 UNK        -0.5147 
     49 N          23.5947  -33.0703  -39.6254 N.am      8 UNK        -0.4734 
     50 CA         22.9433  -34.3620  -39.8531 C.3       8 UNK         0.0238 
     51 CB         23.6390  -35.4421  -39.0072 C.3       8 UNK        -0.1912 
     52 C          22.9574  -34.7302  -41.3462 C.2       8 UNK         0.5038 
     53 O          24.0368  -34.9175  -41.9123 O.2       8 UNK        -0.5046 
     54 N          21.7651  -34.8059  -41.9483 N.am      9 UNK        -0.4200 
     55 CA         21.5662  -35.0587  -43.3838 C.3       9 UNK         0.0839 
     56 C          21.7140  -36.5479  -43.8156 C.2       9 UNK         0.5513 
     57 N          21.8457  -37.4975  -42.8970 N.am      9 UNK        -0.7519 
     58 O          21.7161  -36.8473  -45.0066 O.2       9 UNK        -0.4960 
     59 C59        20.2328  -34.4256  -43.8802 C.3       10 UNK        -0.0876 
     60 S60        20.4658  -33.4283  -45.3887 S.3       10 UNK        -0.2414 
     61 C61        20.6630  -31.7598  -44.6843 C.3       10 UNK         0.0169 
     62 H62        14.6039  -23.3906  -44.9753 H         1 UNK         0.0903 
     63 H63        15.4915  -21.9131  -45.3548 H         1 UNK         0.0903 
     64 H64        14.4951  -22.6873  -46.5897 H         1 UNK         0.0903 
     65 H65        15.9158  -25.2120  -44.9479 H         1 UNK         0.3096 
     66 H66        17.7136  -25.8688  -47.0689 H         1 UNK         0.1121 
     67 H67        17.5483  -27.2179  -44.3185 H         1 UNK         0.0849 
     68 H68        18.2043  -27.8823  -45.7921 H         1 UNK         0.0849 
     69 H69        15.2723  -30.2964  -45.7977 H         1 UNK         0.0865 
     70 H70        16.5831  -29.9236  -46.8863 H         1 UNK         0.0865 
     71 H71        18.6522  -30.8460  -46.2539 H         1 UNK         0.1346 
     72 H72        19.7407  -31.3404  -42.1386 H         1 UNK         0.1412 
     73 H73        15.9361  -29.6366  -43.1648 H         1 UNK         0.1426 
     74 H74        17.3526  -31.3289  -40.5879 H         1 UNK         0.0716 
     75 H75        16.4948  -29.8365  -40.8781 H         1 UNK         0.0716 
     76 H76        18.2722  -27.0599  -39.9228 H         1 UNK         0.0695 
     77 H77        17.8274  -27.7061  -41.4776 H         1 UNK         0.0695 
     78 H78        20.2933  -27.9877  -42.0262 H         1 UNK         0.0983 
     79 H79        18.7924  -25.6610  -42.1676 H         1 UNK         0.3095 
     80 H80        19.8228  -23.3960  -42.8660 H         1 UNK         0.0454 
     81 H81        22.0894  -23.0304  -43.7196 H         1 UNK         0.0851 
     82 H82        20.9381  -22.5562  -44.9580 H         1 UNK         0.0851 
     83 H83        21.8128  -24.0807  -45.0959 H         1 UNK         0.0851 
     84 H84        18.1538  -24.1126  -44.1500 H         1 UNK         0.2976 
     85 H85        20.4672  -25.1531  -39.8907 H         1 UNK         0.3116 
     86 H86        22.1516  -26.2288  -37.8773 H         1 UNK         0.0646 
     87 H87        22.6045  -23.8268  -37.3511 H         1 UNK         0.0847 
     88 H88        21.8539  -23.3387  -38.8632 H         1 UNK         0.0847 
     89 H89        20.8910  -24.1091  -37.6006 H         1 UNK         0.0847 
     90 H90        22.9248  -25.1138  -41.1318 H         1 UNK         0.3040 
     91 H91        25.8517  -25.1318  -40.6097 H         1 UNK         0.1015 
     92 H92        26.0046  -24.2803  -42.9301 H         1 UNK         0.0786 
     93 H93        24.9316  -23.2640  -41.9815 H         1 UNK         0.0786 
     94 H94        24.2652  -24.4171  -43.1364 H         1 UNK         0.0786 
     95 H95        23.3022  -26.8142  -42.4796 H         1 UNK         0.3172 
     96 H96        25.0146  -28.6571  -43.7962 H         1 UNK         0.0595 
     97 H97        22.0286  -28.9656  -43.1920 H         1 UNK         0.0839 
     98 H98        22.9398  -29.7674  -44.4603 H         1 UNK         0.0839 
     99 H99        22.6831  -28.0317  -44.5386 H         1 UNK         0.0839 
    100 H100       23.3554  -28.8583  -40.6665 H         1 UNK         0.2998 
    101 H101       23.4828  -30.1537  -38.9198 H         1 UNK         0.0822 
    102 H102       25.4686  -31.4875  -38.3852 H         1 UNK         0.0787 
    103 H103       25.9760  -31.5211  -40.0729 H         1 UNK         0.0787 
    104 H104       25.9923  -30.0122  -39.1682 H         1 UNK         0.0787 
    105 H105       24.4897  -33.0898  -39.1587 H         1 UNK         0.3055 
    106 H106       21.9080  -34.2806  -39.5139 H         1 UNK         0.1106 
    107 H107       23.5848  -35.2103  -37.9433 H         1 UNK         0.0828 
    108 H108       23.1650  -36.4141  -39.1499 H         1 UNK         0.0828 
    109 H109       24.6911  -35.5515  -39.2739 H         1 UNK         0.0828 
    110 H110       20.9304  -34.6463  -41.4042 H         1 UNK         0.2931 
    111 H111       22.3880  -34.5448  -43.8870 H         1 UNK         0.0412 
    112 H112       21.8498  -37.2653  -41.9169 H         1 UNK         0.3472 
    113 H113       21.9448  -38.4574  -43.1892 H         1 UNK         0.3472 
    114 H114       19.4736  -35.1841  -44.0816 H         1 UNK         0.0970 
    115 H115       19.7882  -33.7873  -43.1159 H         1 UNK         0.0970 
    116 H116       21.1078  -31.1134  -45.4419 H         1 UNK         0.0612 
    117 H117       21.3713  -31.7950  -43.8542 H         1 UNK         0.0612 
@<TRIPOS>BOND
     1    1    2 1    
     2    1   62 1    
     3    1   63 1    
     4    1   64 1    
     5    2    3 2    
     6    2    4 am   BACKBONE|DICT|INTERRES
     7    4    5 1    
     8    4   65 1    
     9    5    6 1    
    10    5   25 1    
    11    5   66 1    
    12    6    7 1    
    13    6   67 1    
    14    6   68 1    
    15    7    8 1    
    16    8    9 1    
    17    8   69 1    
    18    8   70 1    
    19    9   10 ar   
    20    9   14 ar   
    21   10   11 ar   
    22   10   71 1    
    23   11   12 ar   
    24   11   61 1    
    25   12   13 ar   
    26   12   72 1    
    27   13   14 ar   
    28   13   15 1    
    29   14   73 1    
    30   15   16 1    
    31   15   74 1    
    32   15   75 1    
    33   16   17 1    
    34   17   18 1    
    35   17   76 1    
    36   17   77 1    
    37   18   19 1    
    38   18   27 1    
    39   18   78 1    
    40   19   20 am   BACKBONE|DICT|INTERRES
    41   19   79 1    
    42   20   21 2    
    43   20   22 1    
    44   22   23 1    
    45   22   24 1    
    46   22   80 1    
    47   23   81 1    
    48   23   82 1    
    49   23   83 1    
    50   24   25 am   BACKBONE|DICT|INTERRES
    51   24   84 1    
    52   25   26 2    
    53   27   28 2    
    54   27   29 am   BACKBONE|DICT|INTERRES
    55   29   30 1    
    56   29   85 1    
    57   30   31 1    
    58   30   32 1    
    59   30   86 1    
    60   31   87 1    
    61   31   88 1    
    62   31   89 1    
    63   32   33 2    
    64   32   34 am   BACKBONE|DICT|INTERRES
    65   34   35 1    
    66   34   90 1    
    67   35   36 1    
    68   35   37 1    
    69   35   91 1    
    70   36   92 1    
    71   36   93 1    
    72   36   94 1    
    73   37   38 2    
    74   37   39 am   BACKBONE|DICT|INTERRES
    75   39   40 1    
    76   39   95 1    
    77   40   41 1    
    78   40   42 1    
    79   40   96 1    
    80   41   97 1    
    81   41   98 1    
    82   41   99 1    
    83   42   43 2    
    84   42   44 am   BACKBONE|DICT|INTERRES
    85   44   45 1    
    86   44  100 1    
    87   45   46 1    
    88   45   47 1    
    89   45  101 1    
    90   46  102 1    
    91   46  103 1    
    92   46  104 1    
    93   47   48 2    
    94   47   49 am   BACKBONE|DICT|INTERRES
    95   49   50 1    
    96   49  105 1    
    97   50   51 1    
    98   50   52 1    
    99   50  106 1    
   100   51  107 1    
   101   51  108 1    
   102   51  109 1    
   103   52   53 2    
   104   52   54 am   BACKBONE|DICT|INTERRES
   105   54   55 1    
   106   54  110 1    
   107   55   56 1    
   108   55   59 1    
   109   55  111 1    
   110   56   57 am   BACKBONE|DICT|INTERRES
   111   56   58 2    
   112   57  112 1    
   113   57  113 1    
   114   59   60 1    
   115   59  114 1    
   116   59  115 1    
   117   60   61 1    
   118   61  116 1    
   119   61  117 1    
@<TRIPOS>SUBSTRUCTURE
     1 UNK         1 GROUP             0       ****    0 ROOT    
