@<TRIPOS>MOLECULE
3R8
117   119    1
SMALL
USER_CHARGES


@<TRIPOS>ATOM
      1 CA         18.2441  -25.6555  -49.0154 C.3       0 UNK        -0.2013 
      2 C          17.5959  -25.6216  -47.6392 C.2       0 UNK         0.4866 
      3 O          16.8368  -24.6973  -47.3468 O.2       0 UNK        -0.5176 
      4 N          17.8891  -26.6249  -46.7999 N.am      1 UNK        -0.4884 
      5 CA         17.4271  -26.7589  -45.4130 C.3       1 UNK         0.0853 
      6 C6         15.8882  -26.9708  -45.3100 C.3       10 UNK        -0.0849 
      7 S7         15.2898  -27.6115  -43.7039 S.3       10 UNK        -0.2776 
      8 C8         15.7409  -29.3762  -43.7611 C.3       10 UNK         0.0316 
      9 C9         17.0606  -29.6604  -43.0519 C.ar      10 UNK        -0.0863 
     10 C10        18.1480  -30.1872  -43.7577 C.ar      10 UNK        -0.1009 
     11 C11        19.3335  -30.5164  -43.0920 C.ar      10 UNK        -0.0712 
     12 C12        19.4294  -30.3056  -41.7142 C.ar      10 UNK        -0.0894 
     13 C13        18.3660  -29.7491  -41.0007 C.ar      10 UNK        -0.0745 
     14 C14        17.1784  -29.4423  -41.6734 C.ar      10 UNK        -0.0972 
     15 C15        18.5019  -29.4961  -39.5035 C.3       10 UNK         0.0209 
     16 S16        18.4837  -27.7198  -39.0889 S.3       10 UNK        -0.2568 
     17 C17        20.1356  -27.1353  -39.6228 C.3       10 UNK        -0.0983 
     18 CA         20.2358  -26.8416  -41.1445 C.3       3 UNK         0.0876 
     19 N          19.0951  -26.0986  -41.6847 N.am      3 UNK        -0.4424 
     20 C          18.8027  -24.7984  -41.5443 C.2       2 UNK         0.4918 
     21 O          19.4114  -24.0322  -40.7966 O.2       2 UNK        -0.4875 
     22 CA         17.6553  -24.2603  -42.4305 C.3       2 UNK         0.0481 
     23 CB         17.9738  -22.8594  -42.9925 C.3       2 UNK        -0.1831 
     24 N          17.2619  -25.1756  -43.5172 N.am      2 UNK        -0.4498 
     25 C          18.0256  -25.6482  -44.5163 C.2       1 UNK         0.5027 
     26 O          19.2016  -25.3134  -44.6831 O.2       1 UNK        -0.4969 
     27 C          21.5988  -26.2562  -41.5873 C.2       3 UNK         0.5005 
     28 O          22.5975  -26.4118  -40.8808 O.2       3 UNK        -0.5279 
     29 N          21.6276  -25.6211  -42.7736 N.am      4 UNK        -0.4463 
     30 CA         22.7797  -24.9163  -43.3511 C.3       4 UNK         0.0283 
     31 CB         22.3260  -24.1674  -44.6145 C.3       4 UNK        -0.1875 
     32 C          23.9939  -25.8097  -43.6629 C.2       4 UNK         0.4949 
     33 O          25.1004  -25.2914  -43.8117 O.2       4 UNK        -0.5039 
     34 N          23.7772  -27.1301  -43.7299 N.am      5 UNK        -0.4663 
     35 CA         24.8193  -28.1519  -43.8461 C.3       5 UNK         0.0242 
     36 CB         24.1518  -29.5029  -44.1586 C.3       5 UNK        -0.1982 
     37 C          25.7043  -28.2810  -42.5901 C.2       5 UNK         0.5017 
     38 O          26.7840  -28.8641  -42.6913 O.2       5 UNK        -0.5012 
     39 N          25.2280  -27.7734  -41.4383 N.am      6 UNK        -0.4439 
     40 CA         25.8327  -27.8866  -40.1021 C.3       6 UNK         0.0297 
     41 CB         27.1742  -27.1268  -40.0293 C.3       6 UNK        -0.2006 
     42 C          25.9389  -29.3484  -39.6178 C.2       6 UNK         0.4892 
     43 O          26.8598  -29.6957  -38.8762 O.2       6 UNK        -0.5089 
     44 N          24.9826  -30.1731  -40.0536 N.am      7 UNK        -0.4243 
     45 CA         24.8444  -31.5979  -39.7900 C.3       7 UNK         0.0196 
     46 CB         25.8346  -32.3941  -40.6616 C.3       7 UNK        -0.2007 
     47 C          23.3956  -31.9772  -40.1147 C.2       7 UNK         0.5020 
     48 O          22.6957  -31.2038  -40.7726 O.2       7 UNK        -0.5147 
     49 N          22.9736  -33.1651  -39.6673 N.am      8 UNK        -0.4734 
     50 CA         21.6106  -33.6834  -39.8433 C.3       8 UNK         0.0238 
     51 CB         21.3936  -34.8479  -38.8615 C.3       8 UNK        -0.1912 
     52 C          21.2630  -34.1186  -41.2816 C.2       8 UNK         0.5038 
     53 O          20.0849  -34.3517  -41.5492 O.2       8 UNK        -0.5046 
     54 N          22.2815  -34.2478  -42.1471 N.am      9 UNK        -0.4200 
     55 CA         22.2358  -34.6382  -43.5713 C.3       9 UNK         0.0839 
     56 C          21.5259  -35.9858  -43.9134 C.2       9 UNK         0.5513 
     57 N          21.3332  -36.8898  -42.9608 N.am      9 UNK        -0.7519 
     58 O          21.1915  -36.2437  -45.0673 O.2       9 UNK        -0.4960 
     59 C59        21.8928  -33.4622  -44.5373 C.3       10 UNK        -0.0876 
     60 S60        20.1955  -32.7970  -44.4056 S.3       10 UNK        -0.2414 
     61 C61        20.5182  -31.0946  -43.8510 C.3       10 UNK         0.0169 
     62 H62        17.4782  -25.6720  -49.7903 H         1 UNK         0.0903 
     63 H63        18.8582  -24.7672  -49.1619 H         1 UNK         0.0903 
     64 H64        18.8787  -26.5316  -49.1475 H         1 UNK         0.0903 
     65 H65        18.5475  -27.3308  -47.1001 H         1 UNK         0.3096 
     66 H66        17.8983  -27.6749  -45.0576 H         1 UNK         0.1121 
     67 H67        15.3611  -26.0393  -45.5237 H         1 UNK         0.0849 
     68 H68        15.5620  -27.6673  -46.0841 H         1 UNK         0.0849 
     69 H69        15.7626  -29.7250  -44.7947 H         1 UNK         0.0865 
     70 H70        14.9545  -29.9497  -43.2684 H         1 UNK         0.0865 
     71 H71        18.0691  -30.3672  -44.8214 H         1 UNK         0.1346 
     72 H72        20.3420  -30.5596  -41.1958 H         1 UNK         0.1412 
     73 H73        16.3436  -29.0311  -41.1217 H         1 UNK         0.1426 
     74 H74        19.4117  -29.9500  -39.1071 H         1 UNK         0.0716 
     75 H75        17.6711  -29.9818  -38.9899 H         1 UNK         0.0716 
     76 H76        20.8827  -27.8736  -39.3255 H         1 UNK         0.0695 
     77 H77        20.3600  -26.2303  -39.0557 H         1 UNK         0.0695 
     78 H78        20.2042  -27.8003  -41.6551 H         1 UNK         0.0983 
     79 H79        18.4880  -26.6351  -42.2857 H         1 UNK         0.3095 
     80 H80        16.7847  -24.1697  -41.7796 H         1 UNK         0.0454 
     81 H81        17.1584  -22.4852  -43.6111 H         1 UNK         0.0851 
     82 H82        18.8804  -22.8617  -43.5984 H         1 UNK         0.0851 
     83 H83        18.1244  -22.1386  -42.1880 H         1 UNK         0.0851 
     84 H84        16.3282  -25.5628  -43.4402 H         1 UNK         0.2976 
     85 H85        20.7636  -25.5537  -43.3028 H         1 UNK         0.3116 
     86 H86        23.1082  -24.1776  -42.6172 H         1 UNK         0.0646 
     87 H87        23.1477  -23.5972  -45.0499 H         1 UNK         0.0847 
     88 H88        21.5256  -23.4613  -44.3924 H         1 UNK         0.0847 
     89 H89        21.9624  -24.8536  -45.3806 H         1 UNK         0.0847 
     90 H90        22.8292  -27.4561  -43.6150 H         1 UNK         0.3040 
     91 H91        25.4714  -27.8818  -44.6798 H         1 UNK         0.1015 
     92 H92        23.5023  -29.8287  -43.3451 H         1 UNK         0.0786 
     93 H93        24.9001  -30.2830  -44.3063 H         1 UNK         0.0786 
     94 H94        23.5548  -29.4534  -45.0695 H         1 UNK         0.0786 
     95 H95        24.3253  -27.3060  -41.4593 H         1 UNK         0.3172 
     96 H96        25.1395  -27.3934  -39.4191 H         1 UNK         0.0595 
     97 H97        27.9466  -27.6070  -40.6307 H         1 UNK         0.0839 
     98 H98        27.5433  -27.0841  -39.0039 H         1 UNK         0.0839 
     99 H99        27.0676  -26.0994  -40.3773 H         1 UNK         0.0839 
    100 H100       24.2263  -29.7994  -40.6150 H         1 UNK         0.2998 
    101 H101       25.0325  -31.7884  -38.7314 H         1 UNK         0.0822 
    102 H102       25.6638  -32.2187  -41.7248 H         1 UNK         0.0787 
    103 H103       26.8666  -32.1190  -40.4426 H         1 UNK         0.0787 
    104 H104       25.7454  -33.4666  -40.4856 H         1 UNK         0.0787 
    105 H105       23.6139  -33.7440  -39.1415 H         1 UNK         0.3055 
    106 H106       20.9106  -32.8853  -39.5840 H         1 UNK         0.1106 
    107 H107       20.3769  -35.2375  -38.9333 H         1 UNK         0.0828 
    108 H108       22.0741  -35.6767  -39.0598 H         1 UNK         0.0828 
    109 H109       21.5411  -34.5302  -37.8292 H         1 UNK         0.0828 
    110 H110       23.2043  -34.0570  -41.7874 H         1 UNK         0.2931 
    111 H111       23.2792  -34.8724  -43.7859 H         1 UNK         0.0412 
    112 H112       21.5996  -36.6935  -42.0096 H         1 UNK         0.3472 
    113 H113       20.8892  -37.7647  -43.1921 H         1 UNK         0.3472 
    114 H114       22.6118  -32.6563  -44.3850 H         1 UNK         0.0970 
    115 H115       22.0448  -33.7738  -45.5721 H         1 UNK         0.0970 
    116 H116       20.7489  -30.4691  -44.7144 H         1 UNK         0.0612 
    117 H117       21.4030  -31.0845  -43.2136 H         1 UNK         0.0612 
@<TRIPOS>BOND
     1    1    2 1    
     2    1   62 1    
     3    1   63 1    
     4    1   64 1    
     5    2    3 2    
     6    2    4 am   BACKBONE|DICT|INTERRES
     7    4    5 1    
     8    4   65 1    
     9    5    6 1    
    10    5   25 1    
    11    5   66 1    
    12    6    7 1    
    13    6   67 1    
    14    6   68 1    
    15    7    8 1    
    16    8    9 1    
    17    8   69 1    
    18    8   70 1    
    19    9   10 ar   
    20    9   14 ar   
    21   10   11 ar   
    22   10   71 1    
    23   11   12 ar   
    24   11   61 1    
    25   12   13 ar   
    26   12   72 1    
    27   13   14 ar   
    28   13   15 1    
    29   14   73 1    
    30   15   16 1    
    31   15   74 1    
    32   15   75 1    
    33   16   17 1    
    34   17   18 1    
    35   17   76 1    
    36   17   77 1    
    37   18   19 1    
    38   18   27 1    
    39   18   78 1    
    40   19   20 am   BACKBONE|DICT|INTERRES
    41   19   79 1    
    42   20   21 2    
    43   20   22 1    
    44   22   23 1    
    45   22   24 1    
    46   22   80 1    
    47   23   81 1    
    48   23   82 1    
    49   23   83 1    
    50   24   25 am   BACKBONE|DICT|INTERRES
    51   24   84 1    
    52   25   26 2    
    53   27   28 2    
    54   27   29 am   BACKBONE|DICT|INTERRES
    55   29   30 1    
    56   29   85 1    
    57   30   31 1    
    58   30   32 1    
    59   30   86 1    
    60   31   87 1    
    61   31   88 1    
    62   31   89 1    
    63   32   33 2    
    64   32   34 am   BACKBONE|DICT|INTERRES
    65   34   35 1    
    66   34   90 1    
    67   35   36 1    
    68   35   37 1    
    69   35   91 1    
    70   36   92 1    
    71   36   93 1    
    72   36   94 1    
    73   37   38 2    
    74   37   39 am   BACKBONE|DICT|INTERRES
    75   39   40 1    
    76   39   95 1    
    77   40   41 1    
    78   40   42 1    
    79   40   96 1    
    80   41   97 1    
    81   41   98 1    
    82   41   99 1    
    83   42   43 2    
    84   42   44 am   BACKBONE|DICT|INTERRES
    85   44   45 1    
    86   44  100 1    
    87   45   46 1    
    88   45   47 1    
    89   45  101 1    
    90   46  102 1    
    91   46  103 1    
    92   46  104 1    
    93   47   48 2    
    94   47   49 am   BACKBONE|DICT|INTERRES
    95   49   50 1    
    96   49  105 1    
    97   50   51 1    
    98   50   52 1    
    99   50  106 1    
   100   51  107 1    
   101   51  108 1    
   102   51  109 1    
   103   52   53 2    
   104   52   54 am   BACKBONE|DICT|INTERRES
   105   54   55 1    
   106   54  110 1    
   107   55   56 1    
   108   55   59 1    
   109   55  111 1    
   110   56   57 am   BACKBONE|DICT|INTERRES
   111   56   58 2    
   112   57  112 1    
   113   57  113 1    
   114   59   60 1    
   115   59  114 1    
   116   59  115 1    
   117   60   61 1    
   118   61  116 1    
   119   61  117 1    
@<TRIPOS>SUBSTRUCTURE
     1 UNK         1 GROUP             0       ****    0 ROOT    
