@<TRIPOS>MOLECULE
3R8
117   119    1
SMALL
USER_CHARGES


@<TRIPOS>ATOM
      1 CA         15.7091  -27.2424  -41.2502 C.3       0 UNK        -0.2013 
      2 C          16.1558  -26.0720  -42.1139 C.2       0 UNK         0.4866 
      3 O          15.5632  -24.9959  -42.0306 O.2       0 UNK        -0.5176 
      4 N          17.1919  -26.2681  -42.9377 N.am      1 UNK        -0.4884 
      5 CA         17.7811  -25.2327  -43.7870 C.3       1 UNK         0.0853 
      6 C6         16.9883  -24.9897  -45.1066 C.3       10 UNK        -0.0849 
      7 S7         17.1408  -26.2423  -46.4302 S.3       10 UNK        -0.2776 
      8 C8         16.0135  -27.5705  -45.8927 C.3       10 UNK         0.0316 
      9 C9         16.7743  -28.8182  -45.4569 C.ar      10 UNK        -0.0863 
     10 C10        16.5279  -29.4051  -44.2109 C.ar      10 UNK        -0.1009 
     11 C11        17.2052  -30.5634  -43.8114 C.ar      10 UNK        -0.0712 
     12 C12        18.1281  -31.1391  -44.6933 C.ar      10 UNK        -0.0894 
     13 C13        18.3956  -30.5586  -45.9360 C.ar      10 UNK        -0.0745 
     14 C14        17.7071  -29.4066  -46.3168 C.ar      10 UNK        -0.0972 
     15 C15        19.4346  -31.1759  -46.8631 C.3       10 UNK         0.0209 
     16 S16        21.0237  -30.2793  -46.8217 S.3       10 UNK        -0.2568 
     17 C17        21.4972  -30.4283  -45.0625 C.3       10 UNK        -0.0983 
     18 CA         22.0173  -29.1217  -44.4064 C.3       3 UNK         0.0876 
     19 N          21.4307  -27.8825  -44.9335 N.am      3 UNK        -0.4424 
     20 C          22.0185  -26.6853  -44.7962 C.2       2 UNK         0.4918 
     21 O          23.0669  -26.5120  -44.1749 O.2       2 UNK        -0.4875 
     22 CA         21.3014  -25.4692  -45.4054 C.3       2 UNK         0.0481 
     23 CB         21.5132  -25.4271  -46.9268 C.3       2 UNK        -0.1831 
     24 N          19.8678  -25.3889  -45.1070 N.am      2 UNK        -0.4498 
     25 C          19.3014  -25.4678  -43.8954 C.2       1 UNK         0.5027 
     26 O          19.9388  -25.7090  -42.8679 O.2       1 UNK        -0.4969 
     27 C          21.8993  -29.2137  -42.8715 C.2       3 UNK         0.5005 
     28 O          22.7013  -29.9151  -42.2570 O.2       3 UNK        -0.5279 
     29 N          20.9228  -28.5170  -42.2678 N.am      4 UNK        -0.4463 
     30 CA         20.7746  -28.4109  -40.8131 C.3       4 UNK         0.0283 
     31 CB         19.3672  -27.9274  -40.4357 C.3       4 UNK        -0.1875 
     32 C          21.8616  -27.5188  -40.2019 C.2       4 UNK         0.4949 
     33 O          22.3989  -27.8586  -39.1488 O.2       4 UNK        -0.5039 
     34 N          22.2013  -26.4266  -40.8980 N.am      5 UNK        -0.4663 
     35 CA         23.3265  -25.5591  -40.5527 C.3       5 UNK         0.0242 
     36 CB         23.2334  -24.2524  -41.3577 C.3       5 UNK        -0.1982 
     37 C          24.6846  -26.2489  -40.7729 C.2       5 UNK         0.5017 
     38 O          25.5582  -26.1475  -39.9111 O.2       5 UNK        -0.5012 
     39 N          24.8392  -26.9240  -41.9208 N.am      6 UNK        -0.4439 
     40 CA         26.0954  -27.5431  -42.3446 C.3       6 UNK         0.0297 
     41 CB         26.0829  -27.7500  -43.8677 C.3       6 UNK        -0.2006 
     42 C          26.4292  -28.8648  -41.6327 C.2       6 UNK         0.4892 
     43 O          27.5923  -29.0617  -41.2775 O.2       6 UNK        -0.5089 
     44 N          25.4456  -29.7641  -41.4821 N.am      7 UNK        -0.4243 
     45 CA         25.6790  -31.1608  -41.0955 C.3       7 UNK         0.0196 
     46 CB         25.9556  -31.9943  -42.3639 C.3       7 UNK        -0.2007 
     47 C          24.5403  -31.7563  -40.2505 C.2       7 UNK         0.5020 
     48 O          24.3753  -32.9775  -40.2412 O.2       7 UNK        -0.5147 
     49 N          23.7672  -30.9048  -39.5591 N.am      8 UNK        -0.4734 
     50 CA         22.6665  -31.2617  -38.6492 C.3       8 UNK         0.0238 
     51 CB         23.2294  -31.9027  -37.3621 C.3       8 UNK        -0.1912 
     52 C          21.5523  -32.1164  -39.2944 C.2       8 UNK         0.5038 
     53 O          20.9339  -32.9261  -38.6013 O.2       8 UNK        -0.5046 
     54 N          21.3143  -31.9218  -40.6011 N.am      9 UNK        -0.4200 
     55 CA         20.3521  -32.6725  -41.4278 C.3       9 UNK         0.0839 
     56 C          20.8125  -34.1320  -41.7459 C.2       9 UNK         0.5513 
     57 N          22.0639  -34.5055  -41.4980 N.am      9 UNK        -0.7519 
     58 O          20.0415  -34.9387  -42.2574 O.2       9 UNK        -0.4960 
     59 C59        18.8939  -32.5607  -40.8792 C.3       10 UNK        -0.0876 
     60 S60        17.5675  -32.8278  -42.1126 S.3       10 UNK        -0.2414 
     61 C61        16.9067  -31.1486  -42.4271 C.3       10 UNK         0.0169 
     62 H62        15.7457  -26.9647  -40.1971 H         1 UNK         0.0903 
     63 H63        14.6833  -27.5179  -41.4935 H         1 UNK         0.0903 
     64 H64        16.3379  -28.1197  -41.3873 H         1 UNK         0.0903 
     65 H65        17.6657  -27.1593  -42.9612 H         1 UNK         0.3096 
     66 H66        17.7231  -24.2959  -43.2272 H         1 UNK         0.1121 
     67 H67        17.3028  -24.0367  -45.5358 H         1 UNK         0.0849 
     68 H68        15.9297  -24.8513  -44.8817 H         1 UNK         0.0849 
     69 H69        15.3588  -27.2094  -45.0984 H         1 UNK         0.0865 
     70 H70        15.3623  -27.8349  -46.7269 H         1 UNK         0.0865 
     71 H71        15.7921  -28.9658  -43.5528 H         1 UNK         0.1346 
     72 H72        18.6640  -32.0352  -44.4173 H         1 UNK         0.1412 
     73 H73        17.9052  -28.9617  -47.2828 H         1 UNK         0.1426 
     74 H74        19.6084  -32.2216  -46.6042 H         1 UNK         0.0716 
     75 H75        19.0557  -31.1755  -47.8862 H         1 UNK         0.0716 
     76 H76        20.6635  -30.8313  -44.4953 H         1 UNK         0.0695 
     77 H77        22.2691  -31.1971  -44.9944 H         1 UNK         0.0695 
     78 H78        23.0852  -29.0779  -44.6285 H         1 UNK         0.0983 
     79 H79        20.5774  -27.9699  -45.4671 H         1 UNK         0.3095 
     80 H80        21.7624  -24.5767  -44.9777 H         1 UNK         0.0454 
     81 H81        21.0232  -26.2630  -47.4280 H         1 UNK         0.0851 
     82 H82        21.1242  -24.5040  -47.3567 H         1 UNK         0.0851 
     83 H83        22.5745  -25.4747  -47.1755 H         1 UNK         0.0851 
     84 H84        19.2494  -25.2517  -45.8962 H         1 UNK         0.2976 
     85 H85        20.3497  -27.9030  -42.8303 H         1 UNK         0.3116 
     86 H86        20.8904  -29.4011  -40.3815 H         1 UNK         0.0646 
     87 H87        19.1775  -26.9044  -40.7576 H         1 UNK         0.0847 
     88 H88        18.6040  -28.5713  -40.8684 H         1 UNK         0.0847 
     89 H89        19.2313  -27.9500  -39.3538 H         1 UNK         0.0847 
     90 H90        21.6736  -26.1984  -41.7336 H         1 UNK         0.3040 
     91 H91        23.2507  -25.3102  -39.4915 H         1 UNK         0.1015 
     92 H92        23.2824  -24.4309  -42.4323 H         1 UNK         0.0786 
     93 H93        24.0513  -23.5777  -41.1012 H         1 UNK         0.0786 
     94 H94        22.3016  -23.7260  -41.1501 H         1 UNK         0.0786 
     95 H95        24.0878  -26.8934  -42.6054 H         1 UNK         0.3172 
     96 H96        26.9022  -26.8412  -42.1215 H         1 UNK         0.0595 
     97 H97        27.0350  -28.1546  -44.2140 H         1 UNK         0.0839 
     98 H98        25.9201  -26.8102  -44.3958 H         1 UNK         0.0839 
     99 H99        25.3041  -28.4468  -44.1758 H         1 UNK         0.0839 
    100 H100       24.5006  -29.5504  -41.7931 H         1 UNK         0.2998 
    101 H101       26.5620  -31.2163  -40.4555 H         1 UNK         0.0822 
    102 H102       26.1958  -33.0290  -42.1160 H         1 UNK         0.0787 
    103 H103       25.0891  -32.0074  -43.0263 H         1 UNK         0.0787 
    104 H104       26.8013  -31.5975  -42.9256 H         1 UNK         0.0787 
    105 H105       23.9531  -29.9146  -39.6499 H         1 UNK         0.3055 
    106 H106       22.1864  -30.3273  -38.3584 H         1 UNK         0.1106 
    107 H107       23.9927  -31.2724  -36.9060 H         1 UNK         0.0828 
    108 H108       22.4454  -32.0455  -36.6174 H         1 UNK         0.0828 
    109 H109       23.6733  -32.8793  -37.5581 H         1 UNK         0.0828 
    110 H110       21.9025  -31.2618  -41.1024 H         1 UNK         0.2931 
    111 H111       20.3714  -32.1581  -42.3887 H         1 UNK         0.0412 
    112 H112       22.3463  -35.4466  -41.7206 H         1 UNK         0.3472 
    113 H113       22.7289  -33.8708  -41.0694 H         1 UNK         0.3472 
    114 H114       18.7432  -33.2782  -40.0710 H         1 UNK         0.0970 
    115 H115       18.7467  -31.5826  -40.4206 H         1 UNK         0.0970 
    116 H116       15.8243  -31.1989  -42.3003 H         1 UNK         0.0612 
    117 H117       17.2664  -30.4551  -41.6681 H         1 UNK         0.0612 
@<TRIPOS>BOND
     1    1    2 1    
     2    1   62 1    
     3    1   63 1    
     4    1   64 1    
     5    2    3 2    
     6    2    4 am   BACKBONE|DICT|INTERRES
     7    4    5 1    
     8    4   65 1    
     9    5    6 1    
    10    5   25 1    
    11    5   66 1    
    12    6    7 1    
    13    6   67 1    
    14    6   68 1    
    15    7    8 1    
    16    8    9 1    
    17    8   69 1    
    18    8   70 1    
    19    9   10 ar   
    20    9   14 ar   
    21   10   11 ar   
    22   10   71 1    
    23   11   12 ar   
    24   11   61 1    
    25   12   13 ar   
    26   12   72 1    
    27   13   14 ar   
    28   13   15 1    
    29   14   73 1    
    30   15   16 1    
    31   15   74 1    
    32   15   75 1    
    33   16   17 1    
    34   17   18 1    
    35   17   76 1    
    36   17   77 1    
    37   18   19 1    
    38   18   27 1    
    39   18   78 1    
    40   19   20 am   BACKBONE|DICT|INTERRES
    41   19   79 1    
    42   20   21 2    
    43   20   22 1    
    44   22   23 1    
    45   22   24 1    
    46   22   80 1    
    47   23   81 1    
    48   23   82 1    
    49   23   83 1    
    50   24   25 am   BACKBONE|DICT|INTERRES
    51   24   84 1    
    52   25   26 2    
    53   27   28 2    
    54   27   29 am   BACKBONE|DICT|INTERRES
    55   29   30 1    
    56   29   85 1    
    57   30   31 1    
    58   30   32 1    
    59   30   86 1    
    60   31   87 1    
    61   31   88 1    
    62   31   89 1    
    63   32   33 2    
    64   32   34 am   BACKBONE|DICT|INTERRES
    65   34   35 1    
    66   34   90 1    
    67   35   36 1    
    68   35   37 1    
    69   35   91 1    
    70   36   92 1    
    71   36   93 1    
    72   36   94 1    
    73   37   38 2    
    74   37   39 am   BACKBONE|DICT|INTERRES
    75   39   40 1    
    76   39   95 1    
    77   40   41 1    
    78   40   42 1    
    79   40   96 1    
    80   41   97 1    
    81   41   98 1    
    82   41   99 1    
    83   42   43 2    
    84   42   44 am   BACKBONE|DICT|INTERRES
    85   44   45 1    
    86   44  100 1    
    87   45   46 1    
    88   45   47 1    
    89   45  101 1    
    90   46  102 1    
    91   46  103 1    
    92   46  104 1    
    93   47   48 2    
    94   47   49 am   BACKBONE|DICT|INTERRES
    95   49   50 1    
    96   49  105 1    
    97   50   51 1    
    98   50   52 1    
    99   50  106 1    
   100   51  107 1    
   101   51  108 1    
   102   51  109 1    
   103   52   53 2    
   104   52   54 am   BACKBONE|DICT|INTERRES
   105   54   55 1    
   106   54  110 1    
   107   55   56 1    
   108   55   59 1    
   109   55  111 1    
   110   56   57 am   BACKBONE|DICT|INTERRES
   111   56   58 2    
   112   57  112 1    
   113   57  113 1    
   114   59   60 1    
   115   59  114 1    
   116   59  115 1    
   117   60   61 1    
   118   61  116 1    
   119   61  117 1    
@<TRIPOS>SUBSTRUCTURE
     1 UNK         1 GROUP             0       ****    0 ROOT    
