@<TRIPOS>MOLECULE
3R8
117   119    1
SMALL
USER_CHARGES


@<TRIPOS>ATOM
      1 CA         21.1456  -21.3229  -46.6206 C.3       0 UNK        -0.2013 
      2 C          21.0365  -22.7501  -46.1052 C.2       0 UNK         0.4866 
      3 O          21.7965  -23.1407  -45.2191 O.2       0 UNK        -0.5176 
      4 N          20.1028  -23.5351  -46.6579 N.am      1 UNK        -0.4884 
      5 CA         19.8119  -24.9076  -46.2344 C.3       1 UNK         0.0853 
      6 C6         19.0664  -25.6927  -47.3581 C.3       10 UNK        -0.0849 
      7 S7         18.1166  -27.1850  -46.8791 S.3       10 UNK        -0.2776 
      8 C8         19.4491  -28.3795  -46.5193 C.3       10 UNK         0.0316 
      9 C9         18.9697  -29.7302  -45.9816 C.ar      10 UNK        -0.0863 
     10 C10        19.7647  -30.8622  -46.1911 C.ar      10 UNK        -0.1009 
     11 C11        19.3943  -32.1068  -45.6731 C.ar      10 UNK        -0.0712 
     12 C12        18.2055  -32.2230  -44.9488 C.ar      10 UNK        -0.0894 
     13 C13        17.3974  -31.1057  -44.7259 C.ar      10 UNK        -0.0745 
     14 C14        17.7842  -29.8651  -45.2459 C.ar      10 UNK        -0.0972 
     15 C15        16.1009  -31.2525  -43.9372 C.3       10 UNK         0.0209 
     16 S16        15.9487  -30.0491  -42.5773 S.3       10 UNK        -0.2568 
     17 C17        17.3046  -30.5439  -41.4565 C.3       10 UNK        -0.0983 
     18 CA         18.6365  -29.7891  -41.7107 C.3       3 UNK         0.0876 
     19 N          18.4394  -28.3488  -41.9128 N.am      3 UNK        -0.4424 
     20 C          19.3674  -27.5125  -42.3885 C.2       2 UNK         0.4918 
     21 O          20.5429  -27.8235  -42.6073 O.2       2 UNK        -0.4875 
     22 CA         18.8969  -26.0908  -42.7027 C.3       2 UNK         0.0481 
     23 CB         19.2376  -25.1115  -41.5669 C.3       2 UNK        -0.1831 
     24 N          19.5599  -25.7109  -43.9413 N.am      2 UNK        -0.4498 
     25 C          19.0744  -24.8905  -44.8770 C.2       1 UNK         0.5027 
     26 O          18.0778  -24.1786  -44.7274 O.2       1 UNK        -0.4969 
     27 C          19.6489  -30.0973  -40.5917 C.2       3 UNK         0.5005 
     28 O          20.3517  -31.1045  -40.6697 O.2       3 UNK        -0.5279 
     29 N          19.7149  -29.2185  -39.5861 N.am      4 UNK        -0.4463 
     30 CA         20.6962  -29.2368  -38.5075 C.3       4 UNK         0.0283 
     31 CB         19.9626  -29.1058  -37.1630 C.3       4 UNK        -0.1875 
     32 C          21.6643  -28.0640  -38.7005 C.2       4 UNK         0.4949 
     33 O          21.2859  -27.0458  -39.2855 O.2       4 UNK        -0.5039 
     34 N          22.8877  -28.2269  -38.1821 N.am      5 UNK        -0.4663 
     35 CA         24.0044  -27.2707  -38.1439 C.3       5 UNK         0.0242 
     36 CB         23.6378  -26.0087  -37.3371 C.3       5 UNK        -0.1982 
     37 C          24.5995  -26.8980  -39.5143 C.2       5 UNK         0.5017 
     38 O          25.8164  -26.9936  -39.6741 O.2       5 UNK        -0.5012 
     39 N          23.7550  -26.4693  -40.4616 N.am      6 UNK        -0.4439 
     40 CA         24.1524  -26.0622  -41.8103 C.3       6 UNK         0.0297 
     41 CB         23.0593  -25.1955  -42.4565 C.3       6 UNK        -0.2006 
     42 C          24.5132  -27.2795  -42.6729 C.2       6 UNK         0.4892 
     43 O          25.6853  -27.4486  -43.0116 O.2       6 UNK        -0.5089 
     44 N          23.5137  -28.1132  -42.9971 N.am      7 UNK        -0.4243 
     45 CA         23.7267  -29.3706  -43.7188 C.3       7 UNK         0.0196 
     46 CB         22.4500  -29.7563  -44.4756 C.3       7 UNK        -0.2007 
     47 C          24.1595  -30.5070  -42.7809 C.2       7 UNK         0.5020 
     48 O          24.9312  -31.3692  -43.2006 O.2       7 UNK        -0.5147 
     49 N          23.6547  -30.4806  -41.5365 N.am      8 UNK        -0.4734 
     50 CA         23.8751  -31.4680  -40.4694 C.3       8 UNK         0.0238 
     51 CB         25.3356  -31.4191  -39.9734 C.3       8 UNK        -0.1912 
     52 C          23.4074  -32.8896  -40.8489 C.2       8 UNK         0.5038 
     53 O          24.0407  -33.8755  -40.4660 O.2       8 UNK        -0.5046 
     54 N          22.2962  -32.9574  -41.5894 N.am      9 UNK        -0.4200 
     55 CA         21.5822  -34.1877  -41.9508 C.3       9 UNK         0.0839 
     56 C          20.7536  -34.7646  -40.7704 C.2       9 UNK         0.5513 
     57 N          20.2652  -33.9376  -39.8528 N.am      9 UNK        -0.7519 
     58 O          20.5545  -35.9737  -40.6890 O.2       9 UNK        -0.4960 
     59 C59        20.6720  -33.9714  -43.1863 C.3       10 UNK        -0.0876 
     60 S60        21.6034  -33.4605  -44.6692 S.3       10 UNK        -0.2414 
     61 C61        20.2736  -33.3277  -45.9058 C.3       10 UNK         0.0169 
     62 H62        20.4205  -21.1160  -47.4074 H         1 UNK         0.0903 
     63 H63        20.9750  -20.6172  -45.8081 H         1 UNK         0.0903 
     64 H64        22.1425  -21.1447  -47.0229 H         1 UNK         0.0903 
     65 H65        19.4842  -23.1497  -47.3576 H         1 UNK         0.3096 
     66 H66        20.7709  -25.4086  -46.0812 H         1 UNK         0.1121 
     67 H67        18.3422  -25.0319  -47.8377 H         1 UNK         0.0849 
     68 H68        19.7713  -25.9647  -48.1455 H         1 UNK         0.0849 
     69 H69        20.0328  -28.5276  -47.4294 H         1 UNK         0.0865 
     70 H70        20.1223  -27.9442  -45.7820 H         1 UNK         0.0865 
     71 H71        20.6874  -30.7751  -46.7484 H         1 UNK         0.1346 
     72 H72        17.9122  -33.1868  -44.5556 H         1 UNK         0.1412 
     73 H73        17.1595  -29.0033  -45.0582 H         1 UNK         0.1426 
     74 H74        16.0011  -32.2591  -43.5281 H         1 UNK         0.0716 
     75 H75        15.2621  -31.1140  -44.6203 H         1 UNK         0.0716 
     76 H76        17.4592  -31.6220  -41.5338 H         1 UNK         0.0695 
     77 H77        16.9528  -30.3628  -40.4388 H         1 UNK         0.0695 
     78 H78        19.0732  -30.1804  -42.6321 H         1 UNK         0.0983 
     79 H79        17.4935  -28.0176  -41.7880 H         1 UNK         0.3095 
     80 H80        17.8164  -26.1002  -42.8628 H         1 UNK         0.0454 
     81 H81        18.6927  -25.3689  -40.6581 H         1 UNK         0.0851 
     82 H82        18.9670  -24.0887  -41.8289 H         1 UNK         0.0851 
     83 H83        20.2977  -25.1240  -41.3165 H         1 UNK         0.0851 
     84 H84        20.3816  -26.2673  -44.1384 H         1 UNK         0.2976 
     85 H85        19.1638  -28.3750  -39.6598 H         1 UNK         0.3116 
     86 H86        21.2589  -30.1723  -38.5121 H         1 UNK         0.0646 
     87 H87        19.2583  -29.9248  -37.0161 H         1 UNK         0.0847 
     88 H88        19.4064  -28.1699  -37.0940 H         1 UNK         0.0847 
     89 H89        20.6645  -29.1297  -36.3284 H         1 UNK         0.0847 
     90 H90        23.0833  -29.1097  -37.7299 H         1 UNK         0.3040 
     91 H91        24.8008  -27.7782  -37.5961 H         1 UNK         0.1015 
     92 H92        24.4999  -25.3478  -37.2366 H         1 UNK         0.0786 
     93 H93        23.3081  -26.2648  -36.3302 H         1 UNK         0.0786 
     94 H94        22.8437  -25.4322  -37.8124 H         1 UNK         0.0786 
     95 H95        22.7631  -26.4671  -40.2306 H         1 UNK         0.3172 
     96 H96        25.0469  -25.4412  -41.7252 H         1 UNK         0.0595 
     97 H97        23.3636  -24.8608  -43.4493 H         1 UNK         0.0839 
     98 H98        22.8581  -24.3028  -41.8643 H         1 UNK         0.0839 
     99 H99        22.1232  -25.7358  -42.5726 H         1 UNK         0.0839 
    100 H100       22.5623  -27.9028  -42.7105 H         1 UNK         0.2998 
    101 H101       24.5186  -29.2290  -44.4580 H         1 UNK         0.0822 
    102 H102       22.6160  -30.6522  -45.0743 H         1 UNK         0.0787 
    103 H103       22.1457  -28.9648  -45.1582 H         1 UNK         0.0787 
    104 H104       21.6178  -29.9653  -43.8020 H         1 UNK         0.0787 
    105 H105       23.0143  -29.7317  -41.3165 H         1 UNK         0.3055 
    106 H106       23.2382  -31.1666  -39.6372 H         1 UNK         0.1106 
    107 H107       25.6255  -30.4063  -39.6928 H         1 UNK         0.0828 
    108 H108       25.4724  -32.0501  -39.0945 H         1 UNK         0.0828 
    109 H109       26.0332  -31.7685  -40.7351 H         1 UNK         0.0828 
    110 H110       21.7971  -32.0952  -41.7674 H         1 UNK         0.2931 
    111 H111       22.3271  -34.9410  -42.2150 H         1 UNK         0.0412 
    112 H112       20.3794  -32.9353  -39.9667 H         1 UNK         0.3472 
    113 H113       19.7296  -34.3052  -39.0828 H         1 UNK         0.3472 
    114 H114       19.9192  -33.2134  -42.9637 H         1 UNK         0.0970 
    115 H115       20.1297  -34.8878  -43.4276 H         1 UNK         0.0970 
    116 H116       20.7248  -33.2681  -46.8973 H         1 UNK         0.0612 
    117 H117       19.6757  -34.2403  -45.8992 H         1 UNK         0.0612 
@<TRIPOS>BOND
     1    1    2 1    
     2    1   62 1    
     3    1   63 1    
     4    1   64 1    
     5    2    3 2    
     6    2    4 am   BACKBONE|DICT|INTERRES
     7    4    5 1    
     8    4   65 1    
     9    5    6 1    
    10    5   25 1    
    11    5   66 1    
    12    6    7 1    
    13    6   67 1    
    14    6   68 1    
    15    7    8 1    
    16    8    9 1    
    17    8   69 1    
    18    8   70 1    
    19    9   10 ar   
    20    9   14 ar   
    21   10   11 ar   
    22   10   71 1    
    23   11   12 ar   
    24   11   61 1    
    25   12   13 ar   
    26   12   72 1    
    27   13   14 ar   
    28   13   15 1    
    29   14   73 1    
    30   15   16 1    
    31   15   74 1    
    32   15   75 1    
    33   16   17 1    
    34   17   18 1    
    35   17   76 1    
    36   17   77 1    
    37   18   19 1    
    38   18   27 1    
    39   18   78 1    
    40   19   20 am   BACKBONE|DICT|INTERRES
    41   19   79 1    
    42   20   21 2    
    43   20   22 1    
    44   22   23 1    
    45   22   24 1    
    46   22   80 1    
    47   23   81 1    
    48   23   82 1    
    49   23   83 1    
    50   24   25 am   BACKBONE|DICT|INTERRES
    51   24   84 1    
    52   25   26 2    
    53   27   28 2    
    54   27   29 am   BACKBONE|DICT|INTERRES
    55   29   30 1    
    56   29   85 1    
    57   30   31 1    
    58   30   32 1    
    59   30   86 1    
    60   31   87 1    
    61   31   88 1    
    62   31   89 1    
    63   32   33 2    
    64   32   34 am   BACKBONE|DICT|INTERRES
    65   34   35 1    
    66   34   90 1    
    67   35   36 1    
    68   35   37 1    
    69   35   91 1    
    70   36   92 1    
    71   36   93 1    
    72   36   94 1    
    73   37   38 2    
    74   37   39 am   BACKBONE|DICT|INTERRES
    75   39   40 1    
    76   39   95 1    
    77   40   41 1    
    78   40   42 1    
    79   40   96 1    
    80   41   97 1    
    81   41   98 1    
    82   41   99 1    
    83   42   43 2    
    84   42   44 am   BACKBONE|DICT|INTERRES
    85   44   45 1    
    86   44  100 1    
    87   45   46 1    
    88   45   47 1    
    89   45  101 1    
    90   46  102 1    
    91   46  103 1    
    92   46  104 1    
    93   47   48 2    
    94   47   49 am   BACKBONE|DICT|INTERRES
    95   49   50 1    
    96   49  105 1    
    97   50   51 1    
    98   50   52 1    
    99   50  106 1    
   100   51  107 1    
   101   51  108 1    
   102   51  109 1    
   103   52   53 2    
   104   52   54 am   BACKBONE|DICT|INTERRES
   105   54   55 1    
   106   54  110 1    
   107   55   56 1    
   108   55   59 1    
   109   55  111 1    
   110   56   57 am   BACKBONE|DICT|INTERRES
   111   56   58 2    
   112   57  112 1    
   113   57  113 1    
   114   59   60 1    
   115   59  114 1    
   116   59  115 1    
   117   60   61 1    
   118   61  116 1    
   119   61  117 1    
@<TRIPOS>SUBSTRUCTURE
     1 UNK         1 GROUP             0       ****    0 ROOT    
