@<TRIPOS>MOLECULE
3R8
117   119    1
SMALL
USER_CHARGES


@<TRIPOS>ATOM
      1 CA         14.9484  -25.2521  -48.6578 C.3       0 UNK        -0.2013 
      2 C          16.3029  -25.9311  -48.5196 C.2       0 UNK         0.4866 
      3 O          17.1965  -25.6875  -49.3317 O.2       0 UNK        -0.5176 
      4 N          16.4590  -26.7879  -47.5035 N.am      1 UNK        -0.4884 
      5 CA         17.7066  -27.4943  -47.1921 C.3       1 UNK         0.0853 
      6 C6         17.4899  -28.6742  -46.2066 C.3       10 UNK        -0.0849 
      7 S7         16.1513  -29.8307  -46.6456 S.3       10 UNK        -0.2776 
      8 C8         15.0079  -29.6089  -45.2403 C.3       10 UNK         0.0316 
      9 C9         15.6430  -29.9567  -43.8964 C.ar      10 UNK        -0.0863 
     10 C10        15.9218  -31.2885  -43.5731 C.ar      10 UNK        -0.1009 
     11 C11        16.4604  -31.6191  -42.3255 C.ar      10 UNK        -0.0712 
     12 C12        16.7240  -30.6043  -41.4005 C.ar      10 UNK        -0.0894 
     13 C13        16.4599  -29.2670  -41.7120 C.ar      10 UNK        -0.0745 
     14 C14        15.9187  -28.9503  -42.9621 C.ar      10 UNK        -0.0972 
     15 C15        16.6903  -28.1799  -40.6683 C.3       10 UNK         0.0209 
     16 S16        18.4366  -28.0268  -40.1687 S.3       10 UNK        -0.2568 
     17 C17        19.1107  -26.8889  -41.4272 C.3       10 UNK        -0.0983 
     18 CA         20.5861  -27.2010  -41.8090 C.3       3 UNK         0.0876 
     19 N          20.9200  -26.6714  -43.1304 N.am      3 UNK        -0.4424 
     20 C          20.6964  -27.3203  -44.2725 C.2       2 UNK         0.4918 
     21 O          20.2515  -28.4689  -44.3250 O.2       2 UNK        -0.4875 
     22 CA         21.0046  -26.5726  -45.5844 C.3       2 UNK         0.0481 
     23 CB         22.4124  -26.9120  -46.0955 C.3       2 UNK        -0.1831 
     24 N          20.0165  -26.9685  -46.5897 N.am      2 UNK        -0.4498 
     25 C          18.7466  -26.5432  -46.5643 C.2       1 UNK         0.5027 
     26 O          18.3785  -25.5268  -45.9671 O.2       1 UNK        -0.4969 
     27 C          21.6254  -26.6917  -40.7906 C.2       3 UNK         0.5005 
     28 O          22.5485  -25.9647  -41.1714 O.2       3 UNK        -0.5279 
     29 N          21.4566  -27.1031  -39.5259 N.am      4 UNK        -0.4463 
     30 CA         22.3762  -26.9824  -38.3857 C.3       4 UNK         0.0283 
     31 CB         22.8588  -25.5318  -38.1702 C.3       4 UNK        -0.1875 
     32 C          23.5481  -27.9742  -38.4915 C.2       4 UNK         0.4949 
     33 O          23.7362  -28.6119  -39.5288 O.2       4 UNK        -0.5039 
     34 N          24.3183  -28.1043  -37.4027 N.am      5 UNK        -0.4663 
     35 CA         25.3801  -29.1069  -37.2151 C.3       5 UNK         0.0242 
     36 CB         25.9864  -28.9346  -35.8127 C.3       5 UNK        -0.1982 
     37 C          26.4943  -29.1162  -38.2805 C.2       5 UNK         0.5017 
     38 O          27.1449  -30.1461  -38.4587 O.2       5 UNK        -0.5012 
     39 N          26.6832  -27.9871  -38.9753 N.am      6 UNK        -0.4439 
     40 CA         27.6088  -27.8390  -40.0989 C.3       6 UNK         0.0297 
     41 CB         27.7999  -26.3421  -40.3936 C.3       6 UNK        -0.2006 
     42 C          27.1669  -28.5810  -41.3765 C.2       6 UNK         0.4892 
     43 O          28.0286  -28.8876  -42.2018 O.2       6 UNK        -0.5089 
     44 N          25.8592  -28.8350  -41.5346 N.am      7 UNK        -0.4243 
     45 CA         25.2709  -29.4507  -42.7297 C.3       7 UNK         0.0196 
     46 CB         24.4021  -28.4074  -43.4491 C.3       7 UNK        -0.2007 
     47 C          24.4325  -30.7008  -42.4239 C.2       7 UNK         0.5020 
     48 O          24.2821  -31.5382  -43.3135 O.2       7 UNK        -0.5147 
     49 N          23.8880  -30.8029  -41.2028 N.am      8 UNK        -0.4734 
     50 CA         22.8999  -31.7830  -40.7426 C.3       8 UNK         0.0238 
     51 CB         23.4353  -33.2322  -40.7963 C.3       8 UNK        -0.1912 
     52 C          21.5605  -31.5739  -41.4682 C.2       8 UNK         0.5038 
     53 O          20.7685  -30.7504  -41.0117 O.2       8 UNK        -0.5046 
     54 N          21.3495  -32.2929  -42.5751 N.am      9 UNK        -0.4200 
     55 CA         20.1987  -32.1637  -43.4739 C.3       9 UNK         0.0839 
     56 C          20.7462  -32.1019  -44.9197 C.2       9 UNK         0.5513 
     57 N          20.7589  -30.9350  -45.5447 N.am      9 UNK        -0.7519 
     58 O          21.1574  -33.1146  -45.4823 O.2       9 UNK        -0.4960 
     59 C59        19.1834  -33.3289  -43.3087 C.3       10 UNK        -0.0876 
     60 S60        18.4603  -33.4394  -41.6367 S.3       10 UNK        -0.2414 
     61 C61        16.7045  -33.0754  -41.9527 C.3       10 UNK         0.0169 
     62 H62        14.5095  -25.4840  -49.6279 H         1 UNK         0.0903 
     63 H63        14.2501  -25.5727  -47.8849 H         1 UNK         0.0903 
     64 H64        15.0621  -24.1708  -48.5846 H         1 UNK         0.0903 
     65 H65        15.6979  -26.9435  -46.8594 H         1 UNK         0.3096 
     66 H66        18.1149  -27.8873  -48.1261 H         1 UNK         0.1121 
     67 H67        18.3999  -29.2718  -46.1340 H         1 UNK         0.0849 
     68 H68        17.3193  -28.2913  -45.2001 H         1 UNK         0.0849 
     69 H69        14.6379  -28.5825  -45.2389 H         1 UNK         0.0865 
     70 H70        14.1337  -30.2428  -45.3959 H         1 UNK         0.0865 
     71 H71        15.7024  -32.0675  -44.2906 H         1 UNK         0.1346 
     72 H72        17.1304  -30.8574  -40.4306 H         1 UNK         0.1412 
     73 H73        15.6945  -27.9196  -43.2012 H         1 UNK         0.1426 
     74 H74        16.1009  -28.4234  -39.7833 H         1 UNK         0.0716 
     75 H75        16.3254  -27.2122  -41.0162 H         1 UNK         0.0716 
     76 H76        18.4786  -26.9770  -42.3127 H         1 UNK         0.0695 
     77 H77        18.9997  -25.8592  -41.0825 H         1 UNK         0.0695 
     78 H78        20.7163  -28.2847  -41.8419 H         1 UNK         0.0983 
     79 H79        21.3810  -25.7709  -43.1247 H         1 UNK         0.3095 
     80 H80        20.9424  -25.4955  -45.4147 H         1 UNK         0.0454 
     81 H81        22.5457  -27.9854  -46.2362 H         1 UNK         0.0851 
     82 H82        22.6174  -26.4215  -47.0472 H         1 UNK         0.0851 
     83 H83        23.1725  -26.5744  -45.3907 H         1 UNK         0.0851 
     84 H84        20.2216  -27.8245  -47.0845 H         1 UNK         0.2976 
     85 H85        20.6510  -27.6943  -39.3585 H         1 UNK         0.3116 
     86 H86        21.7941  -27.2744  -37.5104 H         1 UNK         0.0646 
     87 H87        23.3452  -25.4184  -37.2010 H         1 UNK         0.0847 
     88 H88        22.0263  -24.8288  -38.1938 H         1 UNK         0.0847 
     89 H89        23.5803  -25.2221  -38.9268 H         1 UNK         0.0847 
     90 H90        24.1022  -27.5352  -36.5963 H         1 UNK         0.3040 
     91 H91        24.9027  -30.0883  -37.2607 H         1 UNK         0.1015 
     92 H92        25.2319  -29.0540  -35.0349 H         1 UNK         0.0786 
     93 H93        26.4451  -27.9526  -35.6900 H         1 UNK         0.0786 
     94 H94        26.7599  -29.6810  -35.6253 H         1 UNK         0.0786 
     95 H95        26.0977  -27.1951  -38.7532 H         1 UNK         0.3172 
     96 H96        28.5742  -28.2517  -39.7979 H         1 UNK         0.0595 
     97 H97        28.1892  -25.8113  -39.5246 H         1 UNK         0.0839 
     98 H98        26.8642  -25.8655  -40.6894 H         1 UNK         0.0839 
     99 H99        28.5117  -26.1925  -41.2068 H         1 UNK         0.0839 
    100 H100       25.2159  -28.5704  -40.7947 H         1 UNK         0.2998 
    101 H101       26.0555  -29.7688  -43.4195 H         1 UNK         0.0822 
    102 H102       24.9941  -27.5487  -43.7656 H         1 UNK         0.0787 
    103 H103       23.9414  -28.8345  -44.3406 H         1 UNK         0.0787 
    104 H104       23.5989  -28.0438  -42.8077 H         1 UNK         0.0787 
    105 H105       23.9955  -30.0105  -40.5715 H         1 UNK         0.3055 
    106 H106       22.7130  -31.5499  -39.6926 H         1 UNK         0.1106 
    107 H107       23.7023  -33.5534  -41.8026 H         1 UNK         0.0828 
    108 H108       24.3221  -33.3416  -40.1722 H         1 UNK         0.0828 
    109 H109       22.6892  -33.9331  -40.4197 H         1 UNK         0.0828 
    110 H110       22.1011  -32.8740  -42.9198 H         1 UNK         0.2931 
    111 H111       19.6735  -31.2268  -43.2720 H         1 UNK         0.0412 
    112 H112       20.4798  -30.0830  -45.0609 H         1 UNK         0.3472 
    113 H113       21.1156  -30.8896  -46.4850 H         1 UNK         0.3472 
    114 H114       19.6629  -34.2857  -43.5236 H         1 UNK         0.0970 
    115 H115       18.3798  -33.2275  -44.0403 H         1 UNK         0.0970 
    116 H116       16.3319  -33.7485  -42.7265 H         1 UNK         0.0612 
    117 H117       16.1358  -33.3049  -41.0506 H         1 UNK         0.0612 
@<TRIPOS>BOND
     1    1    2 1    
     2    1   62 1    
     3    1   63 1    
     4    1   64 1    
     5    2    3 2    
     6    2    4 am   BACKBONE|DICT|INTERRES
     7    4    5 1    
     8    4   65 1    
     9    5    6 1    
    10    5   25 1    
    11    5   66 1    
    12    6    7 1    
    13    6   67 1    
    14    6   68 1    
    15    7    8 1    
    16    8    9 1    
    17    8   69 1    
    18    8   70 1    
    19    9   10 ar   
    20    9   14 ar   
    21   10   11 ar   
    22   10   71 1    
    23   11   12 ar   
    24   11   61 1    
    25   12   13 ar   
    26   12   72 1    
    27   13   14 ar   
    28   13   15 1    
    29   14   73 1    
    30   15   16 1    
    31   15   74 1    
    32   15   75 1    
    33   16   17 1    
    34   17   18 1    
    35   17   76 1    
    36   17   77 1    
    37   18   19 1    
    38   18   27 1    
    39   18   78 1    
    40   19   20 am   BACKBONE|DICT|INTERRES
    41   19   79 1    
    42   20   21 2    
    43   20   22 1    
    44   22   23 1    
    45   22   24 1    
    46   22   80 1    
    47   23   81 1    
    48   23   82 1    
    49   23   83 1    
    50   24   25 am   BACKBONE|DICT|INTERRES
    51   24   84 1    
    52   25   26 2    
    53   27   28 2    
    54   27   29 am   BACKBONE|DICT|INTERRES
    55   29   30 1    
    56   29   85 1    
    57   30   31 1    
    58   30   32 1    
    59   30   86 1    
    60   31   87 1    
    61   31   88 1    
    62   31   89 1    
    63   32   33 2    
    64   32   34 am   BACKBONE|DICT|INTERRES
    65   34   35 1    
    66   34   90 1    
    67   35   36 1    
    68   35   37 1    
    69   35   91 1    
    70   36   92 1    
    71   36   93 1    
    72   36   94 1    
    73   37   38 2    
    74   37   39 am   BACKBONE|DICT|INTERRES
    75   39   40 1    
    76   39   95 1    
    77   40   41 1    
    78   40   42 1    
    79   40   96 1    
    80   41   97 1    
    81   41   98 1    
    82   41   99 1    
    83   42   43 2    
    84   42   44 am   BACKBONE|DICT|INTERRES
    85   44   45 1    
    86   44  100 1    
    87   45   46 1    
    88   45   47 1    
    89   45  101 1    
    90   46  102 1    
    91   46  103 1    
    92   46  104 1    
    93   47   48 2    
    94   47   49 am   BACKBONE|DICT|INTERRES
    95   49   50 1    
    96   49  105 1    
    97   50   51 1    
    98   50   52 1    
    99   50  106 1    
   100   51  107 1    
   101   51  108 1    
   102   51  109 1    
   103   52   53 2    
   104   52   54 am   BACKBONE|DICT|INTERRES
   105   54   55 1    
   106   54  110 1    
   107   55   56 1    
   108   55   59 1    
   109   55  111 1    
   110   56   57 am   BACKBONE|DICT|INTERRES
   111   56   58 2    
   112   57  112 1    
   113   57  113 1    
   114   59   60 1    
   115   59  114 1    
   116   59  115 1    
   117   60   61 1    
   118   61  116 1    
   119   61  117 1    
@<TRIPOS>SUBSTRUCTURE
     1 UNK         1 GROUP             0       ****    0 ROOT    
