@<TRIPOS>MOLECULE
3R8
117   119    1
SMALL
USER_CHARGES


@<TRIPOS>ATOM
      1 CA         12.1611  -25.0845  -41.7038 C.3       0 UNK        -0.2013 
      2 C          13.3779  -25.1505  -42.6148 C.2       0 UNK         0.4866 
      3 O          14.2967  -24.3440  -42.4686 O.2       0 UNK        -0.5176 
      4 N          13.3891  -26.0992  -43.5595 N.am      1 UNK        -0.4884 
      5 CA         14.5056  -26.3513  -44.4733 C.3       1 UNK         0.0853 
      6 C6         14.0458  -27.1905  -45.6903 C.3       10 UNK        -0.0849 
      7 S7         15.3183  -27.3270  -46.9957 S.3       10 UNK        -0.2776 
      8 C8         15.8262  -29.0793  -46.8768 C.3       10 UNK         0.0316 
      9 C9         17.3032  -29.2439  -46.5355 C.ar      10 UNK        -0.0863 
     10 C10        17.6986  -29.9676  -45.4033 C.ar      10 UNK        -0.1009 
     11 C11        19.0563  -30.1761  -45.1342 C.ar      10 UNK        -0.0712 
     12 C12        20.0182  -29.6582  -46.0038 C.ar      10 UNK        -0.0894 
     13 C13        19.6379  -28.9045  -47.1153 C.ar      10 UNK        -0.0745 
     14 C14        18.2802  -28.7114  -47.3832 C.ar      10 UNK        -0.0972 
     15 C15        20.6921  -28.2972  -48.0260 C.3       10 UNK         0.0209 
     16 S16        21.0793  -26.5840  -47.5458 S.3       10 UNK        -0.2568 
     17 C17        22.0961  -26.8137  -46.0470 C.3       10 UNK        -0.0983 
     18 CA         21.4715  -26.1457  -44.7966 C.3       3 UNK         0.0876 
     19 N          20.1852  -26.7414  -44.4083 N.am      3 UNK        -0.4424 
     20 C          19.2466  -26.0951  -43.7059 C.2       2 UNK         0.4918 
     21 O          19.2899  -24.8926  -43.4398 O.2       2 UNK        -0.4875 
     22 CA         18.0789  -26.9312  -43.1773 C.3       2 UNK         0.0481 
     23 CB         18.0662  -26.9440  -41.6351 C.3       2 UNK        -0.1831 
     24 N          16.8358  -26.3942  -43.7137 N.am      2 UNK        -0.4498 
     25 C          15.6605  -27.0327  -43.7139 C.2       1 UNK         0.5027 
     26 O          15.4619  -28.1227  -43.1706 O.2       1 UNK        -0.4969 
     27 C          22.4756  -26.1509  -43.6219 C.2       3 UNK         0.5005 
     28 O          23.4365  -25.3820  -43.6554 O.2       3 UNK        -0.5279 
     29 N          22.2549  -27.0175  -42.6177 N.am      4 UNK        -0.4463 
     30 CA         22.9715  -27.1687  -41.3391 C.3       4 UNK         0.0283 
     31 CB         22.8882  -25.8768  -40.5045 C.3       4 UNK        -0.1875 
     32 C          24.4277  -27.6677  -41.4264 C.2       4 UNK         0.4949 
     33 O          24.9044  -28.2738  -40.4672 O.2       4 UNK        -0.5039 
     34 N          25.1048  -27.4417  -42.5595 N.am      5 UNK        -0.4663 
     35 CA         26.5148  -27.7667  -42.8189 C.3       5 UNK         0.0242 
     36 CB         26.8817  -27.2821  -44.2309 C.3       5 UNK        -0.1982 
     37 C          26.8948  -29.2502  -42.6473 C.2       5 UNK         0.5017 
     38 O          28.0590  -29.5443  -42.3754 O.2       5 UNK        -0.5012 
     39 N          25.9127  -30.1512  -42.7860 N.am      6 UNK        -0.4439 
     40 CA         26.0518  -31.5921  -42.5551 C.3       6 UNK         0.0297 
     41 CB         24.9149  -32.3265  -43.2852 C.3       6 UNK        -0.2006 
     42 C          26.0914  -31.9914  -41.0643 C.2       6 UNK         0.4892 
     43 O          26.2871  -33.1733  -40.7791 O.2       6 UNK        -0.5089 
     44 N          25.8742  -31.0363  -40.1446 N.am      7 UNK        -0.4243 
     45 CA         25.8828  -31.1410  -38.6757 C.3       7 UNK         0.0196 
     46 CB         27.2332  -31.6602  -38.1443 C.3       7 UNK        -0.2007 
     47 C          24.7048  -31.9319  -38.0797 C.2       7 UNK         0.5020 
     48 O          24.1317  -31.4934  -37.0827 O.2       7 UNK        -0.5147 
     49 N          24.3404  -33.0605  -38.7008 N.am      8 UNK        -0.4734 
     50 CA         23.1386  -33.8411  -38.3818 C.3       8 UNK         0.0238 
     51 CB         23.2665  -35.2407  -39.0044 C.3       8 UNK        -0.1912 
     52 C          21.8464  -33.1524  -38.8608 C.2       8 UNK         0.5038 
     53 O          20.7807  -33.3927  -38.2928 O.2       8 UNK        -0.5046 
     54 N          21.9764  -32.3139  -39.8955 N.am      9 UNK        -0.4200 
     55 CA         20.9413  -31.4260  -40.4317 C.3       9 UNK         0.0839 
     56 C          20.5881  -30.3009  -39.4184 C.2       9 UNK         0.5513 
     57 N          19.3077  -30.0448  -39.1888 N.am      9 UNK        -0.7519 
     58 O          21.4670  -29.6410  -38.8697 O.2       9 UNK        -0.4960 
     59 C59        21.4149  -30.8744  -41.8002 C.3       10 UNK        -0.0876 
     60 S60        20.2053  -29.8206  -42.6637 S.3       10 UNK        -0.2414 
     61 C61        19.5086  -30.9522  -43.9079 C.3       10 UNK         0.0169 
     62 H62        12.4613  -25.2295  -40.6664 H         1 UNK         0.0903 
     63 H63        11.6826  -24.1091  -41.7870 H         1 UNK         0.0903 
     64 H64        11.4225  -25.8465  -41.9527 H         1 UNK         0.0903 
     65 H65        12.6217  -26.7544  -43.6124 H         1 UNK         0.3096 
     66 H66        14.8521  -25.3850  -44.8479 H         1 UNK         0.1121 
     67 H67        13.7015  -28.1773  -45.3765 H         1 UNK         0.0849 
     68 H68        13.1773  -26.7139  -46.1481 H         1 UNK         0.0849 
     69 H69        15.2094  -29.6141  -46.1540 H         1 UNK         0.0865 
     70 H70        15.6375  -29.5587  -47.8383 H         1 UNK         0.0865 
     71 H71        16.9517  -30.3734  -44.7342 H         1 UNK         0.1346 
     72 H72        21.0661  -29.8304  -45.8000 H         1 UNK         0.1412 
     73 H73        17.9816  -28.1428  -48.2537 H         1 UNK         0.1426 
     74 H74        21.6028  -28.8983  -48.0224 H         1 UNK         0.0716 
     75 H75        20.3319  -28.2997  -49.0559 H         1 UNK         0.0716 
     76 H76        22.2856  -27.8725  -45.8703 H         1 UNK         0.0695 
     77 H77        23.0712  -26.3725  -46.2635 H         1 UNK         0.0695 
     78 H78        21.3005  -25.0948  -45.0422 H         1 UNK         0.0983 
     79 H79        20.0388  -27.7116  -44.6536 H         1 UNK         0.3095 
     80 H80        18.1861  -27.9539  -43.5354 H         1 UNK         0.0454 
     81 H81        17.8659  -25.9530  -41.2264 H         1 UNK         0.0851 
     82 H82        17.3111  -27.6262  -41.2454 H         1 UNK         0.0851 
     83 H83        19.0270  -27.2734  -41.2376 H         1 UNK         0.0851 
     84 H84        16.9182  -25.4934  -44.1670 H         1 UNK         0.2976 
     85 H85        21.4644  -27.6389  -42.7260 H         1 UNK         0.3116 
     86 H86        22.4241  -27.9377  -40.7931 H         1 UNK         0.0646 
     87 H87        23.3184  -26.0264  -39.5132 H         1 UNK         0.0847 
     88 H88        21.8543  -25.5618  -40.3634 H         1 UNK         0.0847 
     89 H89        23.4302  -25.0537  -40.9709 H         1 UNK         0.0847 
     90 H90        24.6400  -26.8554  -43.2461 H         1 UNK         0.3040 
     91 H91        27.1113  -27.2042  -42.0974 H         1 UNK         0.1015 
     92 H92        26.7233  -26.2085  -44.3359 H         1 UNK         0.0786 
     93 H93        26.2890  -27.7853  -44.9960 H         1 UNK         0.0786 
     94 H94        27.9327  -27.4755  -44.4516 H         1 UNK         0.0786 
     95 H95        24.9934  -29.8073  -43.0217 H         1 UNK         0.3172 
     96 H96        26.9965  -31.9187  -42.9950 H         1 UNK         0.0595 
     97 H97        23.9387  -32.0562  -42.8873 H         1 UNK         0.0839 
     98 H98        25.0182  -33.4080  -43.1855 H         1 UNK         0.0839 
     99 H99        24.9175  -32.1028  -44.3522 H         1 UNK         0.0839 
    100 H100       25.6644  -30.1007  -40.4823 H         1 UNK         0.2998 
    101 H101       25.7705  -30.1148  -38.3208 H         1 UNK         0.0822 
    102 H102       28.0626  -31.0588  -38.5168 H         1 UNK         0.0787 
    103 H103       27.2634  -31.6153  -37.0549 H         1 UNK         0.0787 
    104 H104       27.4157  -32.6969  -38.4285 H         1 UNK         0.0787 
    105 H105       24.9128  -33.3652  -39.4850 H         1 UNK         0.3055 
    106 H106       23.0704  -33.9488  -37.2968 H         1 UNK         0.1106 
    107 H107       22.3948  -35.8534  -38.7699 H         1 UNK         0.0828 
    108 H108       23.3506  -35.1946  -40.0910 H         1 UNK         0.0828 
    109 H109       24.1421  -35.7659  -38.6223 H         1 UNK         0.0828 
    110 H110       22.9091  -32.1709  -40.2484 H         1 UNK         0.2931 
    111 H111       20.0500  -32.0330  -40.6044 H         1 UNK         0.0412 
    112 H112       19.0625  -29.3117  -38.5425 H         1 UNK         0.3472 
    113 H113       18.5824  -30.5710  -39.6503 H         1 UNK         0.3472 
    114 H114       22.3303  -30.2939  -41.6748 H         1 UNK         0.0970 
    115 H115       21.6797  -31.7062  -42.4530 H         1 UNK         0.0970 
    116 H116       20.2516  -31.6892  -44.2151 H         1 UNK         0.0612 
    117 H117       18.6807  -31.5079  -43.4652 H         1 UNK         0.0612 
@<TRIPOS>BOND
     1    1    2 1    
     2    1   62 1    
     3    1   63 1    
     4    1   64 1    
     5    2    3 2    
     6    2    4 am   BACKBONE|DICT|INTERRES
     7    4    5 1    
     8    4   65 1    
     9    5    6 1    
    10    5   25 1    
    11    5   66 1    
    12    6    7 1    
    13    6   67 1    
    14    6   68 1    
    15    7    8 1    
    16    8    9 1    
    17    8   69 1    
    18    8   70 1    
    19    9   10 ar   
    20    9   14 ar   
    21   10   11 ar   
    22   10   71 1    
    23   11   12 ar   
    24   11   61 1    
    25   12   13 ar   
    26   12   72 1    
    27   13   14 ar   
    28   13   15 1    
    29   14   73 1    
    30   15   16 1    
    31   15   74 1    
    32   15   75 1    
    33   16   17 1    
    34   17   18 1    
    35   17   76 1    
    36   17   77 1    
    37   18   19 1    
    38   18   27 1    
    39   18   78 1    
    40   19   20 am   BACKBONE|DICT|INTERRES
    41   19   79 1    
    42   20   21 2    
    43   20   22 1    
    44   22   23 1    
    45   22   24 1    
    46   22   80 1    
    47   23   81 1    
    48   23   82 1    
    49   23   83 1    
    50   24   25 am   BACKBONE|DICT|INTERRES
    51   24   84 1    
    52   25   26 2    
    53   27   28 2    
    54   27   29 am   BACKBONE|DICT|INTERRES
    55   29   30 1    
    56   29   85 1    
    57   30   31 1    
    58   30   32 1    
    59   30   86 1    
    60   31   87 1    
    61   31   88 1    
    62   31   89 1    
    63   32   33 2    
    64   32   34 am   BACKBONE|DICT|INTERRES
    65   34   35 1    
    66   34   90 1    
    67   35   36 1    
    68   35   37 1    
    69   35   91 1    
    70   36   92 1    
    71   36   93 1    
    72   36   94 1    
    73   37   38 2    
    74   37   39 am   BACKBONE|DICT|INTERRES
    75   39   40 1    
    76   39   95 1    
    77   40   41 1    
    78   40   42 1    
    79   40   96 1    
    80   41   97 1    
    81   41   98 1    
    82   41   99 1    
    83   42   43 2    
    84   42   44 am   BACKBONE|DICT|INTERRES
    85   44   45 1    
    86   44  100 1    
    87   45   46 1    
    88   45   47 1    
    89   45  101 1    
    90   46  102 1    
    91   46  103 1    
    92   46  104 1    
    93   47   48 2    
    94   47   49 am   BACKBONE|DICT|INTERRES
    95   49   50 1    
    96   49  105 1    
    97   50   51 1    
    98   50   52 1    
    99   50  106 1    
   100   51  107 1    
   101   51  108 1    
   102   51  109 1    
   103   52   53 2    
   104   52   54 am   BACKBONE|DICT|INTERRES
   105   54   55 1    
   106   54  110 1    
   107   55   56 1    
   108   55   59 1    
   109   55  111 1    
   110   56   57 am   BACKBONE|DICT|INTERRES
   111   56   58 2    
   112   57  112 1    
   113   57  113 1    
   114   59   60 1    
   115   59  114 1    
   116   59  115 1    
   117   60   61 1    
   118   61  116 1    
   119   61  117 1    
@<TRIPOS>SUBSTRUCTURE
     1 UNK         1 GROUP             0       ****    0 ROOT    
