@<TRIPOS>MOLECULE
3R8
117   119    1
SMALL
USER_CHARGES


@<TRIPOS>ATOM
      1 CA         19.0917  -25.4638  -51.0583 C.3       0 UNK        -0.2013 
      2 C          19.6958  -26.2565  -49.9087 C.2       0 UNK         0.4866 
      3 O          20.4816  -27.1752  -50.1435 O.2       0 UNK        -0.5176 
      4 N          19.3407  -25.9062  -48.6698 N.am      1 UNK        -0.4884 
      5 CA         19.8143  -26.5407  -47.4407 C.3       1 UNK         0.0853 
      6 C6         19.1532  -27.9222  -47.1512 C.3       10 UNK        -0.0849 
      7 S7         17.3272  -27.9791  -47.3024 S.3       10 UNK        -0.2776 
      8 C8         16.7354  -27.5487  -45.6237 C.3       10 UNK         0.0316 
      9 C9         16.8170  -28.6407  -44.5529 C.ar      10 UNK        -0.0863 
     10 C10        17.5290  -29.8360  -44.7208 C.ar      10 UNK        -0.1009 
     11 C11        17.5977  -30.7788  -43.6906 C.ar      10 UNK        -0.0712 
     12 C12        16.9228  -30.5415  -42.4906 C.ar      10 UNK        -0.0894 
     13 C13        16.1989  -29.3602  -42.3095 C.ar      10 UNK        -0.0745 
     14 C14        16.1559  -28.4164  -43.3401 C.ar      10 UNK        -0.0972 
     15 C15        15.4687  -29.1008  -40.9984 C.3       10 UNK         0.0209 
     16 S16        16.6167  -28.7468  -39.6283 S.3       10 UNK        -0.2568 
     17 C17        17.4060  -27.1963  -40.1817 C.3       10 UNK        -0.0983 
     18 CA         18.7687  -27.4427  -40.8816 C.3       3 UNK         0.0876 
     19 N          19.0741  -26.3676  -41.8282 N.am      3 UNK        -0.4424 
     20 C          19.9396  -26.4948  -42.8376 C.2       2 UNK         0.4918 
     21 O          20.6230  -27.5008  -43.0353 O.2       2 UNK        -0.4875 
     22 CA         20.0381  -25.3227  -43.8207 C.3       2 UNK         0.0481 
     23 CB         21.2067  -24.3887  -43.4732 C.3       2 UNK        -0.1831 
     24 N          20.2549  -25.9114  -45.1354 N.am      2 UNK        -0.4498 
     25 C          19.6426  -25.5614  -46.2689 C.2       1 UNK         0.5027 
     26 O          18.9401  -24.5539  -46.3974 O.2       1 UNK        -0.4969 
     27 C          19.9104  -27.6706  -39.8673 C.2       3 UNK         0.5005 
     28 O          20.6721  -26.7458  -39.5683 O.2       3 UNK        -0.5279 
     29 N          19.9639  -28.8965  -39.3269 N.am      4 UNK        -0.4463 
     30 CA         20.8872  -29.3784  -38.2965 C.3       4 UNK         0.0283 
     31 CB         20.6167  -28.6658  -36.9507 C.3       4 UNK        -0.1875 
     32 C          22.3571  -29.3295  -38.7561 C.2       4 UNK         0.4949 
     33 O          22.6391  -29.6137  -39.9223 O.2       4 UNK        -0.5039 
     34 N          23.2727  -28.9890  -37.8386 N.am      5 UNK        -0.4663 
     35 CA         24.7318  -28.9913  -38.0118 C.3       5 UNK         0.0242 
     36 CB         25.3880  -28.6466  -36.6643 C.3       5 UNK        -0.1982 
     37 C          25.2770  -28.0755  -39.1248 C.2       5 UNK         0.5017 
     38 O          26.4402  -28.2260  -39.4993 O.2       5 UNK        -0.5012 
     39 N          24.4416  -27.1661  -39.6471 N.am      6 UNK        -0.4439 
     40 CA         24.7373  -26.3300  -40.8120 C.3       6 UNK         0.0297 
     41 CB         23.6337  -25.2742  -40.9688 C.3       6 UNK        -0.2006 
     42 C          24.9085  -27.1381  -42.1142 C.2       6 UNK         0.4892 
     43 O          25.6627  -26.7028  -42.9852 O.2       6 UNK        -0.5089 
     44 N          24.2343  -28.2930  -42.2146 N.am      7 UNK        -0.4243 
     45 CA         24.3799  -29.2528  -43.3141 C.3       7 UNK         0.0196 
     46 CB         23.0840  -29.2855  -44.1375 C.3       7 UNK        -0.2007 
     47 C          24.7366  -30.6643  -42.8191 C.2       7 UNK         0.5020 
     48 O          25.2951  -31.4373  -43.5972 O.2       7 UNK        -0.5147 
     49 N          24.4083  -30.9853  -41.5569 N.am      8 UNK        -0.4734 
     50 CA         24.5986  -32.2760  -40.8780 C.3       8 UNK         0.0238 
     51 CB         26.0938  -32.6464  -40.7778 C.3       8 UNK        -0.1912 
     52 C          23.7300  -33.4129  -41.4554 C.2       8 UNK         0.5038 
     53 O          24.0621  -34.5864  -41.2798 O.2       8 UNK        -0.5046 
     54 N          22.6241  -33.0451  -42.1137 N.am      9 UNK        -0.4200 
     55 CA         21.6228  -33.9525  -42.6933 C.3       9 UNK         0.0839 
     56 C          20.5895  -34.5201  -41.6766 C.2       9 UNK         0.5513 
     57 N          20.5805  -34.0877  -40.4210 N.am      9 UNK        -0.7519 
     58 O          19.7892  -35.3811  -42.0326 O.2       9 UNK        -0.4960 
     59 C59        20.9429  -33.3148  -43.9339 C.3       10 UNK        -0.0876 
     60 S60        20.1839  -31.6873  -43.5976 S.3       10 UNK        -0.2414 
     61 C61        18.4235  -32.0415  -43.8722 C.3       10 UNK         0.0169 
     62 H62        18.5296  -26.1266  -51.7156 H         1 UNK         0.0903 
     63 H63        18.4164  -24.6845  -50.7053 H         1 UNK         0.0903 
     64 H64        19.8798  -24.9906  -51.6435 H         1 UNK         0.0903 
     65 H65        18.7227  -25.1203  -48.5053 H         1 UNK         0.3096 
     66 H66        20.8912  -26.6940  -47.5460 H         1 UNK         0.1121 
     67 H67        19.4552  -28.3041  -46.1749 H         1 UNK         0.0849 
     68 H68        19.5453  -28.6477  -47.8654 H         1 UNK         0.0849 
     69 H69        17.2590  -26.6639  -45.2640 H         1 UNK         0.0865 
     70 H70        15.6903  -27.2521  -45.7248 H         1 UNK         0.0865 
     71 H71        18.0518  -30.0436  -45.6424 H         1 UNK         0.1346 
     72 H72        16.9729  -31.2675  -41.6905 H         1 UNK         0.1412 
     73 H73        15.6041  -27.4971  -43.1960 H         1 UNK         0.1426 
     74 H74        14.8735  -29.9780  -40.7406 H         1 UNK         0.0716 
     75 H75        14.7633  -28.2745  -41.1003 H         1 UNK         0.0716 
     76 H76        17.5150  -26.5262  -39.3265 H         1 UNK         0.0695 
     77 H77        16.7133  -26.6941  -40.8589 H         1 UNK         0.0695 
     78 H78        18.6875  -28.3544  -41.4786 H         1 UNK         0.0983 
     79 H79        18.5844  -25.4952  -41.6969 H         1 UNK         0.3095 
     80 H80        19.1003  -24.7631  -43.8011 H         1 UNK         0.0454 
     81 H81        22.1635  -24.9079  -43.5344 H         1 UNK         0.0851 
     82 H82        21.1069  -23.9921  -42.4621 H         1 UNK         0.0851 
     83 H83        21.2463  -23.5385  -44.1542 H         1 UNK         0.0851 
     84 H84        20.7682  -26.7836  -45.0966 H         1 UNK         0.2976 
     85 H85        19.2918  -29.5779  -39.6522 H         1 UNK         0.3116 
     86 H86        20.6555  -30.4355  -38.1594 H         1 UNK         0.0646 
     87 H87        20.9077  -27.6148  -36.9771 H         1 UNK         0.0847 
     88 H88        21.1536  -29.1421  -36.1295 H         1 UNK         0.0847 
     89 H89        19.5578  -28.7051  -36.6945 H         1 UNK         0.0847 
     90 H90        22.9402  -28.7534  -36.9144 H         1 UNK         0.3040 
     91 H91        25.0231  -30.0087  -38.2815 H         1 UNK         0.1015 
     92 H92        25.1114  -27.6473  -36.3257 H         1 UNK         0.0786 
     93 H93        26.4763  -28.6755  -36.7382 H         1 UNK         0.0786 
     94 H94        25.1020  -29.3571  -35.8885 H         1 UNK         0.0786 
     95 H95        23.5005  -27.1221  -39.2801 H         1 UNK         0.3172 
     96 H96        25.6790  -25.8120  -40.6184 H         1 UNK         0.0595 
     97 H97        23.8597  -24.5969  -41.7931 H         1 UNK         0.0839 
     98 H98        23.5324  -24.6653  -40.0703 H         1 UNK         0.0839 
     99 H99        22.6659  -25.7338  -41.1731 H         1 UNK         0.0839 
    100 H100       23.6145  -28.5546  -41.4566 H         1 UNK         0.2998 
    101 H101       25.1928  -28.9472  -43.9762 H         1 UNK         0.0822 
    102 H102       23.1484  -30.0089  -44.9514 H         1 UNK         0.0787 
    103 H103       22.2292  -29.5610  -43.5202 H         1 UNK         0.0787 
    104 H104       22.8745  -28.3123  -44.5812 H         1 UNK         0.0787 
    105 H105       23.8701  -30.3148  -41.0118 H         1 UNK         0.3055 
    106 H106       24.2362  -32.1282  -39.8594 H         1 UNK         0.1106 
    107 H107       26.5163  -32.9003  -41.7501 H         1 UNK         0.0828 
    108 H108       26.6781  -31.8264  -40.3605 H         1 UNK         0.0828 
    109 H109       26.2400  -33.5099  -40.1278 H         1 UNK         0.0828 
    110 H110       22.4189  -32.0603  -42.1993 H         1 UNK         0.2931 
    111 H111       22.1619  -34.8281  -43.0601 H         1 UNK         0.0412 
    112 H112       21.2317  -33.3822  -40.1192 H         1 UNK         0.3472 
    113 H113       19.9104  -34.4699  -39.7725 H         1 UNK         0.3472 
    114 H114       20.2060  -33.9945  -44.3661 H         1 UNK         0.0970 
    115 H115       21.6904  -33.1693  -44.7152 H         1 UNK         0.0970 
    116 H116       18.2817  -32.4346  -44.8801 H         1 UNK         0.0612 
    117 H117       18.0974  -32.8203  -43.1808 H         1 UNK         0.0612 
@<TRIPOS>BOND
     1    1    2 1    
     2    1   62 1    
     3    1   63 1    
     4    1   64 1    
     5    2    3 2    
     6    2    4 am   BACKBONE|DICT|INTERRES
     7    4    5 1    
     8    4   65 1    
     9    5    6 1    
    10    5   25 1    
    11    5   66 1    
    12    6    7 1    
    13    6   67 1    
    14    6   68 1    
    15    7    8 1    
    16    8    9 1    
    17    8   69 1    
    18    8   70 1    
    19    9   10 ar   
    20    9   14 ar   
    21   10   11 ar   
    22   10   71 1    
    23   11   12 ar   
    24   11   61 1    
    25   12   13 ar   
    26   12   72 1    
    27   13   14 ar   
    28   13   15 1    
    29   14   73 1    
    30   15   16 1    
    31   15   74 1    
    32   15   75 1    
    33   16   17 1    
    34   17   18 1    
    35   17   76 1    
    36   17   77 1    
    37   18   19 1    
    38   18   27 1    
    39   18   78 1    
    40   19   20 am   BACKBONE|DICT|INTERRES
    41   19   79 1    
    42   20   21 2    
    43   20   22 1    
    44   22   23 1    
    45   22   24 1    
    46   22   80 1    
    47   23   81 1    
    48   23   82 1    
    49   23   83 1    
    50   24   25 am   BACKBONE|DICT|INTERRES
    51   24   84 1    
    52   25   26 2    
    53   27   28 2    
    54   27   29 am   BACKBONE|DICT|INTERRES
    55   29   30 1    
    56   29   85 1    
    57   30   31 1    
    58   30   32 1    
    59   30   86 1    
    60   31   87 1    
    61   31   88 1    
    62   31   89 1    
    63   32   33 2    
    64   32   34 am   BACKBONE|DICT|INTERRES
    65   34   35 1    
    66   34   90 1    
    67   35   36 1    
    68   35   37 1    
    69   35   91 1    
    70   36   92 1    
    71   36   93 1    
    72   36   94 1    
    73   37   38 2    
    74   37   39 am   BACKBONE|DICT|INTERRES
    75   39   40 1    
    76   39   95 1    
    77   40   41 1    
    78   40   42 1    
    79   40   96 1    
    80   41   97 1    
    81   41   98 1    
    82   41   99 1    
    83   42   43 2    
    84   42   44 am   BACKBONE|DICT|INTERRES
    85   44   45 1    
    86   44  100 1    
    87   45   46 1    
    88   45   47 1    
    89   45  101 1    
    90   46  102 1    
    91   46  103 1    
    92   46  104 1    
    93   47   48 2    
    94   47   49 am   BACKBONE|DICT|INTERRES
    95   49   50 1    
    96   49  105 1    
    97   50   51 1    
    98   50   52 1    
    99   50  106 1    
   100   51  107 1    
   101   51  108 1    
   102   51  109 1    
   103   52   53 2    
   104   52   54 am   BACKBONE|DICT|INTERRES
   105   54   55 1    
   106   54  110 1    
   107   55   56 1    
   108   55   59 1    
   109   55  111 1    
   110   56   57 am   BACKBONE|DICT|INTERRES
   111   56   58 2    
   112   57  112 1    
   113   57  113 1    
   114   59   60 1    
   115   59  114 1    
   116   59  115 1    
   117   60   61 1    
   118   61  116 1    
   119   61  117 1    
@<TRIPOS>SUBSTRUCTURE
     1 UNK         1 GROUP             0       ****    0 ROOT    
