@<TRIPOS>MOLECULE
3R8
117   119    1
SMALL
USER_CHARGES


@<TRIPOS>ATOM
      1 CA         17.2355  -23.9686  -48.6738 C.3       0 UNK        -0.2013 
      2 C          17.3560  -25.0337  -47.5948 C.2       0 UNK         0.4866 
      3 O          18.4638  -25.3292  -47.1445 O.2       0 UNK        -0.5176 
      4 N          16.2255  -25.6088  -47.1653 N.am      1 UNK        -0.4884 
      5 CA         16.1383  -26.6602  -46.1432 C.3       1 UNK         0.0853 
      6 C6         14.8800  -27.5471  -46.3422 C.3       10 UNK        -0.0849 
      7 S7         15.0779  -28.6303  -47.8010 S.3       10 UNK        -0.2776 
      8 C8         15.3945  -30.2686  -47.0507 C.3       10 UNK         0.0316 
      9 C9         16.4371  -30.2232  -45.9387 C.ar      10 UNK        -0.0863 
     10 C10        17.7639  -29.8823  -46.2213 C.ar      10 UNK        -0.1009 
     11 C11        18.7021  -29.7569  -45.1910 C.ar      10 UNK        -0.0712 
     12 C12        18.3084  -30.0260  -43.8765 C.ar      10 UNK        -0.0894 
     13 C13        16.9934  -30.3924  -43.5808 C.ar      10 UNK        -0.0745 
     14 C14        16.0619  -30.4880  -44.6176 C.ar      10 UNK        -0.0972 
     15 C15        16.5706  -30.6781  -42.1460 C.3       10 UNK         0.0209 
     16 S16        15.8536  -29.1994  -41.3587 S.3       10 UNK        -0.2568 
     17 C17        17.1075  -28.7686  -40.1011 C.3       10 UNK        -0.0983 
     18 CA         18.2992  -27.9612  -40.6762 C.3       3 UNK         0.0876 
     19 N          17.8644  -26.7544  -41.3861 N.am      3 UNK        -0.4424 
     20 C          18.5052  -26.2160  -42.4273 C.2       2 UNK         0.4918 
     21 O          19.5783  -26.6409  -42.8607 O.2       2 UNK        -0.4875 
     22 CA         17.8317  -25.0206  -43.1124 C.3       2 UNK         0.0481 
     23 CB         18.7997  -23.8328  -43.2395 C.3       2 UNK        -0.1831 
     24 N          17.4033  -25.4411  -44.4416 N.am      2 UNK        -0.4498 
     25 C          16.2598  -26.0797  -44.7179 C.2       1 UNK         0.5027 
     26 O          15.3401  -26.2095  -43.9079 O.2       1 UNK        -0.4969 
     27 C          19.3854  -27.6445  -39.6255 C.2       3 UNK         0.5005 
     28 O          19.2204  -27.9639  -38.4462 O.2       3 UNK        -0.5279 
     29 N          20.4824  -27.0260  -40.0751 N.am      4 UNK        -0.4463 
     30 CA         21.6832  -26.7469  -39.2976 C.3       4 UNK         0.0283 
     31 CB         21.5066  -25.4592  -38.4726 C.3       4 UNK        -0.1875 
     32 C          22.8581  -26.6290  -40.2721 C.2       4 UNK         0.4949 
     33 O          22.7577  -25.8895  -41.2529 O.2       4 UNK        -0.5039 
     34 N          23.9426  -27.3494  -39.9806 N.am      5 UNK        -0.4663 
     35 CA         25.1835  -27.4257  -40.7478 C.3       5 UNK         0.0242 
     36 CB         24.9469  -28.1416  -42.0944 C.3       5 UNK        -0.1982 
     37 C          26.2168  -28.1852  -39.9033 C.2       5 UNK         0.5017 
     38 O          25.8933  -28.6482  -38.8050 O.2       5 UNK        -0.5012 
     39 N          27.4381  -28.3194  -40.4367 N.am      6 UNK        -0.4439 
     40 CA         28.5294  -29.0862  -39.8267 C.3       6 UNK         0.0297 
     41 CB         29.8442  -28.7665  -40.5568 C.3       6 UNK        -0.2006 
     42 C          28.2837  -30.6080  -39.8077 C.2       6 UNK         0.4892 
     43 O          28.8256  -31.2878  -38.9350 O.2       6 UNK        -0.5089 
     44 N          27.4845  -31.1149  -40.7553 N.am      7 UNK        -0.4243 
     45 CA         27.1113  -32.5195  -40.8939 C.3       7 UNK         0.0196 
     46 CB         28.2758  -33.3184  -41.5129 C.3       7 UNK        -0.2007 
     47 C          25.8563  -32.6256  -41.7688 C.2       7 UNK         0.5020 
     48 O          25.5488  -31.6913  -42.5142 O.2       7 UNK        -0.5147 
     49 N          25.1864  -33.7832  -41.6832 N.am      8 UNK        -0.4734 
     50 CA         24.0050  -34.2233  -42.4400 C.3       8 UNK         0.0238 
     51 CB         24.2988  -34.3078  -43.9528 C.3       8 UNK        -0.1912 
     52 C          22.7295  -33.4132  -42.1511 C.2       8 UNK         0.5038 
     53 O          21.7772  -33.9672  -41.6006 O.2       8 UNK        -0.5046 
     54 N          22.7277  -32.1353  -42.5393 N.am      9 UNK        -0.4200 
     55 CA         21.6223  -31.1919  -42.3431 C.3       9 UNK         0.0839 
     56 C          21.5307  -30.7502  -40.8604 C.2       9 UNK         0.5513 
     57 N          20.3952  -30.9712  -40.2126 N.am      9 UNK        -0.7519 
     58 O          22.4674  -30.1821  -40.3076 O.2       9 UNK        -0.4960 
     59 C59        21.7583  -29.9763  -43.2952 C.3       10 UNK        -0.0876 
     60 S60        21.4229  -30.4374  -45.0313 S.3       10 UNK        -0.2414 
     61 C61        20.1116  -29.2603  -45.5004 C.3       10 UNK         0.0169 
     62 H62        17.8075  -24.2612  -49.5539 H         1 UNK         0.0903 
     63 H63        16.2011  -23.8113  -48.9787 H         1 UNK         0.0903 
     64 H64        17.6304  -23.0203  -48.3102 H         1 UNK         0.0903 
     65 H65        15.3428  -25.3144  -47.5590 H         1 UNK         0.3096 
     66 H66        17.0114  -27.3049  -46.2533 H         1 UNK         0.1121 
     67 H67        14.6815  -28.1680  -45.4672 H         1 UNK         0.0849 
     68 H68        13.9889  -26.9307  -46.4715 H         1 UNK         0.0849 
     69 H69        15.7285  -30.9567  -47.8285 H         1 UNK         0.0865 
     70 H70        14.4506  -30.6689  -46.6773 H         1 UNK         0.0865 
     71 H71        18.0492  -29.6640  -47.2416 H         1 UNK         0.1346 
     72 H72        19.0246  -29.9442  -43.0784 H         1 UNK         0.1412 
     73 H73        15.0378  -30.7506  -44.3889 H         1 UNK         0.1426 
     74 H74        17.4164  -31.0510  -41.5675 H         1 UNK         0.0716 
     75 H75        15.8256  -31.4752  -42.1353 H         1 UNK         0.0716 
     76 H76        17.4552  -29.6865  -39.6233 H         1 UNK         0.0695 
     77 H77        16.6070  -28.1945  -39.3192 H         1 UNK         0.0695 
     78 H78        18.7930  -28.6151  -41.3921 H         1 UNK         0.0983 
     79 H79        16.9822  -26.3600  -41.0928 H         1 UNK         0.3095 
     80 H80        16.9680  -24.6974  -42.5274 H         1 UNK         0.0454 
     81 H81        19.1475  -23.5076  -42.2582 H         1 UNK         0.0851 
     82 H82        18.3167  -22.9779  -43.7128 H         1 UNK         0.0851 
     83 H83        19.6814  -24.0869  -43.8296 H         1 UNK         0.0851 
     84 H84        18.0922  -25.3801  -45.1859 H         1 UNK         0.2976 
     85 H85        20.5436  -26.7939  -41.0638 H         1 UNK         0.3116 
     86 H86        21.8685  -27.5840  -38.6203 H         1 UNK         0.0646 
     87 H87        20.6920  -25.5544  -37.7546 H         1 UNK         0.0847 
     88 H88        21.2933  -24.6000  -39.1097 H         1 UNK         0.0847 
     89 H89        22.4114  -25.2316  -37.9078 H         1 UNK         0.0847 
     90 H90        23.9546  -27.9317  -39.1501 H         1 UNK         0.3040 
     91 H91        25.5525  -26.4128  -40.9218 H         1 UNK         0.1015 
     92 H92        25.8530  -28.1719  -42.6999 H         1 UNK         0.0786 
     93 H93        24.1884  -27.6390  -42.6938 H         1 UNK         0.0786 
     94 H94        24.6259  -29.1717  -41.9373 H         1 UNK         0.0786 
     95 H95        27.6264  -27.8997  -41.3362 H         1 UNK         0.3172 
     96 H96        28.6304  -28.7591  -38.7895 H         1 UNK         0.0595 
     97 H97        29.8051  -29.0561  -41.6077 H         1 UNK         0.0839 
     98 H98        30.6808  -29.3009  -40.1040 H         1 UNK         0.0839 
     99 H99        30.0789  -27.7030  -40.5080 H         1 UNK         0.0839 
    100 H100       27.0373  -30.4988  -41.4226 H         1 UNK         0.2998 
    101 H101       26.8746  -32.9189  -39.9053 H         1 UNK         0.0822 
    102 H102       28.0124  -34.3693  -41.6391 H         1 UNK         0.0787 
    103 H103       29.1644  -33.2860  -40.8823 H         1 UNK         0.0787 
    104 H104       28.5492  -32.9304  -42.4950 H         1 UNK         0.0787 
    105 H105       25.5280  -34.4618  -41.0155 H         1 UNK         0.3055 
    106 H106       23.8002  -35.2406  -42.1009 H         1 UNK         0.1106 
    107 H107       25.1317  -34.9809  -44.1555 H         1 UNK         0.0828 
    108 H108       23.4340  -34.6919  -44.4955 H         1 UNK         0.0828 
    109 H109       24.5440  -33.3370  -44.3842 H         1 UNK         0.0828 
    110 H110       23.6022  -31.7530  -42.8829 H         1 UNK         0.2931 
    111 H111       20.6958  -31.7115  -42.5980 H         1 UNK         0.0412 
    112 H112       19.6529  -31.5053  -40.6345 H         1 UNK         0.3472 
    113 H113       20.3258  -30.6892  -39.2472 H         1 UNK         0.3472 
    114 H114       22.7643  -29.5625  -43.2460 H         1 UNK         0.0970 
    115 H115       21.0995  -29.1600  -42.9948 H         1 UNK         0.0970 
    116 H116       20.2751  -28.3000  -45.0095 H         1 UNK         0.0612 
    117 H117       20.2121  -29.0657  -46.5691 H         1 UNK         0.0612 
@<TRIPOS>BOND
     1    1    2 1    
     2    1   62 1    
     3    1   63 1    
     4    1   64 1    
     5    2    3 2    
     6    2    4 am   BACKBONE|DICT|INTERRES
     7    4    5 1    
     8    4   65 1    
     9    5    6 1    
    10    5   25 1    
    11    5   66 1    
    12    6    7 1    
    13    6   67 1    
    14    6   68 1    
    15    7    8 1    
    16    8    9 1    
    17    8   69 1    
    18    8   70 1    
    19    9   10 ar   
    20    9   14 ar   
    21   10   11 ar   
    22   10   71 1    
    23   11   12 ar   
    24   11   61 1    
    25   12   13 ar   
    26   12   72 1    
    27   13   14 ar   
    28   13   15 1    
    29   14   73 1    
    30   15   16 1    
    31   15   74 1    
    32   15   75 1    
    33   16   17 1    
    34   17   18 1    
    35   17   76 1    
    36   17   77 1    
    37   18   19 1    
    38   18   27 1    
    39   18   78 1    
    40   19   20 am   BACKBONE|DICT|INTERRES
    41   19   79 1    
    42   20   21 2    
    43   20   22 1    
    44   22   23 1    
    45   22   24 1    
    46   22   80 1    
    47   23   81 1    
    48   23   82 1    
    49   23   83 1    
    50   24   25 am   BACKBONE|DICT|INTERRES
    51   24   84 1    
    52   25   26 2    
    53   27   28 2    
    54   27   29 am   BACKBONE|DICT|INTERRES
    55   29   30 1    
    56   29   85 1    
    57   30   31 1    
    58   30   32 1    
    59   30   86 1    
    60   31   87 1    
    61   31   88 1    
    62   31   89 1    
    63   32   33 2    
    64   32   34 am   BACKBONE|DICT|INTERRES
    65   34   35 1    
    66   34   90 1    
    67   35   36 1    
    68   35   37 1    
    69   35   91 1    
    70   36   92 1    
    71   36   93 1    
    72   36   94 1    
    73   37   38 2    
    74   37   39 am   BACKBONE|DICT|INTERRES
    75   39   40 1    
    76   39   95 1    
    77   40   41 1    
    78   40   42 1    
    79   40   96 1    
    80   41   97 1    
    81   41   98 1    
    82   41   99 1    
    83   42   43 2    
    84   42   44 am   BACKBONE|DICT|INTERRES
    85   44   45 1    
    86   44  100 1    
    87   45   46 1    
    88   45   47 1    
    89   45  101 1    
    90   46  102 1    
    91   46  103 1    
    92   46  104 1    
    93   47   48 2    
    94   47   49 am   BACKBONE|DICT|INTERRES
    95   49   50 1    
    96   49  105 1    
    97   50   51 1    
    98   50   52 1    
    99   50  106 1    
   100   51  107 1    
   101   51  108 1    
   102   51  109 1    
   103   52   53 2    
   104   52   54 am   BACKBONE|DICT|INTERRES
   105   54   55 1    
   106   54  110 1    
   107   55   56 1    
   108   55   59 1    
   109   55  111 1    
   110   56   57 am   BACKBONE|DICT|INTERRES
   111   56   58 2    
   112   57  112 1    
   113   57  113 1    
   114   59   60 1    
   115   59  114 1    
   116   59  115 1    
   117   60   61 1    
   118   61  116 1    
   119   61  117 1    
@<TRIPOS>SUBSTRUCTURE
     1 UNK         1 GROUP             0       ****    0 ROOT    
