@<TRIPOS>MOLECULE
3R8
117   119    1
SMALL
USER_CHARGES


@<TRIPOS>ATOM
      1 CA         15.3579  -22.9394  -42.0332 C.3       0 UNK        -0.2013 
      2 C          16.3874  -24.0567  -41.9503 C.2       0 UNK         0.4866 
      3 O          17.1510  -24.1094  -40.9857 O.2       0 UNK        -0.5176 
      4 N          16.4071  -24.9453  -42.9536 N.am      1 UNK        -0.4884 
      5 CA         17.3249  -26.0842  -43.0960 C.3       1 UNK         0.0853 
      6 C6         17.1115  -27.1890  -42.0183 C.3       10 UNK        -0.0849 
      7 S7         15.4611  -27.9570  -42.1545 S.3       10 UNK        -0.2776 
      8 C8         15.8428  -29.7331  -41.9211 C.3       10 UNK         0.0316 
      9 C9         16.5752  -30.4429  -43.0662 C.ar      10 UNK        -0.0863 
     10 C10        16.8847  -31.7977  -42.9065 C.ar      10 UNK        -0.1009 
     11 C11        17.5473  -32.5140  -43.9097 C.ar      10 UNK        -0.0712 
     12 C12        17.9214  -31.8544  -45.0854 C.ar      10 UNK        -0.0894 
     13 C13        17.6087  -30.5036  -45.2726 C.ar      10 UNK        -0.0745 
     14 C14        16.9269  -29.8116  -44.2664 C.ar      10 UNK        -0.0972 
     15 C15        17.9373  -29.8072  -46.5889 C.3       10 UNK         0.0209 
     16 S16        18.9316  -28.2948  -46.3685 S.3       10 UNK        -0.2568 
     17 C17        20.6170  -28.9797  -46.2564 C.3       10 UNK        -0.0983 
     18 CA         21.6468  -27.9248  -45.7738 C.3       3 UNK         0.0876 
     19 N          21.2917  -27.3899  -44.4600 N.am      3 UNK        -0.4424 
     20 C          21.7973  -26.2954  -43.8774 C.2       2 UNK         0.4918 
     21 O          22.6839  -25.6020  -44.3784 O.2       2 UNK        -0.4875 
     22 CA         21.1734  -25.9086  -42.5173 C.3       2 UNK         0.0481 
     23 CB         21.5224  -24.4700  -42.0842 C.3       2 UNK        -0.1831 
     24 N          19.7211  -26.1397  -42.4609 N.am      2 UNK        -0.4498 
     25 C          18.7842  -25.5966  -43.2572 C.2       1 UNK         0.5027 
     26 O          19.0303  -24.7591  -44.1281 O.2       1 UNK        -0.4969 
     27 C          23.0789  -28.4953  -45.7645 C.2       3 UNK         0.5005 
     28 O          23.2697  -29.6536  -45.3904 O.2       3 UNK        -0.5279 
     29 N          24.0521  -27.6581  -46.1546 N.am      4 UNK        -0.4463 
     30 CA         25.4878  -27.9396  -46.3144 C.3       4 UNK         0.0283 
     31 CB         25.7174  -29.0267  -47.3860 C.3       4 UNK        -0.1875 
     32 C          26.2564  -28.2535  -45.0130 C.2       4 UNK         0.4949 
     33 O          27.4487  -28.5552  -45.0849 O.2       4 UNK        -0.5039 
     34 N          25.5981  -28.1556  -43.8542 N.am      5 UNK        -0.4663 
     35 CA         26.1491  -28.4085  -42.5266 C.3       5 UNK         0.0242 
     36 CB         26.3391  -29.9221  -42.3066 C.3       5 UNK        -0.1982 
     37 C          25.1892  -27.8319  -41.4823 C.2       5 UNK         0.5017 
     38 O          24.0031  -27.6523  -41.7758 O.2       5 UNK        -0.5012 
     39 N          25.7084  -27.5779  -40.2739 N.am      6 UNK        -0.4439 
     40 CA         24.9331  -27.1353  -39.1131 C.3       6 UNK         0.0297 
     41 CB         25.8836  -26.8199  -37.9465 C.3       6 UNK        -0.2006 
     42 C          23.8994  -28.1994  -38.7089 C.2       6 UNK         0.4892 
     43 O          24.2747  -29.3538  -38.4961 O.2       6 UNK        -0.5089 
     44 N          22.6261  -27.7851  -38.6507 N.am      7 UNK        -0.4243 
     45 CA         21.4324  -28.6174  -38.4429 C.3       7 UNK         0.0196 
     46 CB         21.4541  -29.3015  -37.0585 C.3       7 UNK        -0.2007 
     47 C          21.1529  -29.6100  -39.5928 C.2       7 UNK         0.5020 
     48 O          20.4253  -30.5829  -39.3844 O.2       7 UNK        -0.5147 
     49 N          21.6972  -29.3354  -40.7907 N.am      8 UNK        -0.4734 
     50 CA         21.5380  -30.1064  -42.0280 C.3       8 UNK         0.0238 
     51 CB         20.0898  -29.9770  -42.5535 C.3       8 UNK        -0.1912 
     52 C          22.0094  -31.5620  -41.8577 C.2       8 UNK         0.5038 
     53 O          23.1806  -31.7834  -41.5479 O.2       8 UNK        -0.5046 
     54 N          21.0952  -32.5175  -42.0554 N.am      9 UNK        -0.4200 
     55 CA         21.3097  -33.9519  -41.8466 C.3       9 UNK         0.0839 
     56 C          21.3847  -34.3955  -40.3539 C.2       9 UNK         0.5513 
     57 N          21.1139  -33.5347  -39.3785 N.am      9 UNK        -0.7519 
     58 O          21.7095  -35.5474  -40.0766 O.2       9 UNK        -0.4960 
     59 C59        20.2945  -34.7864  -42.6697 C.3       10 UNK        -0.0876 
     60 S60        18.5495  -34.5058  -42.1959 S.3       10 UNK        -0.2414 
     61 C61        17.7629  -34.0185  -43.7691 C.3       10 UNK         0.0169 
     62 H62        14.7432  -23.0151  -42.9299 H         1 UNK         0.0903 
     63 H63        14.6980  -22.9732  -41.1667 H         1 UNK         0.0903 
     64 H64        15.8563  -21.9704  -42.0445 H         1 UNK         0.0903 
     65 H65        15.7625  -24.8236  -43.7225 H         1 UNK         0.3096 
     66 H66        17.0891  -26.5274  -44.0646 H         1 UNK         0.1121 
     67 H67        17.8493  -27.9828  -42.1227 H         1 UNK         0.0849 
     68 H68        17.2297  -26.7896  -41.0098 H         1 UNK         0.0849 
     69 H69        16.4234  -29.8456  -41.0040 H         1 UNK         0.0865 
     70 H70        14.8993  -30.2530  -41.7482 H         1 UNK         0.0865 
     71 H71        16.5868  -32.3081  -42.0004 H         1 UNK         0.1346 
     72 H72        18.4180  -32.4036  -45.8737 H         1 UNK         0.1412 
     73 H73        16.6669  -28.7793  -44.4405 H         1 UNK         0.1426 
     74 H74        17.0000  -29.5354  -47.0762 H         1 UNK         0.0716 
     75 H75        18.4527  -30.4810  -47.2752 H         1 UNK         0.0716 
     76 H76        20.8923  -29.3536  -47.2444 H         1 UNK         0.0695 
     77 H77        20.6037  -29.8471  -45.5956 H         1 UNK         0.0695 
     78 H78        21.6202  -27.0957  -46.4848 H         1 UNK         0.0983 
     79 H79        20.5485  -27.8772  -43.9874 H         1 UNK         0.3095 
     80 H80        21.6084  -26.5817  -41.7794 H         1 UNK         0.0454 
     81 H81        22.6017  -24.3435  -41.9904 H         1 UNK         0.0851 
     82 H82        21.0830  -24.2284  -41.1166 H         1 UNK         0.0851 
     83 H83        21.1705  -23.7325  -42.8061 H         1 UNK         0.0851 
     84 H84        19.4128  -26.7795  -41.7433 H         1 UNK         0.2976 
     85 H85        23.7863  -26.6992  -46.3411 H         1 UNK         0.3116 
     86 H86        25.9246  -27.0145  -46.6934 H         1 UNK         0.0646 
     87 H87        25.3612  -30.0030  -47.0558 H         1 UNK         0.0847 
     88 H88        25.2093  -28.7807  -48.3183 H         1 UNK         0.0847 
     89 H89        26.7780  -29.1327  -47.6171 H         1 UNK         0.0847 
     90 H90        24.6249  -27.8750  -43.8557 H         1 UNK         0.3040 
     91 H91        27.1097  -27.8962  -42.4387 H         1 UNK         0.1015 
     92 H92        27.0697  -30.3406  -42.9987 H         1 UNK         0.0786 
     93 H93        26.6942  -30.1354  -41.2976 H         1 UNK         0.0786 
     94 H94        25.4025  -30.4640  -42.4433 H         1 UNK         0.0786 
     95 H95        26.6816  -27.7913  -40.1092 H         1 UNK         0.3172 
     96 H96        24.4145  -26.2148  -39.3902 H         1 UNK         0.0595 
     97 H97        26.4511  -27.6989  -37.6377 H         1 UNK         0.0839 
     98 H98        25.3276  -26.4702  -37.0755 H         1 UNK         0.0839 
     99 H99        26.5939  -26.0364  -38.2116 H         1 UNK         0.0839 
    100 H100       22.4410  -26.8098  -38.8420 H         1 UNK         0.2998 
    101 H101       20.5878  -27.9268  -38.4461 H         1 UNK         0.0822 
    102 H102       20.4934  -29.7689  -36.8389 H         1 UNK         0.0787 
    103 H103       21.6525  -28.5836  -36.2628 H         1 UNK         0.0787 
    104 H104       22.2117  -30.0837  -37.0035 H         1 UNK         0.0787 
    105 H105       22.3668  -28.5755  -40.8484 H         1 UNK         0.3055 
    106 H106       22.2094  -29.6624  -42.7651 H         1 UNK         0.1106 
    107 H107       19.3553  -30.3709  -41.8502 H         1 UNK         0.0828 
    108 H108       19.8294  -28.9406  -42.7410 H         1 UNK         0.0828 
    109 H109       19.9613  -30.5111  -43.4940 H         1 UNK         0.0828 
    110 H110       20.1454  -32.2471  -42.2646 H         1 UNK         0.2931 
    111 H111       22.2952  -34.1807  -42.2570 H         1 UNK         0.0412 
    112 H112       21.1727  -33.8440  -38.4217 H         1 UNK         0.3472 
    113 H113       20.8537  -32.5752  -39.5801 H         1 UNK         0.3472 
    114 H114       20.4290  -34.5655  -43.7292 H         1 UNK         0.0970 
    115 H115       20.5092  -35.8519  -42.5692 H         1 UNK         0.0970 
    116 H116       18.3285  -34.4176  -44.6120 H         1 UNK         0.0612 
    117 H117       16.7850  -34.4993  -43.8155 H         1 UNK         0.0612 
@<TRIPOS>BOND
     1    1    2 1    
     2    1   62 1    
     3    1   63 1    
     4    1   64 1    
     5    2    3 2    
     6    2    4 am   BACKBONE|DICT|INTERRES
     7    4    5 1    
     8    4   65 1    
     9    5    6 1    
    10    5   25 1    
    11    5   66 1    
    12    6    7 1    
    13    6   67 1    
    14    6   68 1    
    15    7    8 1    
    16    8    9 1    
    17    8   69 1    
    18    8   70 1    
    19    9   10 ar   
    20    9   14 ar   
    21   10   11 ar   
    22   10   71 1    
    23   11   12 ar   
    24   11   61 1    
    25   12   13 ar   
    26   12   72 1    
    27   13   14 ar   
    28   13   15 1    
    29   14   73 1    
    30   15   16 1    
    31   15   74 1    
    32   15   75 1    
    33   16   17 1    
    34   17   18 1    
    35   17   76 1    
    36   17   77 1    
    37   18   19 1    
    38   18   27 1    
    39   18   78 1    
    40   19   20 am   BACKBONE|DICT|INTERRES
    41   19   79 1    
    42   20   21 2    
    43   20   22 1    
    44   22   23 1    
    45   22   24 1    
    46   22   80 1    
    47   23   81 1    
    48   23   82 1    
    49   23   83 1    
    50   24   25 am   BACKBONE|DICT|INTERRES
    51   24   84 1    
    52   25   26 2    
    53   27   28 2    
    54   27   29 am   BACKBONE|DICT|INTERRES
    55   29   30 1    
    56   29   85 1    
    57   30   31 1    
    58   30   32 1    
    59   30   86 1    
    60   31   87 1    
    61   31   88 1    
    62   31   89 1    
    63   32   33 2    
    64   32   34 am   BACKBONE|DICT|INTERRES
    65   34   35 1    
    66   34   90 1    
    67   35   36 1    
    68   35   37 1    
    69   35   91 1    
    70   36   92 1    
    71   36   93 1    
    72   36   94 1    
    73   37   38 2    
    74   37   39 am   BACKBONE|DICT|INTERRES
    75   39   40 1    
    76   39   95 1    
    77   40   41 1    
    78   40   42 1    
    79   40   96 1    
    80   41   97 1    
    81   41   98 1    
    82   41   99 1    
    83   42   43 2    
    84   42   44 am   BACKBONE|DICT|INTERRES
    85   44   45 1    
    86   44  100 1    
    87   45   46 1    
    88   45   47 1    
    89   45  101 1    
    90   46  102 1    
    91   46  103 1    
    92   46  104 1    
    93   47   48 2    
    94   47   49 am   BACKBONE|DICT|INTERRES
    95   49   50 1    
    96   49  105 1    
    97   50   51 1    
    98   50   52 1    
    99   50  106 1    
   100   51  107 1    
   101   51  108 1    
   102   51  109 1    
   103   52   53 2    
   104   52   54 am   BACKBONE|DICT|INTERRES
   105   54   55 1    
   106   54  110 1    
   107   55   56 1    
   108   55   59 1    
   109   55  111 1    
   110   56   57 am   BACKBONE|DICT|INTERRES
   111   56   58 2    
   112   57  112 1    
   113   57  113 1    
   114   59   60 1    
   115   59  114 1    
   116   59  115 1    
   117   60   61 1    
   118   61  116 1    
   119   61  117 1    
@<TRIPOS>SUBSTRUCTURE
     1 UNK         1 GROUP             0       ****    0 ROOT    
