@<TRIPOS>MOLECULE
3R8
117   119    1
SMALL
USER_CHARGES


@<TRIPOS>ATOM
      1 CA         13.7492  -25.1600  -40.9758 C.3       0 UNK        -0.2013 
      2 C          14.8300  -24.9366  -42.0229 C.2       0 UNK         0.4866 
      3 O          15.5442  -23.9363  -41.9591 O.2       0 UNK        -0.5176 
      4 N          14.9440  -25.8563  -42.9892 N.am      1 UNK        -0.4884 
      5 CA         15.9562  -25.8688  -44.0507 C.3       1 UNK         0.0853 
      6 C6         15.5670  -26.8027  -45.2318 C.3       10 UNK        -0.0849 
      7 S7         14.8074  -28.3921  -44.7287 S.3       10 UNK        -0.2776 
      8 C8         15.4278  -29.5391  -45.9988 C.3       10 UNK         0.0316 
      9 C9         16.8895  -29.8851  -45.7688 C.ar      10 UNK        -0.0863 
     10 C10        17.2559  -30.6607  -44.6660 C.ar      10 UNK        -0.1009 
     11 C11        18.5991  -30.9536  -44.4211 C.ar      10 UNK        -0.0712 
     12 C12        19.5788  -30.4898  -45.3030 C.ar      10 UNK        -0.0894 
     13 C13        19.2215  -29.7268  -46.4176 C.ar      10 UNK        -0.0745 
     14 C14        17.8755  -29.4263  -46.6461 C.ar      10 UNK        -0.0972 
     15 C15        20.2841  -29.2181  -47.3764 C.3       10 UNK         0.0209 
     16 S16        20.7000  -27.4796  -47.0455 S.3       10 UNK        -0.2568 
     17 C17        21.8862  -27.6245  -45.6676 C.3       10 UNK        -0.0983 
     18 CA         21.5951  -26.5843  -44.5509 C.3       3 UNK         0.0876 
     19 N          20.3662  -26.8607  -43.7961 N.am      3 UNK        -0.4424 
     20 C          20.1305  -27.8526  -42.9294 C.2       2 UNK         0.4918 
     21 O          20.9641  -28.7040  -42.6201 O.2       2 UNK        -0.4875 
     22 CA         18.7424  -27.9057  -42.2520 C.3       2 UNK         0.0481 
     23 CB         18.8107  -27.2495  -40.8601 C.3       2 UNK        -0.1831 
     24 N          17.5879  -27.3837  -43.0086 N.am      2 UNK        -0.4498 
     25 C          17.3600  -26.1462  -43.4749 C.2       1 UNK         0.5027 
     26 O          18.1871  -25.2340  -43.4381 O.2       1 UNK        -0.4969 
     27 C          22.8148  -26.2804  -43.6486 C.2       3 UNK         0.5005 
     28 O          23.9445  -26.6058  -44.0189 O.2       3 UNK        -0.5279 
     29 N          22.5655  -25.6157  -42.5064 N.am      4 UNK        -0.4463 
     30 CA         23.5267  -25.0022  -41.5766 C.3       4 UNK         0.0283 
     31 CB         23.9823  -23.6347  -42.1313 C.3       4 UNK        -0.1875 
     32 C          24.7065  -25.9176  -41.1939 C.2       4 UNK         0.4949 
     33 O          24.5632  -26.7463  -40.2947 O.2       4 UNK        -0.5039 
     34 N          25.8348  -25.7743  -41.9057 N.am      5 UNK        -0.4663 
     35 CA         27.0616  -26.5688  -41.7756 C.3       5 UNK         0.0242 
     36 CB         28.1276  -25.9968  -42.7240 C.3       5 UNK        -0.1982 
     37 C          26.8807  -28.0803  -42.0175 C.2       5 UNK         0.5017 
     38 O          27.7282  -28.8570  -41.5763 O.2       5 UNK        -0.5012 
     39 N          25.7744  -28.4797  -42.6643 N.am      6 UNK        -0.4439 
     40 CA         25.3206  -29.8706  -42.7696 C.3       6 UNK         0.0297 
     41 CB         24.1851  -29.9586  -43.8009 C.3       6 UNK        -0.2006 
     42 C          24.8748  -30.4880  -41.4260 C.2       6 UNK         0.4892 
     43 O          24.6770  -31.7020  -41.3768 O.2       6 UNK        -0.5089 
     44 N          24.7162  -29.6649  -40.3744 N.am      7 UNK        -0.4243 
     45 CA         24.4265  -30.0368  -38.9831 C.3       7 UNK         0.0196 
     46 CB         25.6302  -30.7766  -38.3616 C.3       7 UNK        -0.2007 
     47 C          23.1031  -30.8066  -38.8300 C.2       7 UNK         0.5020 
     48 O          23.0422  -31.8016  -38.1061 O.2       7 UNK        -0.5147 
     49 N          22.0738  -30.3378  -39.5499 N.am      8 UNK        -0.4734 
     50 CA         20.7326  -30.9250  -39.6585 C.3       8 UNK         0.0238 
     51 CB         19.9970  -30.9064  -38.3012 C.3       8 UNK        -0.1912 
     52 C          20.7090  -32.3103  -40.3386 C.2       8 UNK         0.5038 
     53 O          19.7411  -33.0481  -40.1533 O.2       8 UNK        -0.5046 
     54 N          21.7392  -32.5989  -41.1509 N.am      9 UNK        -0.4200 
     55 CA         21.8811  -33.7236  -42.0943 C.3       9 UNK         0.0839 
     56 C          21.6954  -35.1631  -41.5243 C.2       9 UNK         0.5513 
     57 N          21.8071  -35.3718  -40.2184 N.am      9 UNK        -0.7519 
     58 O          21.5003  -36.1151  -42.2762 O.2       9 UNK        -0.4960 
     59 C59        21.1862  -33.4581  -43.4665 C.3       10 UNK        -0.0876 
     60 S60        19.3578  -33.4605  -43.4596 S.3       10 UNK        -0.2414 
     61 C61        18.9913  -31.7025  -43.1615 C.3       10 UNK         0.0169 
     62 H62        13.1863  -26.0753  -41.1587 H         1 UNK         0.0903 
     63 H63        14.1964  -25.2298  -39.9845 H         1 UNK         0.0903 
     64 H64        13.0483  -24.3256  -40.9757 H         1 UNK         0.0903 
     65 H65        14.3264  -26.6571  -42.9903 H         1 UNK         0.3096 
     66 H66        16.0019  -24.8556  -44.4578 H         1 UNK         0.1121 
     67 H67        16.4248  -26.9816  -45.8830 H         1 UNK         0.0849 
     68 H68        14.8352  -26.2907  -45.8587 H         1 UNK         0.0849 
     69 H69        14.8359  -30.4551  -45.9679 H         1 UNK         0.0865 
     70 H70        15.2724  -29.1087  -46.9895 H         1 UNK         0.0865 
     71 H71        16.4945  -31.0089  -43.9811 H         1 UNK         0.1346 
     72 H72        20.6200  -30.7038  -45.1086 H         1 UNK         0.1412 
     73 H73        17.6009  -28.8253  -47.5025 H         1 UNK         0.1426 
     74 H74        21.1846  -29.8326  -47.3270 H         1 UNK         0.0716 
     75 H75        19.9166  -29.3013  -48.4003 H         1 UNK         0.0716 
     76 H76        22.8745  -27.4781  -46.1063 H         1 UNK         0.0695 
     77 H77        21.8818  -28.6358  -45.2621 H         1 UNK         0.0695 
     78 H78        21.4109  -25.6313  -45.0498 H         1 UNK         0.0983 
     79 H79        19.6170  -26.1810  -43.9100 H         1 UNK         0.3095 
     80 H80        18.5251  -28.9632  -42.0987 H         1 UNK         0.0454 
     81 H81        17.8837  -27.3988  -40.3067 H         1 UNK         0.0851 
     82 H82        18.9911  -26.1761  -40.9254 H         1 UNK         0.0851 
     83 H83        19.6158  -27.6778  -40.2612 H         1 UNK         0.0851 
     84 H84        16.8466  -28.0554  -43.1620 H         1 UNK         0.2976 
     85 H85        21.5939  -25.4474  -42.2866 H         1 UNK         0.3116 
     86 H86        22.9815  -24.8123  -40.6506 H         1 UNK         0.0646 
     87 H87        23.1411  -22.9456  -42.2070 H         1 UNK         0.0847 
     88 H88        24.7177  -23.1661  -41.4754 H         1 UNK         0.0847 
     89 H89        24.4257  -23.7163  -43.1243 H         1 UNK         0.0847 
     90 H90        25.8223  -25.1008  -42.6581 H         1 UNK         0.3040 
     91 H91        27.4159  -26.4541  -40.7489 H         1 UNK         0.1015 
     92 H92        27.8143  -26.0609  -43.7670 H         1 UNK         0.0786 
     93 H93        29.0676  -26.5430  -42.6319 H         1 UNK         0.0786 
     94 H94        28.3406  -24.9514  -42.4994 H         1 UNK         0.0786 
     95 H95        25.1528  -27.7653  -43.0387 H         1 UNK         0.3172 
     96 H96        26.1582  -30.4675  -43.1361 H         1 UNK         0.0595 
     97 H97        23.3085  -29.4035  -43.4707 H         1 UNK         0.0839 
     98 H98        23.8753  -30.9925  -43.9585 H         1 UNK         0.0839 
     99 H99        24.4909  -29.5595  -44.7681 H         1 UNK         0.0839 
    100 H100       24.8319  -28.6668  -40.5290 H         1 UNK         0.2998 
    101 H101       24.2980  -29.1005  -38.4377 H         1 UNK         0.0822 
    102 H102       25.4758  -30.9501  -37.2959 H         1 UNK         0.0787 
    103 H103       25.7930  -31.7482  -38.8295 H         1 UNK         0.0787 
    104 H104       26.5475  -30.1969  -38.4657 H         1 UNK         0.0787 
    105 H105       22.2423  -29.5284  -40.1337 H         1 UNK         0.3055 
    106 H106       20.1785  -30.2689  -40.3314 H         1 UNK         0.1106 
    107 H107       18.9490  -31.1841  -38.4205 H         1 UNK         0.0828 
    108 H108       20.4364  -31.6066  -37.5904 H         1 UNK         0.0828 
    109 H109       20.0166  -29.9136  -37.8520 H         1 UNK         0.0828 
    110 H110       22.5259  -31.9618  -41.1487 H         1 UNK         0.2931 
    111 H111       22.9476  -33.7072  -42.3212 H         1 UNK         0.0412 
    112 H112       21.7028  -36.3054  -39.8534 H         1 UNK         0.3472 
    113 H113       21.9613  -34.5957  -39.5935 H         1 UNK         0.3472 
    114 H114       21.5090  -34.2085  -44.1902 H         1 UNK         0.0970 
    115 H115       21.5391  -32.5106  -43.8740 H         1 UNK         0.0970 
    116 H116       18.1953  -31.6381  -42.4181 H         1 UNK         0.0612 
    117 H117       19.8529  -31.2025  -42.7228 H         1 UNK         0.0612 
@<TRIPOS>BOND
     1    1    2 1    
     2    1   62 1    
     3    1   63 1    
     4    1   64 1    
     5    2    3 2    
     6    2    4 am   BACKBONE|DICT|INTERRES
     7    4    5 1    
     8    4   65 1    
     9    5    6 1    
    10    5   25 1    
    11    5   66 1    
    12    6    7 1    
    13    6   67 1    
    14    6   68 1    
    15    7    8 1    
    16    8    9 1    
    17    8   69 1    
    18    8   70 1    
    19    9   10 ar   
    20    9   14 ar   
    21   10   11 ar   
    22   10   71 1    
    23   11   12 ar   
    24   11   61 1    
    25   12   13 ar   
    26   12   72 1    
    27   13   14 ar   
    28   13   15 1    
    29   14   73 1    
    30   15   16 1    
    31   15   74 1    
    32   15   75 1    
    33   16   17 1    
    34   17   18 1    
    35   17   76 1    
    36   17   77 1    
    37   18   19 1    
    38   18   27 1    
    39   18   78 1    
    40   19   20 am   BACKBONE|DICT|INTERRES
    41   19   79 1    
    42   20   21 2    
    43   20   22 1    
    44   22   23 1    
    45   22   24 1    
    46   22   80 1    
    47   23   81 1    
    48   23   82 1    
    49   23   83 1    
    50   24   25 am   BACKBONE|DICT|INTERRES
    51   24   84 1    
    52   25   26 2    
    53   27   28 2    
    54   27   29 am   BACKBONE|DICT|INTERRES
    55   29   30 1    
    56   29   85 1    
    57   30   31 1    
    58   30   32 1    
    59   30   86 1    
    60   31   87 1    
    61   31   88 1    
    62   31   89 1    
    63   32   33 2    
    64   32   34 am   BACKBONE|DICT|INTERRES
    65   34   35 1    
    66   34   90 1    
    67   35   36 1    
    68   35   37 1    
    69   35   91 1    
    70   36   92 1    
    71   36   93 1    
    72   36   94 1    
    73   37   38 2    
    74   37   39 am   BACKBONE|DICT|INTERRES
    75   39   40 1    
    76   39   95 1    
    77   40   41 1    
    78   40   42 1    
    79   40   96 1    
    80   41   97 1    
    81   41   98 1    
    82   41   99 1    
    83   42   43 2    
    84   42   44 am   BACKBONE|DICT|INTERRES
    85   44   45 1    
    86   44  100 1    
    87   45   46 1    
    88   45   47 1    
    89   45  101 1    
    90   46  102 1    
    91   46  103 1    
    92   46  104 1    
    93   47   48 2    
    94   47   49 am   BACKBONE|DICT|INTERRES
    95   49   50 1    
    96   49  105 1    
    97   50   51 1    
    98   50   52 1    
    99   50  106 1    
   100   51  107 1    
   101   51  108 1    
   102   51  109 1    
   103   52   53 2    
   104   52   54 am   BACKBONE|DICT|INTERRES
   105   54   55 1    
   106   54  110 1    
   107   55   56 1    
   108   55   59 1    
   109   55  111 1    
   110   56   57 am   BACKBONE|DICT|INTERRES
   111   56   58 2    
   112   57  112 1    
   113   57  113 1    
   114   59   60 1    
   115   59  114 1    
   116   59  115 1    
   117   60   61 1    
   118   61  116 1    
   119   61  117 1    
@<TRIPOS>SUBSTRUCTURE
     1 UNK         1 GROUP             0       ****    0 ROOT    
