@<TRIPOS>MOLECULE
3R8
117   119    1
SMALL
USER_CHARGES


@<TRIPOS>ATOM
      1 CA         18.0372  -25.8153  -48.1243 C.3       0 UNK        -0.2013 
      2 C          16.9855  -24.8631  -47.5639 C.2       0 UNK         0.4866 
      3 O          16.8164  -23.7714  -48.1040 O.2       0 UNK        -0.5176 
      4 N          16.2604  -25.2085  -46.4934 N.am      1 UNK        -0.4884 
      5 CA         16.3631  -26.4287  -45.6857 C.3       1 UNK         0.0853 
      6 C6         15.1552  -27.3781  -45.9179 C.3       10 UNK        -0.0849 
      7 S7         15.3490  -28.3226  -47.4667 S.3       10 UNK        -0.2776 
      8 C8         15.9064  -29.9573  -46.8701 C.3       10 UNK         0.0316 
      9 C9         17.0783  -29.8722  -45.8973 C.ar      10 UNK        -0.0863 
     10 C10        16.9186  -30.2906  -44.5728 C.ar      10 UNK        -0.1009 
     11 C11        17.9794  -30.2060  -43.6675 C.ar      10 UNK        -0.0712 
     12 C12        19.2059  -29.6849  -44.0907 C.ar      10 UNK        -0.0894 
     13 C13        19.3809  -29.2666  -45.4123 C.ar      10 UNK        -0.0745 
     14 C14        18.3183  -29.3778  -46.3154 C.ar      10 UNK        -0.0972 
     15 C15        20.7185  -28.7058  -45.8714 C.3       10 UNK         0.0209 
     16 S16        20.8829  -26.9359  -45.4699 S.3       10 UNK        -0.2568 
     17 C17        21.6648  -26.9694  -43.8205 C.3       10 UNK        -0.0983 
     18 CA         20.8563  -26.1898  -42.7540 C.3       3 UNK         0.0876 
     19 N          19.5088  -26.7380  -42.5801 N.am      3 UNK        -0.4424 
     20 C          18.5424  -26.2476  -41.7905 C.2       2 UNK         0.4918 
     21 O          18.6866  -25.2978  -41.0201 O.2       2 UNK        -0.4875 
     22 CA         17.1697  -26.9303  -41.9415 C.3       2 UNK         0.0481 
     23 CB         16.0569  -26.2784  -41.0932 C.3       2 UNK        -0.1831 
     24 N          16.7886  -27.0438  -43.3571 N.am      2 UNK        -0.4498 
     25 C          16.5164  -26.0372  -44.2040 C.2       1 UNK         0.5027 
     26 O          16.4130  -24.8550  -43.8650 O.2       1 UNK        -0.4969 
     27 C          21.6630  -26.0970  -41.4443 C.2       3 UNK         0.5005 
     28 O          22.3078  -25.0730  -41.2116 O.2       3 UNK        -0.5279 
     29 N          21.6449  -27.1704  -40.6363 N.am      4 UNK        -0.4463 
     30 CA         22.3625  -27.3743  -39.3656 C.3       4 UNK         0.0283 
     31 CB         21.9850  -26.3171  -38.3101 C.3       4 UNK        -0.1875 
     32 C          23.8884  -27.4923  -39.5273 C.2       4 UNK         0.4949 
     33 O          24.4767  -28.4574  -39.0403 O.2       4 UNK        -0.5039 
     34 N          24.4967  -26.5531  -40.2631 N.am      5 UNK        -0.4663 
     35 CA         25.9164  -26.5255  -40.6371 C.3       5 UNK         0.0242 
     36 CB         26.2232  -25.1856  -41.3249 C.3       5 UNK        -0.1982 
     37 C          26.3483  -27.7033  -41.5322 C.2       5 UNK         0.5017 
     38 O          27.5417  -27.9936  -41.6149 O.2       5 UNK        -0.5012 
     39 N          25.3708  -28.3755  -42.1573 N.am      6 UNK        -0.4439 
     40 CA         25.5328  -29.6285  -42.8959 C.3       6 UNK         0.0297 
     41 CB         24.2491  -29.9024  -43.6986 C.3       6 UNK        -0.2006 
     42 C          25.8680  -30.8362  -41.9976 C.2       6 UNK         0.4892 
     43 O          26.3035  -31.8589  -42.5273 O.2       6 UNK        -0.5089 
     44 N          25.6376  -30.7194  -40.6780 N.am      7 UNK        -0.4243 
     45 CA         25.8808  -31.6904  -39.5989 C.3       7 UNK         0.0196 
     46 CB         27.3697  -32.0775  -39.5089 C.3       7 UNK        -0.2007 
     47 C          24.9828  -32.9395  -39.6400 C.2       7 UNK         0.5020 
     48 O          24.4905  -33.3609  -38.5937 O.2       7 UNK        -0.5147 
     49 N          24.7615  -33.4975  -40.8355 N.am      8 UNK        -0.4734 
     50 CA         23.8711  -34.6327  -41.0935 C.3       8 UNK         0.0238 
     51 CB         24.1655  -35.1878  -42.4967 C.3       8 UNK        -0.1912 
     52 C          22.3778  -34.2826  -40.9579 C.2       8 UNK         0.5038 
     53 O          21.5663  -35.1879  -40.7613 O.2       8 UNK        -0.5046 
     54 N          22.0430  -32.9922  -41.0681 N.am      9 UNK        -0.4200 
     55 CA         20.6955  -32.4453  -40.9241 C.3       9 UNK         0.0839 
     56 C          20.8116  -30.9793  -40.4446 C.2       9 UNK         0.5513 
     57 N          20.2228  -30.6471  -39.3045 N.am      9 UNK        -0.7519 
     58 O          21.3985  -30.1349  -41.1194 O.2       9 UNK        -0.4960 
     59 C59        19.8821  -32.5871  -42.2381 C.3       10 UNK        -0.0876 
     60 S60        18.0792  -32.4339  -41.9926 S.3       10 UNK        -0.2414 
     61 C61        17.7847  -30.6516  -42.2261 C.3       10 UNK         0.0169 
     62 H62        17.6016  -26.7774  -48.3842 H         1 UNK         0.0903 
     63 H63        18.4830  -25.4030  -49.0295 H         1 UNK         0.0903 
     64 H64        18.8385  -25.9714  -47.4046 H         1 UNK         0.0903 
     65 H65        15.6346  -24.5185  -46.1003 H         1 UNK         0.3096 
     66 H66        17.2872  -26.9521  -45.9236 H         1 UNK         0.1121 
     67 H67        15.0169  -28.0872  -45.1004 H         1 UNK         0.0849 
     68 H68        14.2246  -26.8101  -45.9672 H         1 UNK         0.0849 
     69 H69        15.0590  -30.4687  -46.4107 H         1 UNK         0.0865 
     70 H70        16.1978  -30.5659  -47.7273 H         1 UNK         0.0865 
     71 H71        15.9675  -30.6868  -44.2425 H         1 UNK         0.1346 
     72 H72        20.0296  -29.6148  -43.3937 H         1 UNK         0.1412 
     73 H73        18.4466  -29.0589  -47.3411 H         1 UNK         0.1426 
     74 H74        20.8160  -28.8218  -46.9519 H         1 UNK         0.0716 
     75 H75        21.5412  -29.2758  -45.4373 H         1 UNK         0.0716 
     76 H76        21.8183  -28.0014  -43.5022 H         1 UNK         0.0695 
     77 H77        22.6618  -26.5383  -43.9330 H         1 UNK         0.0695 
     78 H78        20.7288  -25.1655  -43.1119 H         1 UNK         0.0983 
     79 H79        19.2688  -27.4900  -43.2082 H         1 UNK         0.3095 
     80 H80        17.2930  -27.9471  -41.5713 H         1 UNK         0.0454 
     81 H81        16.3005  -26.3312  -40.0315 H         1 UNK         0.0851 
     82 H82        15.1028  -26.7865  -41.2319 H         1 UNK         0.0851 
     83 H83        15.9154  -25.2253  -41.3361 H         1 UNK         0.0851 
     84 H84        16.8399  -27.9791  -43.7402 H         1 UNK         0.2976 
     85 H85        21.1522  -27.9932  -40.9660 H         1 UNK         0.3116 
     86 H86        22.0203  -28.3383  -38.9881 H         1 UNK         0.0646 
     87 H87        22.3252  -25.3185  -38.5849 H         1 UNK         0.0847 
     88 H88        20.9059  -26.2733  -38.1626 H         1 UNK         0.0847 
     89 H89        22.4352  -26.5555  -37.3456 H         1 UNK         0.0847 
     90 H90        23.9057  -25.8083  -40.6289 H         1 UNK         0.3040 
     91 H91        26.5043  -26.5880  -39.7188 H         1 UNK         0.1015 
     92 H92        27.2781  -25.1156  -41.5945 H         1 UNK         0.0786 
     93 H93        26.0017  -24.3434  -40.6690 H         1 UNK         0.0786 
     94 H94        25.6425  -25.0600  -42.2399 H         1 UNK         0.0786 
     95 H95        24.4270  -28.0456  -42.0229 H         1 UNK         0.3172 
     96 H96        26.3593  -29.5042  -43.5986 H         1 UNK         0.0595 
     97 H97        23.3817  -30.0239  -43.0487 H         1 UNK         0.0839 
     98 H98        24.3435  -30.8162  -44.2870 H         1 UNK         0.0839 
     99 H99        24.0375  -29.0931  -44.3977 H         1 UNK         0.0839 
    100 H100       25.2437  -29.8426  -40.3513 H         1 UNK         0.2998 
    101 H101       25.6278  -31.1613  -38.6783 H         1 UNK         0.0822 
    102 H102       27.5545  -32.7074  -38.6377 H         1 UNK         0.0787 
    103 H103       28.0023  -31.1952  -39.4113 H         1 UNK         0.0787 
    104 H104       27.7027  -32.6339  -40.3854 H         1 UNK         0.0787 
    105 H105       25.2477  -33.0892  -41.6316 H         1 UNK         0.3055 
    106 H106       24.0889  -35.4118  -40.3594 H         1 UNK         0.1106 
    107 H107       25.2021  -35.5137  -42.5849 H         1 UNK         0.0828 
    108 H108       23.5363  -36.0517  -42.7160 H         1 UNK         0.0828 
    109 H109       23.9805  -34.4436  -43.2724 H         1 UNK         0.0828 
    110 H110       22.7730  -32.3074  -41.2046 H         1 UNK         0.2931 
    111 H111       20.1910  -33.0194  -40.1435 H         1 UNK         0.0412 
    112 H112       20.2707  -29.6975  -38.9759 H         1 UNK         0.3472 
    113 H113       19.7278  -31.3365  -38.7599 H         1 UNK         0.3472 
    114 H114       20.2402  -31.9041  -43.0065 H         1 UNK         0.0970 
    115 H115       20.0390  -33.5830  -42.6548 H         1 UNK         0.0970 
    116 H116       18.4250  -30.0752  -41.5601 H         1 UNK         0.0612 
    117 H117       16.7623  -30.4332  -41.9141 H         1 UNK         0.0612 
@<TRIPOS>BOND
     1    1    2 1    
     2    1   62 1    
     3    1   63 1    
     4    1   64 1    
     5    2    3 2    
     6    2    4 am   BACKBONE|DICT|INTERRES
     7    4    5 1    
     8    4   65 1    
     9    5    6 1    
    10    5   25 1    
    11    5   66 1    
    12    6    7 1    
    13    6   67 1    
    14    6   68 1    
    15    7    8 1    
    16    8    9 1    
    17    8   69 1    
    18    8   70 1    
    19    9   10 ar   
    20    9   14 ar   
    21   10   11 ar   
    22   10   71 1    
    23   11   12 ar   
    24   11   61 1    
    25   12   13 ar   
    26   12   72 1    
    27   13   14 ar   
    28   13   15 1    
    29   14   73 1    
    30   15   16 1    
    31   15   74 1    
    32   15   75 1    
    33   16   17 1    
    34   17   18 1    
    35   17   76 1    
    36   17   77 1    
    37   18   19 1    
    38   18   27 1    
    39   18   78 1    
    40   19   20 am   BACKBONE|DICT|INTERRES
    41   19   79 1    
    42   20   21 2    
    43   20   22 1    
    44   22   23 1    
    45   22   24 1    
    46   22   80 1    
    47   23   81 1    
    48   23   82 1    
    49   23   83 1    
    50   24   25 am   BACKBONE|DICT|INTERRES
    51   24   84 1    
    52   25   26 2    
    53   27   28 2    
    54   27   29 am   BACKBONE|DICT|INTERRES
    55   29   30 1    
    56   29   85 1    
    57   30   31 1    
    58   30   32 1    
    59   30   86 1    
    60   31   87 1    
    61   31   88 1    
    62   31   89 1    
    63   32   33 2    
    64   32   34 am   BACKBONE|DICT|INTERRES
    65   34   35 1    
    66   34   90 1    
    67   35   36 1    
    68   35   37 1    
    69   35   91 1    
    70   36   92 1    
    71   36   93 1    
    72   36   94 1    
    73   37   38 2    
    74   37   39 am   BACKBONE|DICT|INTERRES
    75   39   40 1    
    76   39   95 1    
    77   40   41 1    
    78   40   42 1    
    79   40   96 1    
    80   41   97 1    
    81   41   98 1    
    82   41   99 1    
    83   42   43 2    
    84   42   44 am   BACKBONE|DICT|INTERRES
    85   44   45 1    
    86   44  100 1    
    87   45   46 1    
    88   45   47 1    
    89   45  101 1    
    90   46  102 1    
    91   46  103 1    
    92   46  104 1    
    93   47   48 2    
    94   47   49 am   BACKBONE|DICT|INTERRES
    95   49   50 1    
    96   49  105 1    
    97   50   51 1    
    98   50   52 1    
    99   50  106 1    
   100   51  107 1    
   101   51  108 1    
   102   51  109 1    
   103   52   53 2    
   104   52   54 am   BACKBONE|DICT|INTERRES
   105   54   55 1    
   106   54  110 1    
   107   55   56 1    
   108   55   59 1    
   109   55  111 1    
   110   56   57 am   BACKBONE|DICT|INTERRES
   111   56   58 2    
   112   57  112 1    
   113   57  113 1    
   114   59   60 1    
   115   59  114 1    
   116   59  115 1    
   117   60   61 1    
   118   61  116 1    
   119   61  117 1    
@<TRIPOS>SUBSTRUCTURE
     1 UNK         1 GROUP             0       ****    0 ROOT    
