@<TRIPOS>MOLECULE
3R8
117   119    1
SMALL
USER_CHARGES


@<TRIPOS>ATOM
      1 CA         21.7116  -22.1778  -43.5242 C.3       0 UNK        -0.2013 
      2 C          21.3885  -23.5145  -44.1744 C.2       0 UNK         0.4866 
      3 O          22.2061  -24.0394  -44.9303 O.2       0 UNK        -0.5176 
      4 N          20.1995  -24.0651  -43.8936 N.am      1 UNK        -0.4884 
      5 CA         19.7506  -25.3754  -44.3810 C.3       1 UNK         0.0853 
      6 C6         18.1882  -25.4826  -44.3769 C.3       10 UNK        -0.0849 
      7 S7         17.4202  -27.0459  -43.8163 S.3       10 UNK        -0.2776 
      8 C8         17.1814  -27.9568  -45.3894 C.3       10 UNK         0.0316 
      9 C9         17.2442  -29.4699  -45.1874 C.ar      10 UNK        -0.0863 
     10 C10        17.9849  -30.2864  -46.0555 C.ar      10 UNK        -0.1009 
     11 C11        18.0875  -31.6654  -45.8215 C.ar      10 UNK        -0.0712 
     12 C12        17.4399  -32.2215  -44.7177 C.ar      10 UNK        -0.0894 
     13 C13        16.7247  -31.4152  -43.8356 C.ar      10 UNK        -0.0745 
     14 C14        16.5849  -30.0549  -44.1029 C.ar      10 UNK        -0.0972 
     15 C15        16.1945  -32.0008  -42.5431 C.3       10 UNK         0.0209 
     16 S16        17.5297  -32.0484  -41.3050 S.3       10 UNK        -0.2568 
     17 C17        17.6632  -30.2951  -40.8185 C.3       10 UNK        -0.0983 
     18 CA         19.1074  -29.7298  -40.9094 C.3       3 UNK         0.0876 
     19 N          19.5426  -29.3665  -42.2700 N.am      3 UNK        -0.4424 
     20 C          20.7494  -29.6843  -42.7583 C.2       2 UNK         0.4918 
     21 O          21.4588  -30.5718  -42.2880 O.2       2 UNK        -0.4875 
     22 CA         21.3330  -28.8576  -43.9220 C.3       2 UNK         0.0481 
     23 CB         21.6007  -29.7029  -45.1682 C.3       2 UNK        -0.1831 
     24 N          20.5804  -27.6741  -44.3279 N.am      2 UNK        -0.4498 
     25 C          20.5154  -26.5150  -43.6639 C.2       1 UNK         0.5027 
     26 O          21.0128  -26.3376  -42.5471 O.2       1 UNK        -0.4969 
     27 C          19.2210  -28.4990  -39.9887 C.2       3 UNK         0.5005 
     28 O          19.6370  -28.6463  -38.8390 O.2       3 UNK        -0.5279 
     29 N          18.8073  -27.3234  -40.4883 N.am      4 UNK        -0.4463 
     30 CA         18.6198  -26.0969  -39.7104 C.3       4 UNK         0.0283 
     31 CB         17.9393  -25.0359  -40.5893 C.3       4 UNK        -0.1875 
     32 C          19.8962  -25.5171  -39.0813 C.2       4 UNK         0.4949 
     33 O          19.8306  -25.0440  -37.9457 O.2       4 UNK        -0.5039 
     34 N          21.0137  -25.5291  -39.8199 N.am      5 UNK        -0.4663 
     35 CA         22.2623  -24.8963  -39.3843 C.3       5 UNK         0.0242 
     36 CB         22.2419  -23.3973  -39.7356 C.3       5 UNK        -0.1982 
     37 C          23.5240  -25.5623  -39.9436 C.2       5 UNK         0.5017 
     38 O          24.5084  -25.6636  -39.2104 O.2       5 UNK        -0.5012 
     39 N          23.5048  -25.9818  -41.2176 N.am      6 UNK        -0.4439 
     40 CA         24.6843  -26.5336  -41.8967 C.3       6 UNK         0.0297 
     41 CB         24.5418  -26.3692  -43.4190 C.3       6 UNK        -0.2006 
     42 C          25.0045  -27.9872  -41.5007 C.2       6 UNK         0.4892 
     43 O          26.1590  -28.3946  -41.6296 O.2       6 UNK        -0.5089 
     44 N          23.9941  -28.7254  -41.0120 N.am      7 UNK        -0.4243 
     45 CA         24.0691  -30.0788  -40.4354 C.3       7 UNK         0.0196 
     46 CB         24.8310  -30.0394  -39.0934 C.3       7 UNK        -0.2007 
     47 C          24.6149  -31.1698  -41.3853 C.2       7 UNK         0.5020 
     48 O          25.1267  -32.1868  -40.9140 O.2       7 UNK        -0.5147 
     49 N          24.5089  -30.9494  -42.7024 N.am      8 UNK        -0.4734 
     50 CA         25.0155  -31.8555  -43.7360 C.3       8 UNK         0.0238 
     51 CB         25.3097  -31.0521  -45.0142 C.3       8 UNK        -0.1912 
     52 C          24.0820  -33.0427  -44.0350 C.2       8 UNK         0.5038 
     53 O          24.5635  -34.0484  -44.5592 O.2       8 UNK        -0.5046 
     54 N          22.7876  -32.9164  -43.7159 N.am      9 UNK        -0.4200 
     55 CA         21.7771  -33.9704  -43.8879 C.3       9 UNK         0.0839 
     56 C          21.5235  -34.7048  -42.5459 C.2       9 UNK         0.5513 
     57 N          21.1317  -35.9704  -42.6021 N.am      9 UNK        -0.7519 
     58 O          21.6461  -34.1401  -41.4609 O.2       9 UNK        -0.4960 
     59 C59        20.4516  -33.4135  -44.4702 C.3       10 UNK        -0.0876 
     60 S60        20.6290  -32.7935  -46.1813 S.3       10 UNK        -0.2414 
     61 C61        18.9016  -32.5739  -46.7361 C.3       10 UNK         0.0169 
     62 H62        20.9641  -21.8919  -42.7843 H         1 UNK         0.0903 
     63 H63        22.6799  -22.2270  -43.0268 H         1 UNK         0.0903 
     64 H64        21.7586  -21.3955  -44.2811 H         1 UNK         0.0903 
     65 H65        19.5777  -23.5926  -43.2541 H         1 UNK         0.3096 
     66 H66        20.0604  -25.4374  -45.4274 H         1 UNK         0.1121 
     67 H67        17.8062  -25.2433  -45.3708 H         1 UNK         0.0849 
     68 H68        17.7630  -24.7090  -43.7360 H         1 UNK         0.0849 
     69 H69        16.2141  -27.6895  -45.8168 H         1 UNK         0.0865 
     70 H70        17.9372  -27.6444  -46.1111 H         1 UNK         0.0865 
     71 H71        18.4959  -29.8513  -46.9034 H         1 UNK         0.1346 
     72 H72        17.5337  -33.2786  -44.5122 H         1 UNK         0.1412 
     73 H73        16.0118  -29.4369  -43.4263 H         1 UNK         0.1426 
     74 H74        15.8278  -33.0138  -42.7154 H         1 UNK         0.0716 
     75 H75        15.3493  -31.4243  -42.1639 H         1 UNK         0.0716 
     76 H76        17.3003  -30.2601  -39.7887 H         1 UNK         0.0695 
     77 H77        16.9699  -29.6759  -41.3857 H         1 UNK         0.0695 
     78 H78        19.7785  -30.4830  -40.4894 H         1 UNK         0.0983 
     79 H79        18.9846  -28.6927  -42.7736 H         1 UNK         0.3095 
     80 H80        22.3034  -28.5230  -43.5587 H         1 UNK         0.0454 
     81 H81        20.6749  -29.9815  -45.6654 H         1 UNK         0.0851 
     82 H82        22.1295  -30.6197  -44.9207 H         1 UNK         0.0851 
     83 H83        22.2155  -29.1640  -45.8891 H         1 UNK         0.0851 
     84 H84        20.1179  -27.7381  -45.2225 H         1 UNK         0.2976 
     85 H85        18.4798  -27.2884  -41.4414 H         1 UNK         0.3116 
     86 H86        17.9377  -26.3396  -38.8927 H         1 UNK         0.0646 
     87 H87        16.9901  -25.3932  -40.9892 H         1 UNK         0.0847 
     88 H88        18.5730  -24.7463  -41.4268 H         1 UNK         0.0847 
     89 H89        17.7276  -24.1323  -40.0158 H         1 UNK         0.0847 
     90 H90        20.9824  -25.9324  -40.7536 H         1 UNK         0.3040 
     91 H91        22.3407  -24.9863  -38.2979 H         1 UNK         0.1015 
     92 H92        23.1747  -22.9117  -39.4455 H         1 UNK         0.0786 
     93 H93        21.4346  -22.8781  -39.2188 H         1 UNK         0.0786 
     94 H94        22.1090  -23.2409  -40.8056 H         1 UNK         0.0786 
     95 H95        22.6521  -25.8991  -41.7651 H         1 UNK         0.3172 
     96 H96        25.5519  -25.9402  -41.5992 H         1 UNK         0.0595 
     97 H97        23.6227  -26.8035  -43.8034 H         1 UNK         0.0839 
     98 H98        25.3732  -26.8393  -43.9462 H         1 UNK         0.0839 
     99 H99        24.5414  -25.3152  -43.6976 H         1 UNK         0.0839 
    100 H100       23.0878  -28.2834  -40.9604 H         1 UNK         0.2998 
    101 H101       23.0422  -30.3697  -40.2107 H         1 UNK         0.0822 
    102 H102       24.4179  -29.2840  -38.4248 H         1 UNK         0.0787 
    103 H103       24.7670  -30.9969  -38.5750 H         1 UNK         0.0787 
    104 H104       25.8889  -29.8170  -39.2375 H         1 UNK         0.0787 
    105 H105       24.0673  -30.0954  -43.0065 H         1 UNK         0.3055 
    106 H106       25.9610  -32.2788  -43.3882 H         1 UNK         0.1106 
    107 H107       24.4132  -30.5930  -45.4285 H         1 UNK         0.0828 
    108 H108       25.7307  -31.6948  -45.7886 H         1 UNK         0.0828 
    109 H109       26.0350  -30.2603  -44.8250 H         1 UNK         0.0828 
    110 H110       22.4827  -32.0962  -43.2030 H         1 UNK         0.2931 
    111 H111       22.1504  -34.7143  -44.5947 H         1 UNK         0.0412 
    112 H112       21.0241  -36.4458  -43.4849 H         1 UNK         0.3472 
    113 H113       20.9494  -36.4647  -41.7423 H         1 UNK         0.3472 
    114 H114       19.6906  -34.1955  -44.4804 H         1 UNK         0.0970 
    115 H115       20.0681  -32.6118  -43.8360 H         1 UNK         0.0970 
    116 H116       18.4258  -33.5531  -46.8085 H         1 UNK         0.0612 
    117 H117       18.9098  -32.1665  -47.7480 H         1 UNK         0.0612 
@<TRIPOS>BOND
     1    1    2 1    
     2    1   62 1    
     3    1   63 1    
     4    1   64 1    
     5    2    3 2    
     6    2    4 am   BACKBONE|DICT|INTERRES
     7    4    5 1    
     8    4   65 1    
     9    5    6 1    
    10    5   25 1    
    11    5   66 1    
    12    6    7 1    
    13    6   67 1    
    14    6   68 1    
    15    7    8 1    
    16    8    9 1    
    17    8   69 1    
    18    8   70 1    
    19    9   10 ar   
    20    9   14 ar   
    21   10   11 ar   
    22   10   71 1    
    23   11   12 ar   
    24   11   61 1    
    25   12   13 ar   
    26   12   72 1    
    27   13   14 ar   
    28   13   15 1    
    29   14   73 1    
    30   15   16 1    
    31   15   74 1    
    32   15   75 1    
    33   16   17 1    
    34   17   18 1    
    35   17   76 1    
    36   17   77 1    
    37   18   19 1    
    38   18   27 1    
    39   18   78 1    
    40   19   20 am   BACKBONE|DICT|INTERRES
    41   19   79 1    
    42   20   21 2    
    43   20   22 1    
    44   22   23 1    
    45   22   24 1    
    46   22   80 1    
    47   23   81 1    
    48   23   82 1    
    49   23   83 1    
    50   24   25 am   BACKBONE|DICT|INTERRES
    51   24   84 1    
    52   25   26 2    
    53   27   28 2    
    54   27   29 am   BACKBONE|DICT|INTERRES
    55   29   30 1    
    56   29   85 1    
    57   30   31 1    
    58   30   32 1    
    59   30   86 1    
    60   31   87 1    
    61   31   88 1    
    62   31   89 1    
    63   32   33 2    
    64   32   34 am   BACKBONE|DICT|INTERRES
    65   34   35 1    
    66   34   90 1    
    67   35   36 1    
    68   35   37 1    
    69   35   91 1    
    70   36   92 1    
    71   36   93 1    
    72   36   94 1    
    73   37   38 2    
    74   37   39 am   BACKBONE|DICT|INTERRES
    75   39   40 1    
    76   39   95 1    
    77   40   41 1    
    78   40   42 1    
    79   40   96 1    
    80   41   97 1    
    81   41   98 1    
    82   41   99 1    
    83   42   43 2    
    84   42   44 am   BACKBONE|DICT|INTERRES
    85   44   45 1    
    86   44  100 1    
    87   45   46 1    
    88   45   47 1    
    89   45  101 1    
    90   46  102 1    
    91   46  103 1    
    92   46  104 1    
    93   47   48 2    
    94   47   49 am   BACKBONE|DICT|INTERRES
    95   49   50 1    
    96   49  105 1    
    97   50   51 1    
    98   50   52 1    
    99   50  106 1    
   100   51  107 1    
   101   51  108 1    
   102   51  109 1    
   103   52   53 2    
   104   52   54 am   BACKBONE|DICT|INTERRES
   105   54   55 1    
   106   54  110 1    
   107   55   56 1    
   108   55   59 1    
   109   55  111 1    
   110   56   57 am   BACKBONE|DICT|INTERRES
   111   56   58 2    
   112   57  112 1    
   113   57  113 1    
   114   59   60 1    
   115   59  114 1    
   116   59  115 1    
   117   60   61 1    
   118   61  116 1    
   119   61  117 1    
@<TRIPOS>SUBSTRUCTURE
     1 UNK         1 GROUP             0       ****    0 ROOT    
