@<TRIPOS>MOLECULE
3R8
117   119    1
SMALL
USER_CHARGES


@<TRIPOS>ATOM
      1 CA         15.8710  -25.2993  -38.9227 C.3       0 UNK        -0.2013 
      2 C          16.3207  -25.4324  -40.3696 C.2       0 UNK         0.4866 
      3 O          16.7403  -24.4451  -40.9753 O.2       0 UNK        -0.5176 
      4 N          16.2416  -26.6459  -40.9311 N.am      1 UNK        -0.4884 
      5 CA         16.6612  -26.9735  -42.2979 C.3       1 UNK         0.0853 
      6 C6         15.8771  -28.2001  -42.8425 C.3       10 UNK        -0.0849 
      7 S7         15.7751  -28.2092  -44.6633 S.3       10 UNK        -0.2776 
      8 C8         15.7134  -30.0032  -45.0222 C.3       10 UNK         0.0316 
      9 C9         17.0319  -30.7651  -44.8589 C.ar      10 UNK        -0.0863 
     10 C10        16.9944  -32.1563  -44.7116 C.ar      10 UNK        -0.1009 
     11 C11        18.1691  -32.9087  -44.5945 C.ar      10 UNK        -0.0712 
     12 C12        19.4024  -32.2433  -44.6237 C.ar      10 UNK        -0.0894 
     13 C13        19.4602  -30.8540  -44.7554 C.ar      10 UNK        -0.0745 
     14 C14        18.2761  -30.1259  -44.8873 C.ar      10 UNK        -0.0972 
     15 C15        20.7968  -30.1310  -44.6933 C.3       10 UNK         0.0209 
     16 S16        21.1588  -29.2072  -46.2173 S.3       10 UNK        -0.2568 
     17 C17        22.7519  -28.4537  -45.7573 C.3       10 UNK        -0.0983 
     18 CA         22.6058  -26.9808  -45.2986 C.3       3 UNK         0.0876 
     19 N          21.9070  -26.8637  -44.0206 N.am      3 UNK        -0.4424 
     20 C          20.8331  -26.1070  -43.7895 C.2       2 UNK         0.4918 
     21 O          20.2372  -25.4660  -44.6584 O.2       2 UNK        -0.4875 
     22 CA         20.3870  -25.9964  -42.3229 C.3       2 UNK         0.0481 
     23 CB         20.9168  -24.6983  -41.6947 C.3       2 UNK        -0.1831 
     24 N          18.9293  -26.0283  -42.2167 N.am      2 UNK        -0.4498 
     25 C          18.1965  -27.1390  -42.3555 C.2       1 UNK         0.5027 
     26 O          18.6967  -28.2557  -42.4683 O.2       1 UNK        -0.4969 
     27 C          23.9624  -26.2934  -45.0838 C.2       3 UNK         0.5005 
     28 O          24.9833  -26.9662  -44.9178 O.2       3 UNK        -0.5279 
     29 N          23.9277  -24.9539  -45.0052 N.am      4 UNK        -0.4463 
     30 CA         25.0287  -24.0712  -44.6089 C.3       4 UNK         0.0283 
     31 CB         26.1529  -24.0655  -45.6710 C.3       4 UNK        -0.1875 
     32 C          25.5007  -24.4097  -43.1822 C.2       4 UNK         0.4949 
     33 O          24.7752  -24.1201  -42.2305 O.2       4 UNK        -0.5039 
     34 N          26.6816  -25.0260  -43.0570 N.am      5 UNK        -0.4663 
     35 CA         27.2483  -25.4760  -41.7854 C.3       5 UNK         0.0242 
     36 CB         28.7731  -25.6015  -41.9393 C.3       5 UNK        -0.1982 
     37 C          26.6510  -26.8015  -41.2764 C.2       5 UNK         0.5017 
     38 O          26.7632  -27.0735  -40.0801 O.2       5 UNK        -0.5012 
     39 N          26.0631  -27.6143  -42.1668 N.am      6 UNK        -0.4439 
     40 CA         25.4904  -28.9179  -41.8243 C.3       6 UNK         0.0297 
     41 CB         25.6000  -29.8607  -43.0325 C.3       6 UNK        -0.2006 
     42 C          24.0341  -28.7836  -41.3541 C.2       6 UNK         0.4892 
     43 O          23.3005  -27.9251  -41.8494 O.2       6 UNK        -0.5089 
     44 N          23.6488  -29.6528  -40.4131 N.am      7 UNK        -0.4243 
     45 CA         22.3064  -29.7387  -39.8352 C.3       7 UNK         0.0196 
     46 CB         22.4227  -30.3903  -38.4445 C.3       7 UNK        -0.2007 
     47 C          21.3360  -30.5296  -40.7311 C.2       7 UNK         0.5020 
     48 O          21.7490  -31.1177  -41.7333 O.2       7 UNK        -0.5147 
     49 N          20.0618  -30.5638  -40.3183 N.am      8 UNK        -0.4734 
     50 CA         18.9326  -31.2238  -40.9871 C.3       8 UNK         0.0238 
     51 CB         17.6256  -30.6783  -40.3776 C.3       8 UNK        -0.1912 
     52 C          18.9907  -32.7663  -40.9303 C.2       8 UNK         0.5038 
     53 O          18.0649  -33.3942  -40.4120 O.2       8 UNK        -0.5046 
     54 N          20.0872  -33.3468  -41.4331 N.am      9 UNK        -0.4200 
     55 CA         20.4079  -34.7851  -41.4153 C.3       9 UNK         0.0839 
     56 C          20.6466  -35.3740  -39.9884 C.2       9 UNK         0.5513 
     57 N          20.8812  -34.5601  -38.9654 N.am      9 UNK        -0.7519 
     58 O          20.6585  -36.5890  -39.8059 O.2       9 UNK        -0.4960 
     59 C59        19.4235  -35.6396  -42.2692 C.3       10 UNK        -0.0876 
     60 S60        19.5826  -35.3336  -44.0631 S.3       10 UNK        -0.2414 
     61 C61        18.0459  -34.4312  -44.4788 C.3       10 UNK         0.0169 
     62 H62        15.0641  -24.5712  -38.8465 H         1 UNK         0.0903 
     63 H63        15.5129  -26.2452  -38.5172 H         1 UNK         0.0903 
     64 H64        16.6990  -24.9562  -38.3035 H         1 UNK         0.0903 
     65 H65        15.9134  -27.4240  -40.3764 H         1 UNK         0.3096 
     66 H66        16.4114  -26.1197  -42.9329 H         1 UNK         0.1121 
     67 H67        16.2937  -29.1421  -42.4837 H         1 UNK         0.0849 
     68 H68        14.8487  -28.1767  -42.4785 H         1 UNK         0.0849 
     69 H69        14.9443  -30.4547  -44.3931 H         1 UNK         0.0865 
     70 H70        15.3777  -30.1304  -46.0523 H         1 UNK         0.0865 
     71 H71        16.0387  -32.6634  -44.7024 H         1 UNK         0.1346 
     72 H72        20.3267  -32.7943  -44.5311 H         1 UNK         0.1412 
     73 H73        18.3404  -29.0527  -44.9965 H         1 UNK         0.1426 
     74 H74        21.6081  -30.8356  -44.5042 H         1 UNK         0.0716 
     75 H75        20.7827  -29.4443  -43.8459 H         1 UNK         0.0716 
     76 H76        23.4038  -28.5157  -46.6306 H         1 UNK         0.0695 
     77 H77        23.2225  -29.0576  -44.9820 H         1 UNK         0.0695 
     78 H78        22.0817  -26.4328  -46.0849 H         1 UNK         0.0983 
     79 H79        22.3785  -27.2984  -43.2253 H         1 UNK         0.3095 
     80 H80        20.7948  -26.8383  -41.7589 H         1 UNK         0.0454 
     81 H81        20.5440  -23.8150  -42.2148 H         1 UNK         0.0851 
     82 H82        22.0068  -24.6655  -41.7342 H         1 UNK         0.0851 
     83 H83        20.6291  -24.6181  -40.6464 H         1 UNK         0.0851 
     84 H84        18.4474  -25.1480  -42.0765 H         1 UNK         0.2976 
     85 H85        23.0284  -24.5025  -45.1054 H         1 UNK         0.3116 
     86 H86        24.6181  -23.0613  -44.5631 H         1 UNK         0.0646 
     87 H87        26.5886  -25.0518  -45.8314 H         1 UNK         0.0847 
     88 H88        26.9597  -23.3899  -45.3837 H         1 UNK         0.0847 
     89 H89        25.7757  -23.7177  -46.6325 H         1 UNK         0.0847 
     90 H90        27.1954  -25.2551  -43.8959 H         1 UNK         0.3040 
     91 H91        27.0458  -24.7183  -41.0249 H         1 UNK         0.1015 
     92 H92        29.0437  -26.3437  -42.6912 H         1 UNK         0.0786 
     93 H93        29.2369  -25.9057  -40.9999 H         1 UNK         0.0786 
     94 H94        29.2227  -24.6509  -42.2269 H         1 UNK         0.0786 
     95 H95        25.9133  -27.2882  -43.1171 H         1 UNK         0.3172 
     96 H96        26.0724  -29.3602  -41.0125 H         1 UNK         0.0595 
     97 H97        25.1072  -30.8144  -42.8369 H         1 UNK         0.0839 
     98 H98        26.6421  -30.0766  -43.2683 H         1 UNK         0.0839 
     99 H99        25.1441  -29.4341  -43.9232 H         1 UNK         0.0839 
    100 H100       24.3083  -30.3538  -40.1083 H         1 UNK         0.2998 
    101 H101       21.9094  -28.7274  -39.7196 H         1 UNK         0.0822 
    102 H102       21.4630  -30.4069  -37.9266 H         1 UNK         0.0787 
    103 H103       22.7759  -31.4206  -38.5097 H         1 UNK         0.0787 
    104 H104       23.1156  -29.8400  -37.8073 H         1 UNK         0.0787 
    105 H105       19.8310  -30.0725  -39.4672 H         1 UNK         0.3055 
    106 H106       18.9524  -30.9390  -42.0398 H         1 UNK         0.1106 
    107 H107       16.7570  -31.0640  -40.9132 H         1 UNK         0.0828 
    108 H108       17.5175  -30.9636  -39.3305 H         1 UNK         0.0828 
    109 H109       17.5816  -29.5914  -40.4304 H         1 UNK         0.0828 
    110 H110       20.8163  -32.7275  -41.7791 H         1 UNK         0.2931 
    111 H111       21.3873  -34.8575  -41.8899 H         1 UNK         0.0412 
    112 H112       20.8800  -33.5621  -39.0975 H         1 UNK         0.3472 
    113 H113       21.0469  -34.9514  -38.0512 H         1 UNK         0.3472 
    114 H114       19.6253  -36.7038  -42.1353 H         1 UNK         0.0970 
    115 H115       18.3931  -35.5003  -41.9406 H         1 UNK         0.0970 
    116 H116       17.2664  -34.6817  -43.7568 H         1 UNK         0.0612 
    117 H117       17.6966  -34.8085  -45.4418 H         1 UNK         0.0612 
@<TRIPOS>BOND
     1    1    2 1    
     2    1   62 1    
     3    1   63 1    
     4    1   64 1    
     5    2    3 2    
     6    2    4 am   BACKBONE|DICT|INTERRES
     7    4    5 1    
     8    4   65 1    
     9    5    6 1    
    10    5   25 1    
    11    5   66 1    
    12    6    7 1    
    13    6   67 1    
    14    6   68 1    
    15    7    8 1    
    16    8    9 1    
    17    8   69 1    
    18    8   70 1    
    19    9   10 ar   
    20    9   14 ar   
    21   10   11 ar   
    22   10   71 1    
    23   11   12 ar   
    24   11   61 1    
    25   12   13 ar   
    26   12   72 1    
    27   13   14 ar   
    28   13   15 1    
    29   14   73 1    
    30   15   16 1    
    31   15   74 1    
    32   15   75 1    
    33   16   17 1    
    34   17   18 1    
    35   17   76 1    
    36   17   77 1    
    37   18   19 1    
    38   18   27 1    
    39   18   78 1    
    40   19   20 am   BACKBONE|DICT|INTERRES
    41   19   79 1    
    42   20   21 2    
    43   20   22 1    
    44   22   23 1    
    45   22   24 1    
    46   22   80 1    
    47   23   81 1    
    48   23   82 1    
    49   23   83 1    
    50   24   25 am   BACKBONE|DICT|INTERRES
    51   24   84 1    
    52   25   26 2    
    53   27   28 2    
    54   27   29 am   BACKBONE|DICT|INTERRES
    55   29   30 1    
    56   29   85 1    
    57   30   31 1    
    58   30   32 1    
    59   30   86 1    
    60   31   87 1    
    61   31   88 1    
    62   31   89 1    
    63   32   33 2    
    64   32   34 am   BACKBONE|DICT|INTERRES
    65   34   35 1    
    66   34   90 1    
    67   35   36 1    
    68   35   37 1    
    69   35   91 1    
    70   36   92 1    
    71   36   93 1    
    72   36   94 1    
    73   37   38 2    
    74   37   39 am   BACKBONE|DICT|INTERRES
    75   39   40 1    
    76   39   95 1    
    77   40   41 1    
    78   40   42 1    
    79   40   96 1    
    80   41   97 1    
    81   41   98 1    
    82   41   99 1    
    83   42   43 2    
    84   42   44 am   BACKBONE|DICT|INTERRES
    85   44   45 1    
    86   44  100 1    
    87   45   46 1    
    88   45   47 1    
    89   45  101 1    
    90   46  102 1    
    91   46  103 1    
    92   46  104 1    
    93   47   48 2    
    94   47   49 am   BACKBONE|DICT|INTERRES
    95   49   50 1    
    96   49  105 1    
    97   50   51 1    
    98   50   52 1    
    99   50  106 1    
   100   51  107 1    
   101   51  108 1    
   102   51  109 1    
   103   52   53 2    
   104   52   54 am   BACKBONE|DICT|INTERRES
   105   54   55 1    
   106   54  110 1    
   107   55   56 1    
   108   55   59 1    
   109   55  111 1    
   110   56   57 am   BACKBONE|DICT|INTERRES
   111   56   58 2    
   112   57  112 1    
   113   57  113 1    
   114   59   60 1    
   115   59  114 1    
   116   59  115 1    
   117   60   61 1    
   118   61  116 1    
   119   61  117 1    
@<TRIPOS>SUBSTRUCTURE
     1 UNK         1 GROUP             0       ****    0 ROOT    
