@<TRIPOS>MOLECULE
3R8
117   119    1
SMALL
USER_CHARGES


@<TRIPOS>ATOM
      1 CA         18.1783  -29.6977  -50.9883 C.3       0 UNK        -0.2013 
      2 C          18.7133  -29.9723  -49.5908 C.2       0 UNK         0.4866 
      3 O          19.1250  -31.0963  -49.3018 O.2       0 UNK        -0.5176 
      4 N          18.7144  -28.9557  -48.7250 N.am      1 UNK        -0.4884 
      5 CA         19.1888  -29.0171  -47.3434 C.3       1 UNK         0.0853 
      6 C6         18.1758  -29.6997  -46.3801 C.3       10 UNK        -0.0849 
      7 S7         16.5153  -28.9334  -46.3730 S.3       10 UNK        -0.2776 
      8 C8         15.6300  -30.0004  -45.1959 C.3       10 UNK         0.0316 
      9 C9         15.9700  -29.6669  -43.7499 C.ar      10 UNK        -0.0863 
     10 C10        16.8002  -30.5083  -43.0037 C.ar      10 UNK        -0.1009 
     11 C11        17.0678  -30.2302  -41.6594 C.ar      10 UNK        -0.0712 
     12 C12        16.4964  -29.1027  -41.0620 C.ar      10 UNK        -0.0894 
     13 C13        15.6735  -28.2462  -41.8007 C.ar      10 UNK        -0.0745 
     14 C14        15.4160  -28.5345  -43.1447 C.ar      10 UNK        -0.0972 
     15 C15        15.0234  -27.0353  -41.1410 C.3       10 UNK         0.0209 
     16 S16        16.2298  -25.8783  -40.4145 S.3       10 UNK        -0.2568 
     17 C17        17.1572  -25.3092  -41.8803 C.3       10 UNK        -0.0983 
     18 CA         18.6076  -25.8576  -41.8959 C.3       3 UNK         0.0876 
     19 N          19.1947  -25.7691  -43.2365 N.am      3 UNK        -0.4424 
     20 C          20.2193  -26.5136  -43.6688 C.2       2 UNK         0.4918 
     21 O          20.7773  -27.3732  -42.9872 O.2       2 UNK        -0.4875 
     22 CA         20.6894  -26.2890  -45.1070 C.3       2 UNK         0.0481 
     23 CB         22.2058  -26.0350  -45.1611 C.3       2 UNK        -0.1831 
     24 N          20.3758  -27.5086  -45.8402 N.am      2 UNK        -0.4498 
     25 C          19.5535  -27.5939  -46.8885 C.2       1 UNK         0.5027 
     26 O          19.0731  -26.6179  -47.4742 O.2       1 UNK        -0.4969 
     27 C          19.5389  -25.1847  -40.8600 C.2       3 UNK         0.5005 
     28 O          19.2901  -24.0564  -40.4289 O.2       3 UNK        -0.5279 
     29 N          20.6263  -25.8813  -40.5221 N.am      4 UNK        -0.4463 
     30 CA         21.6932  -25.4833  -39.6125 C.3       4 UNK         0.0283 
     31 CB         22.5955  -24.4304  -40.2873 C.3       4 UNK        -0.1875 
     32 C          22.4928  -26.7428  -39.2585 C.2       4 UNK         0.4949 
     33 O          22.3073  -27.7862  -39.8900 O.2       4 UNK        -0.5039 
     34 N          23.4142  -26.6252  -38.2950 N.am      5 UNK        -0.4663 
     35 CA         24.3087  -27.6970  -37.8315 C.3       5 UNK         0.0242 
     36 CB         24.8508  -27.3212  -36.4394 C.3       5 UNK        -0.1982 
     37 C          25.4398  -28.0531  -38.8259 C.2       5 UNK         0.5017 
     38 O          26.5600  -28.3519  -38.4070 O.2       5 UNK        -0.5012 
     39 N          25.1340  -28.0354  -40.1281 N.am      6 UNK        -0.4439 
     40 CA         26.0140  -28.4005  -41.2370 C.3       6 UNK         0.0297 
     41 CB         25.5393  -27.6594  -42.5019 C.3       6 UNK        -0.2006 
     42 C          26.0238  -29.9281  -41.4164 C.2       6 UNK         0.4892 
     43 O          25.5515  -30.4309  -42.4373 O.2       6 UNK        -0.5089 
     44 N          26.5066  -30.6390  -40.3866 N.am      7 UNK        -0.4243 
     45 CA         26.4255  -32.0933  -40.2117 C.3       7 UNK         0.0196 
     46 CB         27.3301  -32.8256  -41.2302 C.3       7 UNK        -0.2007 
     47 C          24.9518  -32.5458  -40.2182 C.2       7 UNK         0.5020 
     48 O          24.1706  -32.0432  -39.4088 O.2       7 UNK        -0.5147 
     49 N          24.5744  -33.4344  -41.1445 N.am      8 UNK        -0.4734 
     50 CA         23.1989  -33.8906  -41.3656 C.3       8 UNK         0.0238 
     51 CB         23.2388  -35.3189  -41.9424 C.3       8 UNK        -0.1912 
     52 C          22.3972  -32.9120  -42.2520 C.2       8 UNK         0.5038 
     53 O          21.7676  -33.3439  -43.2198 O.2       8 UNK        -0.5046 
     54 N          22.4346  -31.6181  -41.9056 N.am      9 UNK        -0.4200 
     55 CA         21.7425  -30.5096  -42.5868 C.3       9 UNK         0.0839 
     56 C          22.1948  -30.2957  -44.0628 C.2       9 UNK         0.5513 
     57 N          23.4805  -30.4115  -44.3662 N.am      9 UNK        -0.7519 
     58 O          21.3866  -30.0133  -44.9449 O.2       9 UNK        -0.4960 
     59 C59        20.1965  -30.5859  -42.4352 C.3       10 UNK        -0.0876 
     60 S60        19.6526  -30.5147  -40.6966 S.3       10 UNK        -0.2414 
     61 C61        17.9579  -31.1581  -40.8447 C.3       10 UNK         0.0169 
     62 H62        17.3315  -30.3500  -51.2002 H         1 UNK         0.0903 
     63 H63        17.8474  -28.6654  -51.1025 H         1 UNK         0.0903 
     64 H64        18.9518  -29.8903  -51.7314 H         1 UNK         0.0903 
     65 H65        18.3978  -28.0330  -48.9992 H         1 UNK         0.3096 
     66 H66        20.1156  -29.5962  -47.3354 H         1 UNK         0.1121 
     67 H67        18.0660  -30.7490  -46.6576 H         1 UNK         0.0849 
     68 H68        18.5646  -29.7065  -45.3600 H         1 UNK         0.0849 
     69 H69        14.5572  -29.8728  -45.3481 H         1 UNK         0.0865 
     70 H70        15.8413  -31.0478  -45.4171 H         1 UNK         0.0865 
     71 H71        17.2299  -31.3866  -43.4657 H         1 UNK         0.1346 
     72 H72        16.6945  -28.8897  -40.0202 H         1 UNK         0.1412 
     73 H73        14.7701  -27.8864  -43.7217 H         1 UNK         0.1426 
     74 H74        14.3982  -26.4912  -41.8508 H         1 UNK         0.0716 
     75 H75        14.3559  -27.3840  -40.3520 H         1 UNK         0.0716 
     76 H76        16.6249  -25.6414  -42.7731 H         1 UNK         0.0695 
     77 H77        17.1389  -24.2185  -41.9167 H         1 UNK         0.0695 
     78 H78        18.5518  -26.9192  -41.6394 H         1 UNK         0.0983 
     79 H79        18.8007  -25.0723  -43.8516 H         1 UNK         0.3095 
     80 H80        20.1722  -25.4243  -45.5279 H         1 UNK         0.0454 
     81 H81        22.7740  -26.8748  -44.7577 H         1 UNK         0.0851 
     82 H82        22.5409  -25.8682  -46.1846 H         1 UNK         0.0851 
     83 H83        22.4742  -25.1509  -44.5818 H         1 UNK         0.0851 
     84 H84        20.7160  -28.3715  -45.4158 H         1 UNK         0.2976 
     85 H85        20.7806  -26.7898  -40.9558 H         1 UNK         0.3116 
     86 H86        21.2549  -25.0767  -38.6991 H         1 UNK         0.0646 
     87 H87        23.4070  -24.1199  -39.6284 H         1 UNK         0.0847 
     88 H88        22.0367  -23.5314  -40.5470 H         1 UNK         0.0847 
     89 H89        23.0472  -24.8173  -41.2020 H         1 UNK         0.0847 
     90 H90        23.5327  -25.7253  -37.8510 H         1 UNK         0.3040 
     91 H91        23.7120  -28.6052  -37.7172 H         1 UNK         0.1015 
     92 H92        25.4856  -26.4352  -36.4807 H         1 UNK         0.0786 
     93 H93        25.4470  -28.1310  -36.0164 H         1 UNK         0.0786 
     94 H94        24.0407  -27.1230  -35.7372 H         1 UNK         0.0786 
     95 H95        24.1559  -27.8780  -40.3553 H         1 UNK         0.3172 
     96 H96        27.0342  -28.0802  -41.0156 H         1 UNK         0.0595 
     97 H97        26.1699  -27.9039  -43.3578 H         1 UNK         0.0839 
     98 H98        25.5809  -26.5785  -42.3675 H         1 UNK         0.0839 
     99 H99        24.5141  -27.9237  -42.7665 H         1 UNK         0.0839 
    100 H100       26.8125  -30.1128  -39.5751 H         1 UNK         0.2998 
    101 H101       26.8063  -32.3095  -39.2124 H         1 UNK         0.0822 
    102 H102       28.3621  -32.4847  -41.1470 H         1 UNK         0.0787 
    103 H103       27.3370  -33.9014  -41.0496 H         1 UNK         0.0787 
    104 H104       27.0157  -32.6619  -42.2616 H         1 UNK         0.0787 
    105 H105       25.2668  -33.7506  -41.8086 H         1 UNK         0.3055 
    106 H106       22.6798  -33.9384  -40.4053 H         1 UNK         0.1106 
    107 H107       22.2319  -35.7205  -42.0646 H         1 UNK         0.0828 
    108 H108       23.7221  -35.3466  -42.9198 H         1 UNK         0.0828 
    109 H109       23.7765  -35.9993  -41.2818 H         1 UNK         0.0828 
    110 H110       22.9871  -31.3641  -41.0967 H         1 UNK         0.2931 
    111 H111       22.0678  -29.6064  -42.0696 H         1 UNK         0.0412 
    112 H112       23.7743  -30.2785  -45.3196 H         1 UNK         0.3472 
    113 H113       24.1767  -30.5713  -43.6407 H         1 UNK         0.3472 
    114 H114       19.7169  -29.7547  -42.9538 H         1 UNK         0.0970 
    115 H115       19.8130  -31.4937  -42.9028 H         1 UNK         0.0970 
    116 H116       17.9858  -32.1551  -41.2870 H         1 UNK         0.0612 
    117 H117       17.5399  -31.2801  -39.8444 H         1 UNK         0.0612 
@<TRIPOS>BOND
     1    1    2 1    
     2    1   62 1    
     3    1   63 1    
     4    1   64 1    
     5    2    3 2    
     6    2    4 am   BACKBONE|DICT|INTERRES
     7    4    5 1    
     8    4   65 1    
     9    5    6 1    
    10    5   25 1    
    11    5   66 1    
    12    6    7 1    
    13    6   67 1    
    14    6   68 1    
    15    7    8 1    
    16    8    9 1    
    17    8   69 1    
    18    8   70 1    
    19    9   10 ar   
    20    9   14 ar   
    21   10   11 ar   
    22   10   71 1    
    23   11   12 ar   
    24   11   61 1    
    25   12   13 ar   
    26   12   72 1    
    27   13   14 ar   
    28   13   15 1    
    29   14   73 1    
    30   15   16 1    
    31   15   74 1    
    32   15   75 1    
    33   16   17 1    
    34   17   18 1    
    35   17   76 1    
    36   17   77 1    
    37   18   19 1    
    38   18   27 1    
    39   18   78 1    
    40   19   20 am   BACKBONE|DICT|INTERRES
    41   19   79 1    
    42   20   21 2    
    43   20   22 1    
    44   22   23 1    
    45   22   24 1    
    46   22   80 1    
    47   23   81 1    
    48   23   82 1    
    49   23   83 1    
    50   24   25 am   BACKBONE|DICT|INTERRES
    51   24   84 1    
    52   25   26 2    
    53   27   28 2    
    54   27   29 am   BACKBONE|DICT|INTERRES
    55   29   30 1    
    56   29   85 1    
    57   30   31 1    
    58   30   32 1    
    59   30   86 1    
    60   31   87 1    
    61   31   88 1    
    62   31   89 1    
    63   32   33 2    
    64   32   34 am   BACKBONE|DICT|INTERRES
    65   34   35 1    
    66   34   90 1    
    67   35   36 1    
    68   35   37 1    
    69   35   91 1    
    70   36   92 1    
    71   36   93 1    
    72   36   94 1    
    73   37   38 2    
    74   37   39 am   BACKBONE|DICT|INTERRES
    75   39   40 1    
    76   39   95 1    
    77   40   41 1    
    78   40   42 1    
    79   40   96 1    
    80   41   97 1    
    81   41   98 1    
    82   41   99 1    
    83   42   43 2    
    84   42   44 am   BACKBONE|DICT|INTERRES
    85   44   45 1    
    86   44  100 1    
    87   45   46 1    
    88   45   47 1    
    89   45  101 1    
    90   46  102 1    
    91   46  103 1    
    92   46  104 1    
    93   47   48 2    
    94   47   49 am   BACKBONE|DICT|INTERRES
    95   49   50 1    
    96   49  105 1    
    97   50   51 1    
    98   50   52 1    
    99   50  106 1    
   100   51  107 1    
   101   51  108 1    
   102   51  109 1    
   103   52   53 2    
   104   52   54 am   BACKBONE|DICT|INTERRES
   105   54   55 1    
   106   54  110 1    
   107   55   56 1    
   108   55   59 1    
   109   55  111 1    
   110   56   57 am   BACKBONE|DICT|INTERRES
   111   56   58 2    
   112   57  112 1    
   113   57  113 1    
   114   59   60 1    
   115   59  114 1    
   116   59  115 1    
   117   60   61 1    
   118   61  116 1    
   119   61  117 1    
@<TRIPOS>SUBSTRUCTURE
     1 UNK         1 GROUP             0       ****    0 ROOT    
