@<TRIPOS>MOLECULE
3R8
117   119    1
SMALL
USER_CHARGES


@<TRIPOS>ATOM
      1 CA         15.4531  -24.6072  -42.7861 C.3       0 UNK        -0.2013 
      2 C          15.3042  -24.6178  -44.3057 C.2       0 UNK         0.4866 
      3 O          14.4818  -23.8650  -44.8240 O.2       0 UNK        -0.5176 
      4 N          16.0416  -25.4341  -45.0750 N.am      1 UNK        -0.4884 
      5 CA         17.1054  -26.3780  -44.6995 C.3       1 UNK         0.0853 
      6 C6         16.6677  -27.5339  -43.7534 C.3       10 UNK        -0.0849 
      7 S7         15.2282  -28.5000  -44.3241 S.3       10 UNK        -0.2776 
      8 C8         15.9007  -29.5098  -45.6891 C.3       10 UNK         0.0316 
      9 C9         17.2164  -30.2027  -45.3516 C.ar      10 UNK        -0.0863 
     10 C10        17.2486  -31.2963  -44.4802 C.ar      10 UNK        -0.1009 
     11 C11        18.4551  -31.9492  -44.2047 C.ar      10 UNK        -0.0712 
     12 C12        19.6322  -31.4890  -44.8050 C.ar      10 UNK        -0.0894 
     13 C13        19.6247  -30.3853  -45.6616 C.ar      10 UNK        -0.0745 
     14 C14        18.4038  -29.7578  -45.9399 C.ar      10 UNK        -0.0972 
     15 C15        20.9495  -29.9340  -46.2808 C.3       10 UNK         0.0209 
     16 S16        20.9479  -28.2301  -46.9396 S.3       10 UNK        -0.2568 
     17 C17        22.5666  -27.5938  -46.3769 C.3       10 UNK        -0.0983 
     18 CA         22.4919  -26.7723  -45.0620 C.3       3 UNK         0.0876 
     19 N          21.4177  -25.7798  -45.1199 N.am      3 UNK        -0.4424 
     20 C          21.3275  -24.6575  -44.3985 C.2       2 UNK         0.4918 
     21 O          22.1895  -24.2817  -43.6044 O.2       2 UNK        -0.4875 
     22 CA         20.0304  -23.8373  -44.5709 C.3       2 UNK         0.0481 
     23 CB         20.2323  -22.7339  -45.6210 C.3       2 UNK        -0.1831 
     24 N          18.8450  -24.6381  -44.9250 N.am      2 UNK        -0.4498 
     25 C          18.3673  -25.6521  -44.1871 C.2       1 UNK         0.5027 
     26 O          18.8899  -26.0084  -43.1325 O.2       1 UNK        -0.4969 
     27 C          22.4324  -27.6929  -43.8206 C.2       3 UNK         0.5005 
     28 O          23.3863  -28.4451  -43.6075 O.2       3 UNK        -0.5279 
     29 N          21.3571  -27.6406  -43.0132 N.am      4 UNK        -0.4463 
     30 CA         21.1527  -28.4994  -41.8364 C.3       4 UNK         0.0283 
     31 CB         19.7995  -28.1968  -41.1761 C.3       4 UNK        -0.1875 
     32 C          22.2655  -28.4129  -40.7818 C.2       4 UNK         0.4949 
     33 O          22.5368  -29.4136  -40.1224 O.2       4 UNK        -0.5039 
     34 N          22.9104  -27.2442  -40.6669 N.am      5 UNK        -0.4663 
     35 CA         24.0613  -27.0154  -39.7902 C.3       5 UNK         0.0242 
     36 CB         24.3462  -25.5067  -39.7180 C.3       5 UNK        -0.1982 
     37 C          25.3253  -27.7821  -40.2229 C.2       5 UNK         0.5017 
     38 O          26.1421  -28.1169  -39.3648 O.2       5 UNK        -0.5012 
     39 N          25.4633  -28.0479  -41.5297 N.am      6 UNK        -0.4439 
     40 CA         26.5575  -28.8306  -42.1058 C.3       6 UNK         0.0297 
     41 CB         26.8820  -28.3057  -43.5144 C.3       6 UNK        -0.2006 
     42 C          26.2051  -30.3245  -42.1510 C.2       6 UNK         0.4892 
     43 O          27.0621  -31.1565  -41.8525 O.2       6 UNK        -0.5089 
     44 N          24.9529  -30.6361  -42.5152 N.am      7 UNK        -0.4243 
     45 CA         24.4258  -32.0008  -42.6090 C.3       7 UNK         0.0196 
     46 CB         23.1476  -31.9758  -43.4599 C.3       7 UNK        -0.2007 
     47 C          24.1525  -32.6662  -41.2461 C.2       7 UNK         0.5020 
     48 O          24.0316  -33.8903  -41.1977 O.2       7 UNK        -0.5147 
     49 N          24.0471  -31.8580  -40.1809 N.am      8 UNK        -0.4734 
     50 CA         23.6734  -32.2189  -38.8067 C.3       8 UNK         0.0238 
     51 CB         24.6935  -33.1926  -38.1777 C.3       8 UNK        -0.1912 
     52 C          22.2137  -32.7052  -38.7025 C.2       8 UNK         0.5038 
     53 O          21.9233  -33.6300  -37.9405 O.2       8 UNK        -0.5046 
     54 N          21.3257  -32.0652  -39.4723 N.am      9 UNK        -0.4200 
     55 CA         19.8756  -32.3015  -39.4644 C.3       9 UNK         0.0839 
     56 C          19.1751  -31.4749  -38.3543 C.2       9 UNK         0.5513 
     57 N          18.0396  -31.9473  -37.8591 N.am      9 UNK        -0.7519 
     58 O          19.6254  -30.4007  -37.9616 O.2       9 UNK        -0.4960 
     59 C59        19.2430  -32.0259  -40.8537 C.3       10 UNK        -0.0876 
     60 S60        19.8379  -33.2077  -42.1061 S.3       10 UNK        -0.2414 
     61 C61        18.4708  -33.1896  -43.3150 C.3       10 UNK         0.0169 
     62 H62        16.4888  -24.6676  -42.4600 H         1 UNK         0.0903 
     63 H63        15.0439  -23.6839  -42.3766 H         1 UNK         0.0903 
     64 H64        14.8961  -25.4348  -42.3485 H         1 UNK         0.0903 
     65 H65        15.8647  -25.3952  -46.0695 H         1 UNK         0.3096 
     66 H66        17.4167  -26.8452  -45.6345 H         1 UNK         0.1121 
     67 H67        16.4373  -27.1579  -42.7569 H         1 UNK         0.0849 
     68 H68        17.4960  -28.2260  -43.6018 H         1 UNK         0.0849 
     69 H69        15.1606  -30.2628  -45.9639 H         1 UNK         0.0865 
     70 H70        16.0162  -28.8742  -46.5683 H         1 UNK         0.0865 
     71 H71        16.3286  -31.6480  -44.0332 H         1 UNK         0.1346 
     72 H72        20.5621  -32.0039  -44.6114 H         1 UNK         0.1412 
     73 H73        18.3651  -28.9246  -46.6259 H         1 UNK         0.1426 
     74 H74        21.7334  -30.0256  -45.5285 H         1 UNK         0.0716 
     75 H75        21.2151  -30.6188  -47.0870 H         1 UNK         0.0716 
     76 H76        22.9435  -26.9479  -47.1714 H         1 UNK         0.0695 
     77 H77        23.2910  -28.4080  -46.3075 H         1 UNK         0.0695 
     78 H78        23.4341  -26.2275  -44.9692 H         1 UNK         0.0983 
     79 H79        20.6643  -26.0052  -45.7533 H         1 UNK         0.3095 
     80 H80        19.8230  -23.3580  -43.6120 H         1 UNK         0.0454 
     81 H81        19.3640  -22.0775  -45.6807 H         1 UNK         0.0851 
     82 H82        20.4111  -23.1478  -46.6141 H         1 UNK         0.0851 
     83 H83        21.0903  -22.1083  -45.3701 H         1 UNK         0.0851 
     84 H84        18.3526  -24.3767  -45.7677 H         1 UNK         0.2976 
     85 H85        20.6077  -26.9884  -43.2238 H         1 UNK         0.3116 
     86 H86        21.1288  -29.5293  -42.1951 H         1 UNK         0.0646 
     87 H87        18.9719  -28.4340  -41.8418 H         1 UNK         0.0847 
     88 H88        19.6598  -28.7873  -40.2698 H         1 UNK         0.0847 
     89 H89        19.7163  -27.1485  -40.8879 H         1 UNK         0.0847 
     90 H90        22.6127  -26.4736  -41.2486 H         1 UNK         0.3040 
     91 H91        23.7969  -27.3646  -38.7893 H         1 UNK         0.1015 
     92 H92        24.5939  -25.0945  -40.6973 H         1 UNK         0.0786 
     93 H93        25.1871  -25.2994  -39.0545 H         1 UNK         0.0786 
     94 H94        23.4873  -24.9587  -39.3300 H         1 UNK         0.0786 
     95 H95        24.7081  -27.7977  -42.1580 H         1 UNK         0.3172 
     96 H96        27.4535  -28.7130  -41.4922 H         1 UNK         0.0595 
     97 H97        26.0338  -28.4016  -44.1932 H         1 UNK         0.0839 
     98 H98        27.7129  -28.8598  -43.9531 H         1 UNK         0.0839 
     99 H99        27.1722  -27.2553  -43.4881 H         1 UNK         0.0839 
    100 H100       24.3299  -29.8844  -42.8006 H         1 UNK         0.2998 
    101 H101       25.1657  -32.6161  -43.1255 H         1 UNK         0.0822 
    102 H102       22.7390  -32.9800  -43.5817 H         1 UNK         0.0787 
    103 H103       22.3732  -31.3621  -43.0002 H         1 UNK         0.0787 
    104 H104       23.3436  -31.5817  -44.4570 H         1 UNK         0.0787 
    105 H105       24.0830  -30.8607  -40.3572 H         1 UNK         0.3055 
    106 H106       23.7142  -31.2913  -38.2331 H         1 UNK         0.1106 
    107 H107       25.7116  -32.8147  -38.2701 H         1 UNK         0.0828 
    108 H108       24.4948  -33.3302  -37.1142 H         1 UNK         0.0828 
    109 H109       24.6568  -34.1782  -38.6421 H         1 UNK         0.0828 
    110 H110       21.6493  -31.2527  -39.9835 H         1 UNK         0.2931 
    111 H111       19.7056  -33.3552  -39.2319 H         1 UNK         0.0412 
    112 H112       17.6572  -32.8258  -38.1741 H         1 UNK         0.3472 
    113 H113       17.5603  -31.4207  -37.1452 H         1 UNK         0.3472 
    114 H114       19.4596  -31.0146  -41.1951 H         1 UNK         0.0970 
    115 H115       18.1555  -32.1026  -40.7984 H         1 UNK         0.0970 
    116 H116       18.5718  -34.0653  -43.9571 H         1 UNK         0.0612 
    117 H117       17.5230  -33.3056  -42.7873 H         1 UNK         0.0612 
@<TRIPOS>BOND
     1    1    2 1    
     2    1   62 1    
     3    1   63 1    
     4    1   64 1    
     5    2    3 2    
     6    2    4 am   BACKBONE|DICT|INTERRES
     7    4    5 1    
     8    4   65 1    
     9    5    6 1    
    10    5   25 1    
    11    5   66 1    
    12    6    7 1    
    13    6   67 1    
    14    6   68 1    
    15    7    8 1    
    16    8    9 1    
    17    8   69 1    
    18    8   70 1    
    19    9   10 ar   
    20    9   14 ar   
    21   10   11 ar   
    22   10   71 1    
    23   11   12 ar   
    24   11   61 1    
    25   12   13 ar   
    26   12   72 1    
    27   13   14 ar   
    28   13   15 1    
    29   14   73 1    
    30   15   16 1    
    31   15   74 1    
    32   15   75 1    
    33   16   17 1    
    34   17   18 1    
    35   17   76 1    
    36   17   77 1    
    37   18   19 1    
    38   18   27 1    
    39   18   78 1    
    40   19   20 am   BACKBONE|DICT|INTERRES
    41   19   79 1    
    42   20   21 2    
    43   20   22 1    
    44   22   23 1    
    45   22   24 1    
    46   22   80 1    
    47   23   81 1    
    48   23   82 1    
    49   23   83 1    
    50   24   25 am   BACKBONE|DICT|INTERRES
    51   24   84 1    
    52   25   26 2    
    53   27   28 2    
    54   27   29 am   BACKBONE|DICT|INTERRES
    55   29   30 1    
    56   29   85 1    
    57   30   31 1    
    58   30   32 1    
    59   30   86 1    
    60   31   87 1    
    61   31   88 1    
    62   31   89 1    
    63   32   33 2    
    64   32   34 am   BACKBONE|DICT|INTERRES
    65   34   35 1    
    66   34   90 1    
    67   35   36 1    
    68   35   37 1    
    69   35   91 1    
    70   36   92 1    
    71   36   93 1    
    72   36   94 1    
    73   37   38 2    
    74   37   39 am   BACKBONE|DICT|INTERRES
    75   39   40 1    
    76   39   95 1    
    77   40   41 1    
    78   40   42 1    
    79   40   96 1    
    80   41   97 1    
    81   41   98 1    
    82   41   99 1    
    83   42   43 2    
    84   42   44 am   BACKBONE|DICT|INTERRES
    85   44   45 1    
    86   44  100 1    
    87   45   46 1    
    88   45   47 1    
    89   45  101 1    
    90   46  102 1    
    91   46  103 1    
    92   46  104 1    
    93   47   48 2    
    94   47   49 am   BACKBONE|DICT|INTERRES
    95   49   50 1    
    96   49  105 1    
    97   50   51 1    
    98   50   52 1    
    99   50  106 1    
   100   51  107 1    
   101   51  108 1    
   102   51  109 1    
   103   52   53 2    
   104   52   54 am   BACKBONE|DICT|INTERRES
   105   54   55 1    
   106   54  110 1    
   107   55   56 1    
   108   55   59 1    
   109   55  111 1    
   110   56   57 am   BACKBONE|DICT|INTERRES
   111   56   58 2    
   112   57  112 1    
   113   57  113 1    
   114   59   60 1    
   115   59  114 1    
   116   59  115 1    
   117   60   61 1    
   118   61  116 1    
   119   61  117 1    
@<TRIPOS>SUBSTRUCTURE
     1 UNK         1 GROUP             0       ****    0 ROOT    
