@<TRIPOS>MOLECULE
3R8
117   119    1
SMALL
USER_CHARGES


@<TRIPOS>ATOM
      1 CA         17.9504  -24.8326  -50.8795 C.3       0 UNK        -0.2013 
      2 C          18.1409  -25.6595  -49.6166 C.2       0 UNK         0.4866 
      3 O          18.8631  -26.6567  -49.6409 O.2       0 UNK        -0.5176 
      4 N          17.4928  -25.2597  -48.5152 N.am      1 UNK        -0.4884 
      5 CA         17.6165  -25.8930  -47.1992 C.3       1 UNK         0.0853 
      6 C6         16.4219  -25.4973  -46.2811 C.3       10 UNK        -0.0849 
      7 S7         16.5927  -25.9301  -44.5101 S.3       10 UNK        -0.2776 
      8 C8         15.8314  -27.5868  -44.4362 C.3       10 UNK         0.0316 
      9 C9         16.2157  -28.3831  -43.1872 C.ar      10 UNK        -0.0863 
     10 C10        16.3301  -29.7750  -43.2727 C.ar      10 UNK        -0.1009 
     11 C11        16.6783  -30.5381  -42.1531 C.ar      10 UNK        -0.0712 
     12 C12        16.9039  -29.8988  -40.9305 C.ar      10 UNK        -0.0894 
     13 C13        16.7967  -28.5084  -40.8265 C.ar      10 UNK        -0.0745 
     14 C14        16.4405  -27.7604  -41.9522 C.ar      10 UNK        -0.0972 
     15 C15        17.0771  -27.8102  -39.5025 C.3       10 UNK         0.0209 
     16 S16        18.8176  -27.9824  -38.9877 S.3       10 UNK        -0.2568 
     17 C17        19.7218  -27.1093  -40.3174 C.3       10 UNK        -0.0983 
     18 CA         20.1645  -28.0092  -41.5059 C.3       3 UNK         0.0876 
     19 N          20.5446  -27.1769  -42.6486 N.am      3 UNK        -0.4424 
     20 C          20.4300  -27.5501  -43.9259 C.2       2 UNK         0.4918 
     21 O          20.0880  -28.6772  -44.2901 O.2       2 UNK        -0.4875 
     22 CA         20.6845  -26.4711  -44.9843 C.3       2 UNK         0.0481 
     23 CB         22.0283  -26.6580  -45.7047 C.3       2 UNK        -0.1831 
     24 N          19.5817  -26.5799  -45.9273 N.am      2 UNK        -0.4498 
     25 C          18.9939  -25.5710  -46.5756 C.2       1 UNK         0.5027 
     26 O          19.4515  -24.4265  -46.6409 O.2       1 UNK        -0.4969 
     27 C          21.2766  -29.0088  -41.1211 C.2       3 UNK         0.5005 
     28 O          22.4175  -28.9076  -41.5814 O.2       3 UNK        -0.5279 
     29 N          20.9337  -29.9447  -40.2262 N.am      4 UNK        -0.4463 
     30 CA         21.8650  -30.8400  -39.5330 C.3       4 UNK         0.0283 
     31 CB         21.0722  -31.8810  -38.7281 C.3       4 UNK        -0.1875 
     32 C          22.8416  -30.0809  -38.6163 C.2       4 UNK         0.4949 
     33 O          23.9563  -30.5527  -38.4040 O.2       4 UNK        -0.5039 
     34 N          22.4439  -28.8858  -38.1531 N.am      5 UNK        -0.4663 
     35 CA         23.3020  -27.9262  -37.4496 C.3       5 UNK         0.0242 
     36 CB         22.4341  -26.7741  -36.9184 C.3       5 UNK        -0.1982 
     37 C          24.4529  -27.3785  -38.3185 C.2       5 UNK         0.5017 
     38 O          25.4821  -26.9851  -37.7701 O.2       5 UNK        -0.5012 
     39 N          24.2726  -27.3918  -39.6479 N.am      6 UNK        -0.4439 
     40 CA         25.2958  -27.0744  -40.6473 C.3       6 UNK         0.0297 
     41 CB         24.6402  -26.2725  -41.7874 C.3       6 UNK        -0.2006 
     42 C          25.9845  -28.3437  -41.1913 C.2       6 UNK         0.4892 
     43 O          26.7679  -28.2363  -42.1349 O.2       6 UNK        -0.5089 
     44 N          25.6670  -29.5155  -40.6141 N.am      7 UNK        -0.4243 
     45 CA         26.1090  -30.8661  -40.9857 C.3       7 UNK         0.0196 
     46 CB         27.6389  -31.0106  -40.8381 C.3       7 UNK        -0.2007 
     47 C          25.6022  -31.3438  -42.3614 C.2       7 UNK         0.5020 
     48 O          26.1164  -32.3375  -42.8762 O.2       7 UNK        -0.5147 
     49 N          24.6053  -30.6565  -42.9356 N.am      8 UNK        -0.4734 
     50 CA         24.0695  -30.9571  -44.2637 C.3       8 UNK         0.0238 
     51 CB         23.5859  -29.6578  -44.9194 C.3       8 UNK        -0.1912 
     52 C          22.9423  -31.9959  -44.2086 C.2       8 UNK         0.5038 
     53 O          22.9468  -32.9301  -45.0108 O.2       8 UNK        -0.5046 
     54 N          22.0117  -31.8198  -43.2614 N.am      9 UNK        -0.4200 
     55 CA         20.8672  -32.7204  -43.0323 C.3       9 UNK         0.0839 
     56 C          21.1685  -33.8886  -42.0462 C.2       9 UNK         0.5513 
     57 N          22.3940  -34.0499  -41.5606 N.am      9 UNK        -0.7519 
     58 O          20.2793  -34.6682  -41.7166 O.2       9 UNK        -0.4960 
     59 C59        19.5872  -31.9225  -42.6506 C.3       10 UNK        -0.0876 
     60 S60        18.0795  -32.5835  -43.4345 S.3       10 UNK        -0.2414 
     61 C61        16.7915  -32.0547  -42.2589 C.3       10 UNK         0.0169 
     62 H62        17.5345  -25.4514  -51.6741 H         1 UNK         0.0903 
     63 H63        17.2777  -23.9903  -50.7187 H         1 UNK         0.0903 
     64 H64        18.9089  -24.4408  -51.2190 H         1 UNK         0.0903 
     65 H65        16.9405  -24.4142  -48.5464 H         1 UNK         0.3096 
     66 H66        17.5660  -26.9740  -47.3510 H         1 UNK         0.1121 
     67 H67        15.4971  -25.9291  -46.6672 H         1 UNK         0.0849 
     68 H68        16.2775  -24.4160  -46.3184 H         1 UNK         0.0849 
     69 H69        14.7461  -27.4847  -44.4741 H         1 UNK         0.0865 
     70 H70        16.1250  -28.1424  -45.3283 H         1 UNK         0.0865 
     71 H71        16.1526  -30.2731  -44.2164 H         1 UNK         0.1346 
     72 H72        17.1707  -30.4794  -40.0579 H         1 UNK         0.1412 
     73 H73        16.3482  -26.6869  -41.8640 H         1 UNK         0.1426 
     74 H74        16.8229  -26.7504  -39.5543 H         1 UNK         0.0716 
     75 H75        16.4373  -28.2408  -38.7310 H         1 UNK         0.0716 
     76 H76        19.0726  -26.3106  -40.6810 H         1 UNK         0.0695 
     77 H77        20.5840  -26.6056  -39.8764 H         1 UNK         0.0695 
     78 H78        19.3082  -28.6081  -41.8189 H         1 UNK         0.0983 
     79 H79        20.8671  -26.2446  -42.4365 H         1 UNK         0.3095 
     80 H80        20.6639  -25.4900  -44.5047 H         1 UNK         0.0454 
     81 H81        22.0633  -27.6015  -46.2494 H         1 UNK         0.0851 
     82 H82        22.2043  -25.8559  -46.4215 H         1 UNK         0.0851 
     83 H83        22.8577  -26.6489  -44.9966 H         1 UNK         0.0851 
     84 H84        19.1280  -27.4852  -45.9029 H         1 UNK         0.2976 
     85 H85        19.9888  -29.9171  -39.8641 H         1 UNK         0.3116 
     86 H86        22.4592  -31.3626  -40.2847 H         1 UNK         0.0646 
     87 H87        21.7454  -32.5763  -38.2245 H         1 UNK         0.0847 
     88 H88        20.4221  -32.4754  -39.3692 H         1 UNK         0.0847 
     89 H89        20.4526  -31.4149  -37.9609 H         1 UNK         0.0847 
     90 H90        21.4972  -28.5897  -38.3440 H         1 UNK         0.3040 
     91 H91        23.7539  -28.4408  -36.5984 H         1 UNK         0.1015 
     92 H92        21.6582  -27.1388  -36.2448 H         1 UNK         0.0786 
     93 H93        21.9472  -26.2269  -37.7265 H         1 UNK         0.0786 
     94 H94        23.0369  -26.0583  -36.3575 H         1 UNK         0.0786 
     95 H95        23.4070  -27.7652  -40.0177 H         1 UNK         0.3172 
     96 H96        26.0725  -26.4513  -40.1996 H         1 UNK         0.0595 
     97 H97        25.3858  -25.9417  -42.5116 H         1 UNK         0.0839 
     98 H98        24.1420  -25.3796  -41.4098 H         1 UNK         0.0839 
     99 H99        23.9034  -26.8643  -42.3312 H         1 UNK         0.0839 
    100 H100       25.0267  -29.4950  -39.8289 H         1 UNK         0.2998 
    101 H101       25.6509  -31.5381  -40.2589 H         1 UNK         0.0822 
    102 H102       27.9756  -30.6789  -39.8559 H         1 UNK         0.0787 
    103 H103       27.9469  -32.0510  -40.9489 H         1 UNK         0.0787 
    104 H104       28.1762  -30.4333  -41.5909 H         1 UNK         0.0787 
    105 H105       24.1986  -29.8713  -42.4399 H         1 UNK         0.3055 
    106 H106       24.8644  -31.3671  -44.8917 H         1 UNK         0.1106 
    107 H107       23.1554  -29.8514  -45.9028 H         1 UNK         0.0828 
    108 H108       22.8230  -29.1690  -44.3157 H         1 UNK         0.0828 
    109 H109       24.4070  -28.9536  -45.0550 H         1 UNK         0.0828 
    110 H110       22.1010  -31.0274  -42.6415 H         1 UNK         0.2931 
    111 H111       20.6634  -33.2133  -43.9846 H         1 UNK         0.0412 
    112 H112       22.5749  -34.8144  -40.9292 H         1 UNK         0.3472 
    113 H113       23.1458  -33.4492  -41.8554 H         1 UNK         0.3472 
    114 H114       19.6662  -30.8879  -42.9834 H         1 UNK         0.0970 
    115 H115       19.4508  -31.8788  -41.5696 H         1 UNK         0.0970 
    116 H116       16.9957  -32.5025  -41.2851 H         1 UNK         0.0612 
    117 H117       15.8324  -32.4576  -42.5867 H         1 UNK         0.0612 
@<TRIPOS>BOND
     1    1    2 1    
     2    1   62 1    
     3    1   63 1    
     4    1   64 1    
     5    2    3 2    
     6    2    4 am   BACKBONE|DICT|INTERRES
     7    4    5 1    
     8    4   65 1    
     9    5    6 1    
    10    5   25 1    
    11    5   66 1    
    12    6    7 1    
    13    6   67 1    
    14    6   68 1    
    15    7    8 1    
    16    8    9 1    
    17    8   69 1    
    18    8   70 1    
    19    9   10 ar   
    20    9   14 ar   
    21   10   11 ar   
    22   10   71 1    
    23   11   12 ar   
    24   11   61 1    
    25   12   13 ar   
    26   12   72 1    
    27   13   14 ar   
    28   13   15 1    
    29   14   73 1    
    30   15   16 1    
    31   15   74 1    
    32   15   75 1    
    33   16   17 1    
    34   17   18 1    
    35   17   76 1    
    36   17   77 1    
    37   18   19 1    
    38   18   27 1    
    39   18   78 1    
    40   19   20 am   BACKBONE|DICT|INTERRES
    41   19   79 1    
    42   20   21 2    
    43   20   22 1    
    44   22   23 1    
    45   22   24 1    
    46   22   80 1    
    47   23   81 1    
    48   23   82 1    
    49   23   83 1    
    50   24   25 am   BACKBONE|DICT|INTERRES
    51   24   84 1    
    52   25   26 2    
    53   27   28 2    
    54   27   29 am   BACKBONE|DICT|INTERRES
    55   29   30 1    
    56   29   85 1    
    57   30   31 1    
    58   30   32 1    
    59   30   86 1    
    60   31   87 1    
    61   31   88 1    
    62   31   89 1    
    63   32   33 2    
    64   32   34 am   BACKBONE|DICT|INTERRES
    65   34   35 1    
    66   34   90 1    
    67   35   36 1    
    68   35   37 1    
    69   35   91 1    
    70   36   92 1    
    71   36   93 1    
    72   36   94 1    
    73   37   38 2    
    74   37   39 am   BACKBONE|DICT|INTERRES
    75   39   40 1    
    76   39   95 1    
    77   40   41 1    
    78   40   42 1    
    79   40   96 1    
    80   41   97 1    
    81   41   98 1    
    82   41   99 1    
    83   42   43 2    
    84   42   44 am   BACKBONE|DICT|INTERRES
    85   44   45 1    
    86   44  100 1    
    87   45   46 1    
    88   45   47 1    
    89   45  101 1    
    90   46  102 1    
    91   46  103 1    
    92   46  104 1    
    93   47   48 2    
    94   47   49 am   BACKBONE|DICT|INTERRES
    95   49   50 1    
    96   49  105 1    
    97   50   51 1    
    98   50   52 1    
    99   50  106 1    
   100   51  107 1    
   101   51  108 1    
   102   51  109 1    
   103   52   53 2    
   104   52   54 am   BACKBONE|DICT|INTERRES
   105   54   55 1    
   106   54  110 1    
   107   55   56 1    
   108   55   59 1    
   109   55  111 1    
   110   56   57 am   BACKBONE|DICT|INTERRES
   111   56   58 2    
   112   57  112 1    
   113   57  113 1    
   114   59   60 1    
   115   59  114 1    
   116   59  115 1    
   117   60   61 1    
   118   61  116 1    
   119   61  117 1    
@<TRIPOS>SUBSTRUCTURE
     1 UNK         1 GROUP             0       ****    0 ROOT    
