@<TRIPOS>MOLECULE
3R8
117   119    1
SMALL
USER_CHARGES


@<TRIPOS>ATOM
      1 CA         19.7795  -23.0348  -40.4616 C.3       0 UNK        -0.2013 
      2 C          18.8996  -23.3207  -41.6695 C.2       0 UNK         0.4866 
      3 O          18.3659  -22.3901  -42.2745 O.2       0 UNK        -0.5176 
      4 N          18.7404  -24.6030  -42.0201 N.am      1 UNK        -0.4884 
      5 CA         18.0091  -25.0631  -43.2065 C.3       1 UNK         0.0853 
      6 C6         17.6549  -26.5671  -43.0891 C.3       10 UNK        -0.0849 
      7 S7         16.1465  -27.0099  -44.0064 S.3       10 UNK        -0.2776 
      8 C8         15.8381  -28.6888  -43.3624 C.3       10 UNK         0.0316 
      9 C9         16.9363  -29.6775  -43.7396 C.ar      10 UNK        -0.0863 
     10 C10        17.6097  -30.4044  -42.7511 C.ar      10 UNK        -0.1009 
     11 C11        18.5844  -31.3476  -43.0980 C.ar      10 UNK        -0.0712 
     12 C12        18.9023  -31.5375  -44.4468 C.ar      10 UNK        -0.0894 
     13 C13        18.2491  -30.8060  -45.4437 C.ar      10 UNK        -0.0745 
     14 C14        17.2545  -29.8928  -45.0833 C.ar      10 UNK        -0.0972 
     15 C15        18.6059  -31.0184  -46.9105 C.3       10 UNK         0.0209 
     16 S16        19.0606  -29.4707  -47.7617 S.3       10 UNK        -0.2568 
     17 C17        20.5293  -28.9532  -46.8118 C.3       10 UNK        -0.0983 
     18 CA         20.9747  -27.5061  -47.1457 C.3       3 UNK         0.0876 
     19 N          19.8906  -26.5450  -46.9093 N.am      3 UNK        -0.4424 
     20 C          19.7965  -25.3272  -47.4567 C.2       2 UNK         0.4918 
     21 O          20.5945  -24.8876  -48.2844 O.2       2 UNK        -0.4875 
     22 CA         18.6381  -24.4294  -46.9772 C.3       2 UNK         0.0481 
     23 CB         17.4855  -24.4672  -47.9932 C.3       2 UNK        -0.1831 
     24 N          18.1085  -24.7394  -45.6404 N.am      2 UNK        -0.4498 
     25 C          18.8081  -24.7714  -44.4962 C.2       1 UNK         0.5027 
     26 O          20.0336  -24.6336  -44.4415 O.2       1 UNK        -0.4969 
     27 C          22.2748  -27.1555  -46.3795 C.2       3 UNK         0.5005 
     28 O          23.2526  -27.8927  -46.5150 O.2       3 UNK        -0.5279 
     29 N          22.2655  -26.0767  -45.5763 N.am      4 UNK        -0.4463 
     30 CA         23.2876  -25.6706  -44.6028 C.3       4 UNK         0.0283 
     31 CB         24.6520  -25.3912  -45.2695 C.3       4 UNK        -0.1875 
     32 C          23.3575  -26.6789  -43.4426 C.2       4 UNK         0.4949 
     33 O          24.4337  -27.1723  -43.1009 O.2       4 UNK        -0.5039 
     34 N          22.1774  -26.9916  -42.8907 N.am      5 UNK        -0.4663 
     35 CA         21.9786  -27.9621  -41.8155 C.3       5 UNK         0.0242 
     36 CB         20.4735  -28.2047  -41.6320 C.3       5 UNK        -0.1982 
     37 C          22.6019  -27.5104  -40.4864 C.2       5 UNK         0.5017 
     38 O          22.5086  -26.3321  -40.1341 O.2       5 UNK        -0.5012 
     39 N          23.1722  -28.4745  -39.7582 N.am      6 UNK        -0.4439 
     40 CA         23.7597  -28.3055  -38.4305 C.3       6 UNK         0.0297 
     41 CB         25.1827  -27.7202  -38.5445 C.3       6 UNK        -0.2006 
     42 C          23.7147  -29.6507  -37.6904 C.2       6 UNK         0.4892 
     43 O          24.7416  -30.1154  -37.1939 O.2       6 UNK        -0.5089 
     44 N          22.5309  -30.2848  -37.6910 N.am      7 UNK        -0.4243 
     45 CA         22.1733  -31.5920  -37.1091 C.3       7 UNK         0.0196 
     46 CB         22.3921  -31.6070  -35.5836 C.3       7 UNK        -0.2007 
     47 C          22.8397  -32.8158  -37.7691 C.2       7 UNK         0.5020 
     48 O          22.1961  -33.8592  -37.8833 O.2       7 UNK        -0.5147 
     49 N          24.0922  -32.6728  -38.2207 N.am      8 UNK        -0.4734 
     50 CA         24.9104  -33.7022  -38.8753 C.3       8 UNK         0.0238 
     51 CB         26.3221  -33.1391  -39.1071 C.3       8 UNK        -0.1912 
     52 C          24.3287  -34.2519  -40.1921 C.2       8 UNK         0.5038 
     53 O          24.7135  -35.3464  -40.6059 O.2       8 UNK        -0.5046 
     54 N          23.4120  -33.4995  -40.8134 N.am      9 UNK        -0.4200 
     55 CA         22.5968  -33.9287  -41.9574 C.3       9 UNK         0.0839 
     56 C          21.5448  -35.0314  -41.6311 C.2       9 UNK         0.5513 
     57 N          21.2306  -35.3085  -40.3701 N.am      9 UNK        -0.7519 
     58 O          21.0089  -35.6513  -42.5459 O.2       9 UNK        -0.4960 
     59 C59        21.9599  -32.7168  -42.6898 C.3       10 UNK        -0.0876 
     60 S60        20.9333  -31.6576  -41.6073 S.3       10 UNK        -0.2414 
     61 C61        19.2430  -32.2012  -42.0189 C.3       10 UNK         0.0169 
     62 H62        20.2366  -23.9417  -40.0651 H         1 UNK         0.0903 
     63 H63        20.5794  -22.3475  -40.7357 H         1 UNK         0.0903 
     64 H64        19.1911  -22.5747  -39.6683 H         1 UNK         0.0903 
     65 H65        19.2213  -25.3151  -41.4916 H         1 UNK         0.3096 
     66 H66        17.0828  -24.4846  -43.2509 H         1 UNK         0.1121 
     67 H67        17.4802  -26.8322  -42.0448 H         1 UNK         0.0849 
     68 H68        18.4733  -27.2019  -43.4310 H         1 UNK         0.0849 
     69 H69        15.7115  -28.6384  -42.2798 H         1 UNK         0.0865 
     70 H70        14.8899  -29.0496  -43.7631 H         1 UNK         0.0865 
     71 H71        17.3576  -30.2558  -41.7100 H         1 UNK         0.1346 
     72 H72        19.6483  -32.2669  -44.7251 H         1 UNK         0.1412 
     73 H73        16.7340  -29.3379  -45.8522 H         1 UNK         0.1426 
     74 H74        17.7497  -31.4619  -47.4203 H         1 UNK         0.0716 
     75 H75        19.4282  -31.7281  -47.0135 H         1 UNK         0.0716 
     76 H76        20.3178  -29.0423  -45.7445 H         1 UNK         0.0695 
     77 H77        21.3274  -29.6662  -47.0278 H         1 UNK         0.0695 
     78 H78        21.2287  -27.4719  -48.2075 H         1 UNK         0.0983 
     79 H79        19.1708  -26.8377  -46.2658 H         1 UNK         0.3095 
     80 H80        19.0223  -23.4082  -46.9382 H         1 UNK         0.0454 
     81 H81        17.8371  -24.2123  -48.9941 H         1 UNK         0.0851 
     82 H82        17.0310  -25.4571  -48.0506 H         1 UNK         0.0851 
     83 H83        16.7041  -23.7517  -47.7369 H         1 UNK         0.0851 
     84 H84        17.1145  -24.9166  -45.5893 H         1 UNK         0.2976 
     85 H85        21.3998  -25.5488  -45.5100 H         1 UNK         0.3116 
     86 H86        22.9394  -24.7306  -44.1717 H         1 UNK         0.0646 
     87 H87        25.3495  -24.9581  -44.5519 H         1 UNK         0.0847 
     88 H88        24.5538  -24.6850  -46.0937 H         1 UNK         0.0847 
     89 H89        25.1153  -26.2985  -45.6571 H         1 UNK         0.0847 
     90 H90        21.3589  -26.5022  -43.2217 H         1 UNK         0.3040 
     91 H91        22.4472  -28.8988  -42.1262 H         1 UNK         0.1015 
     92 H92        20.0376  -28.6525  -42.5250 H         1 UNK         0.0786 
     93 H93        19.9414  -27.2817  -41.4072 H         1 UNK         0.0786 
     94 H94        20.2808  -28.8902  -40.8060 H         1 UNK         0.0786 
     95 H95        23.1918  -29.4156  -40.1273 H         1 UNK         0.3172 
     96 H96        23.1455  -27.6108  -37.8536 H         1 UNK         0.0595 
     97 H97        25.6304  -27.5839  -37.5593 H         1 UNK         0.0839 
     98 H98        25.1751  -26.7451  -39.0316 H         1 UNK         0.0839 
     99 H99        25.8414  -28.3746  -39.1167 H         1 UNK         0.0839 
    100 H100       21.7657  -29.8117  -38.1525 H         1 UNK         0.2998 
    101 H101       21.1016  -31.7025  -37.2834 H         1 UNK         0.0822 
    102 H102       21.8585  -30.7898  -35.0983 H         1 UNK         0.0787 
    103 H103       22.0251  -32.5373  -35.1479 H         1 UNK         0.0787 
    104 H104       23.4469  -31.5225  -35.3205 H         1 UNK         0.0787 
    105 H105       24.5460  -31.7855  -38.0161 H         1 UNK         0.3055 
    106 H106       24.9840  -34.5469  -38.1869 H         1 UNK         0.1106 
    107 H107       26.3064  -32.2720  -39.7686 H         1 UNK         0.0828 
    108 H108       26.7883  -32.8369  -38.1691 H         1 UNK         0.0828 
    109 H109       26.9727  -33.8865  -39.5637 H         1 UNK         0.0828 
    110 H110       23.1430  -32.6268  -40.3860 H         1 UNK         0.2931 
    111 H111       23.2848  -34.3912  -42.6680 H         1 UNK         0.0412 
    112 H112       20.5518  -36.0282  -40.1797 H         1 UNK         0.3472 
    113 H113       21.6479  -34.7955  -39.6011 H         1 UNK         0.3472 
    114 H114       21.3844  -33.0528  -43.5521 H         1 UNK         0.0970 
    115 H115       22.7521  -32.0907  -43.1028 H         1 UNK         0.0970 
    116 H116       18.6479  -32.1674  -41.1051 H         1 UNK         0.0612 
    117 H117       19.2476  -33.2468  -42.3285 H         1 UNK         0.0612 
@<TRIPOS>BOND
     1    1    2 1    
     2    1   62 1    
     3    1   63 1    
     4    1   64 1    
     5    2    3 2    
     6    2    4 am   BACKBONE|DICT|INTERRES
     7    4    5 1    
     8    4   65 1    
     9    5    6 1    
    10    5   25 1    
    11    5   66 1    
    12    6    7 1    
    13    6   67 1    
    14    6   68 1    
    15    7    8 1    
    16    8    9 1    
    17    8   69 1    
    18    8   70 1    
    19    9   10 ar   
    20    9   14 ar   
    21   10   11 ar   
    22   10   71 1    
    23   11   12 ar   
    24   11   61 1    
    25   12   13 ar   
    26   12   72 1    
    27   13   14 ar   
    28   13   15 1    
    29   14   73 1    
    30   15   16 1    
    31   15   74 1    
    32   15   75 1    
    33   16   17 1    
    34   17   18 1    
    35   17   76 1    
    36   17   77 1    
    37   18   19 1    
    38   18   27 1    
    39   18   78 1    
    40   19   20 am   BACKBONE|DICT|INTERRES
    41   19   79 1    
    42   20   21 2    
    43   20   22 1    
    44   22   23 1    
    45   22   24 1    
    46   22   80 1    
    47   23   81 1    
    48   23   82 1    
    49   23   83 1    
    50   24   25 am   BACKBONE|DICT|INTERRES
    51   24   84 1    
    52   25   26 2    
    53   27   28 2    
    54   27   29 am   BACKBONE|DICT|INTERRES
    55   29   30 1    
    56   29   85 1    
    57   30   31 1    
    58   30   32 1    
    59   30   86 1    
    60   31   87 1    
    61   31   88 1    
    62   31   89 1    
    63   32   33 2    
    64   32   34 am   BACKBONE|DICT|INTERRES
    65   34   35 1    
    66   34   90 1    
    67   35   36 1    
    68   35   37 1    
    69   35   91 1    
    70   36   92 1    
    71   36   93 1    
    72   36   94 1    
    73   37   38 2    
    74   37   39 am   BACKBONE|DICT|INTERRES
    75   39   40 1    
    76   39   95 1    
    77   40   41 1    
    78   40   42 1    
    79   40   96 1    
    80   41   97 1    
    81   41   98 1    
    82   41   99 1    
    83   42   43 2    
    84   42   44 am   BACKBONE|DICT|INTERRES
    85   44   45 1    
    86   44  100 1    
    87   45   46 1    
    88   45   47 1    
    89   45  101 1    
    90   46  102 1    
    91   46  103 1    
    92   46  104 1    
    93   47   48 2    
    94   47   49 am   BACKBONE|DICT|INTERRES
    95   49   50 1    
    96   49  105 1    
    97   50   51 1    
    98   50   52 1    
    99   50  106 1    
   100   51  107 1    
   101   51  108 1    
   102   51  109 1    
   103   52   53 2    
   104   52   54 am   BACKBONE|DICT|INTERRES
   105   54   55 1    
   106   54  110 1    
   107   55   56 1    
   108   55   59 1    
   109   55  111 1    
   110   56   57 am   BACKBONE|DICT|INTERRES
   111   56   58 2    
   112   57  112 1    
   113   57  113 1    
   114   59   60 1    
   115   59  114 1    
   116   59  115 1    
   117   60   61 1    
   118   61  116 1    
   119   61  117 1    
@<TRIPOS>SUBSTRUCTURE
     1 UNK         1 GROUP             0       ****    0 ROOT    
