@<TRIPOS>MOLECULE
3R8
117   119    1
SMALL
USER_CHARGES


@<TRIPOS>ATOM
      1 CA         17.5613  -26.9918  -47.6630 C.3       0 UNK        -0.2013 
      2 C          16.9113  -25.7923  -46.9758 C.2       0 UNK         0.4866 
      3 O          16.4446  -24.8852  -47.6621 O.2       0 UNK        -0.5176 
      4 N          16.8379  -25.7417  -45.6386 N.am      1 UNK        -0.4884 
      5 CA         17.4130  -26.6961  -44.6856 C.3       1 UNK         0.0853 
      6 C6         16.8306  -26.5085  -43.2617 C.3       10 UNK        -0.0849 
      7 S7         15.0273  -26.7649  -43.1177 S.3       10 UNK        -0.2776 
      8 C8         14.7473  -28.4236  -43.8357 C.3       10 UNK         0.0316 
      9 C9         15.7658  -29.4782  -43.4087 C.ar      10 UNK        -0.0863 
     10 C10        16.3405  -30.3100  -44.3758 C.ar      10 UNK        -0.1009 
     11 C11        17.2833  -31.2750  -44.0144 C.ar      10 UNK        -0.0712 
     12 C12        17.6487  -31.4109  -42.6738 C.ar      10 UNK        -0.0894 
     13 C13        17.0789  -30.5927  -41.6947 C.ar      10 UNK        -0.0745 
     14 C14        16.1284  -29.6367  -42.0654 C.ar      10 UNK        -0.0972 
     15 C15        17.4712  -30.7729  -40.2359 C.3       10 UNK         0.0209 
     16 S16        19.2509  -30.5011  -39.9644 S.3       10 UNK        -0.2568 
     17 C17        19.3532  -28.6879  -39.8274 C.3       10 UNK        -0.0983 
     18 CA         20.6209  -28.1426  -40.5290 C.3       3 UNK         0.0876 
     19 N          20.4788  -28.1211  -41.9879 N.am      3 UNK        -0.4424 
     20 C          21.4356  -27.7387  -42.8475 C.2       2 UNK         0.4918 
     21 O          22.5637  -27.3958  -42.4995 O.2       2 UNK        -0.4875 
     22 CA         21.0967  -27.7418  -44.3469 C.3       2 UNK         0.0481 
     23 CB         21.6977  -28.9861  -45.0100 C.3       2 UNK        -0.1831 
     24 N          19.6521  -27.6956  -44.5928 N.am      2 UNK        -0.4498 
     25 C          18.9449  -26.5570  -44.6205 C.2       1 UNK         0.5027 
     26 O          19.4467  -25.4326  -44.5551 O.2       1 UNK        -0.4969 
     27 C          21.0032  -26.7545  -39.9730 C.2       3 UNK         0.5005 
     28 O          20.4195  -25.7498  -40.3846 O.2       3 UNK        -0.5279 
     29 N          21.9860  -26.7491  -39.0625 N.am      4 UNK        -0.4463 
     30 CA         22.6411  -25.6153  -38.3947 C.3       4 UNK         0.0283 
     31 CB         21.6571  -24.5365  -37.8985 C.3       4 UNK        -0.1875 
     32 C          23.7987  -25.0126  -39.2079 C.2       4 UNK         0.4949 
     33 O          24.7439  -24.5110  -38.5987 O.2       4 UNK        -0.5039 
     34 N          23.7516  -25.1061  -40.5444 N.am      5 UNK        -0.4663 
     35 CA         24.9059  -24.8513  -41.4142 C.3       5 UNK         0.0242 
     36 CB         24.4277  -24.4541  -42.8207 C.3       5 UNK        -0.1982 
     37 C          25.8195  -26.0884  -41.4623 C.2       5 UNK         0.5017 
     38 O          27.0401  -25.9566  -41.3676 O.2       5 UNK        -0.5012 
     39 N          25.1922  -27.2633  -41.5653 N.am      6 UNK        -0.4439 
     40 CA         25.7676  -28.5951  -41.4307 C.3       6 UNK         0.0297 
     41 CB         25.7275  -29.2829  -42.8077 C.3       6 UNK        -0.2006 
     42 C          24.9436  -29.3790  -40.3942 C.2       6 UNK         0.4892 
     43 O          23.9551  -28.8631  -39.8629 O.2       6 UNK        -0.5089 
     44 N          25.3603  -30.6217  -40.1215 N.am      7 UNK        -0.4243 
     45 CA         24.6512  -31.5434  -39.2276 C.3       7 UNK         0.0196 
     46 CB         25.5869  -32.7024  -38.8468 C.3       7 UNK        -0.2007 
     47 C          23.3412  -32.0865  -39.8296 C.2       7 UNK         0.5020 
     48 O          22.4102  -32.3738  -39.0780 O.2       7 UNK        -0.5147 
     49 N          23.2979  -32.2236  -41.1601 N.am      8 UNK        -0.4734 
     50 CA         22.1794  -32.7208  -41.9602 C.3       8 UNK         0.0238 
     51 CB         21.9552  -34.2264  -41.7026 C.3       8 UNK        -0.1912 
     52 C          22.4952  -32.4622  -43.4411 C.2       8 UNK         0.5038 
     53 O          23.6158  -32.0544  -43.7618 O.2       8 UNK        -0.5046 
     54 N          21.5107  -32.7089  -44.3143 N.am      9 UNK        -0.4200 
     55 CA         21.6567  -32.6398  -45.7778 C.3       9 UNK         0.0839 
     56 C          22.5804  -33.7596  -46.3295 C.2       9 UNK         0.5513 
     57 N          23.3447  -33.4746  -47.3747 N.am      9 UNK        -0.7519 
     58 O          22.5747  -34.8911  -45.8486 O.2       9 UNK        -0.4960 
     59 C59        20.2844  -32.6619  -46.5031 C.3       10 UNK        -0.0876 
     60 S60        19.1968  -31.2885  -45.9900 S.3       10 UNK        -0.2414 
     61 C61        17.9062  -32.1745  -45.0679 C.3       10 UNK         0.0169 
     62 H62        17.1319  -27.9314  -47.3174 H         1 UNK         0.0903 
     63 H63        17.4040  -26.9411  -48.7403 H         1 UNK         0.0903 
     64 H64        18.6367  -27.0069  -47.4897 H         1 UNK         0.0903 
     65 H65        16.4025  -24.9346  -45.2154 H         1 UNK         0.3096 
     66 H66        17.1793  -27.7033  -45.0266 H         1 UNK         0.1121 
     67 H67        17.0454  -25.5016  -42.8971 H         1 UNK         0.0849 
     68 H68        17.3187  -27.1798  -42.5532 H         1 UNK         0.0849 
     69 H69        13.7513  -28.7642  -43.5501 H         1 UNK         0.0865 
     70 H70        14.7311  -28.3234  -44.9222 H         1 UNK         0.0865 
     71 H71        16.0607  -30.2078  -45.4158 H         1 UNK         0.1346 
     72 H72        18.3768  -32.1566  -42.3855 H         1 UNK         0.1412 
     73 H73        15.6761  -29.0068  -41.3113 H         1 UNK         0.1426 
     74 H74        17.2254  -31.7918  -39.9336 H         1 UNK         0.0716 
     75 H75        16.8966  -30.1136  -39.5834 H         1 UNK         0.0716 
     76 H76        19.3619  -28.4571  -38.7601 H         1 UNK         0.0695 
     77 H77        18.4535  -28.2210  -40.2330 H         1 UNK         0.0695 
     78 H78        21.4457  -28.8239  -40.3131 H         1 UNK         0.0983 
     79 H79        19.5801  -28.3967  -42.3492 H         1 UNK         0.3095 
     80 H80        21.5694  -26.8660  -44.7966 H         1 UNK         0.0454 
     81 H81        21.3244  -29.8961  -44.5438 H         1 UNK         0.0851 
     82 H82        22.7842  -28.9964  -44.9120 H         1 UNK         0.0851 
     83 H83        21.4666  -29.0269  -46.0744 H         1 UNK         0.0851 
     84 H84        19.1802  -28.5857  -44.6808 H         1 UNK         0.2976 
     85 H85        22.4558  -27.6361  -38.9062 H         1 UNK         0.3116 
     86 H86        23.0993  -26.0523  -37.5059 H         1 UNK         0.0646 
     87 H87        21.2290  -23.9620  -38.7202 H         1 UNK         0.0847 
     88 H88        22.1650  -23.8251  -37.2461 H         1 UNK         0.0847 
     89 H89        20.8385  -24.9736  -37.3270 H         1 UNK         0.0847 
     90 H90        22.9390  -25.5334  -40.9697 H         1 UNK         0.3040 
     91 H91        25.4879  -24.0196  -41.0102 H         1 UNK         0.1015 
     92 H92        23.8511  -25.2456  -43.2992 H         1 UNK         0.0786 
     93 H93        25.2762  -24.2339  -43.4698 H         1 UNK         0.0786 
     94 H94        23.8046  -23.5602  -42.7881 H         1 UNK         0.0786 
     95 H95        24.1774  -27.2602  -41.6564 H         1 UNK         0.3172 
     96 H96        26.7982  -28.5331  -41.0758 H         1 UNK         0.0595 
     97 H97        26.1980  -30.2661  -42.7811 H         1 UNK         0.0839 
     98 H98        26.2576  -28.6953  -43.5573 H         1 UNK         0.0839 
     99 H99        24.7032  -29.4204  -43.1581 H         1 UNK         0.0839 
    100 H100       26.1892  -30.9740  -40.5785 H         1 UNK         0.2998 
    101 H101       24.3922  -31.0024  -38.3145 H         1 UNK         0.0822 
    102 H102       25.0931  -33.3917  -38.1603 H         1 UNK         0.0787 
    103 H103       25.8946  -33.2782  -39.7207 H         1 UNK         0.0787 
    104 H104       26.4860  -32.3398  -38.3481 H         1 UNK         0.0787 
    105 H105       24.0926  -31.9353  -41.7187 H         1 UNK         0.3055 
    106 H106       21.2820  -32.1578  -41.6941 H         1 UNK         0.1106 
    107 H107       21.1344  -34.6173  -42.3048 H         1 UNK         0.0828 
    108 H108       22.8438  -34.8102  -41.9459 H         1 UNK         0.0828 
    109 H109       21.7012  -34.4248  -40.6616 H         1 UNK         0.0828 
    110 H110       20.6303  -33.0643  -43.9767 H         1 UNK         0.2931 
    111 H111       22.1339  -31.6849  -46.0063 H         1 UNK         0.0412 
    112 H112       23.9392  -34.1933  -47.7579 H         1 UNK         0.3472 
    113 H113       23.3495  -32.5520  -47.7818 H         1 UNK         0.3472 
    114 H114       19.7810  -33.6187  -46.3529 H         1 UNK         0.0970 
    115 H115       20.4296  -32.5715  -47.5813 H         1 UNK         0.0970 
    116 H116       18.3261  -33.0633  -44.5948 H         1 UNK         0.0612 
    117 H117       17.1420  -32.5255  -45.7628 H         1 UNK         0.0612 
@<TRIPOS>BOND
     1    1    2 1    
     2    1   62 1    
     3    1   63 1    
     4    1   64 1    
     5    2    3 2    
     6    2    4 am   BACKBONE|DICT|INTERRES
     7    4    5 1    
     8    4   65 1    
     9    5    6 1    
    10    5   25 1    
    11    5   66 1    
    12    6    7 1    
    13    6   67 1    
    14    6   68 1    
    15    7    8 1    
    16    8    9 1    
    17    8   69 1    
    18    8   70 1    
    19    9   10 ar   
    20    9   14 ar   
    21   10   11 ar   
    22   10   71 1    
    23   11   12 ar   
    24   11   61 1    
    25   12   13 ar   
    26   12   72 1    
    27   13   14 ar   
    28   13   15 1    
    29   14   73 1    
    30   15   16 1    
    31   15   74 1    
    32   15   75 1    
    33   16   17 1    
    34   17   18 1    
    35   17   76 1    
    36   17   77 1    
    37   18   19 1    
    38   18   27 1    
    39   18   78 1    
    40   19   20 am   BACKBONE|DICT|INTERRES
    41   19   79 1    
    42   20   21 2    
    43   20   22 1    
    44   22   23 1    
    45   22   24 1    
    46   22   80 1    
    47   23   81 1    
    48   23   82 1    
    49   23   83 1    
    50   24   25 am   BACKBONE|DICT|INTERRES
    51   24   84 1    
    52   25   26 2    
    53   27   28 2    
    54   27   29 am   BACKBONE|DICT|INTERRES
    55   29   30 1    
    56   29   85 1    
    57   30   31 1    
    58   30   32 1    
    59   30   86 1    
    60   31   87 1    
    61   31   88 1    
    62   31   89 1    
    63   32   33 2    
    64   32   34 am   BACKBONE|DICT|INTERRES
    65   34   35 1    
    66   34   90 1    
    67   35   36 1    
    68   35   37 1    
    69   35   91 1    
    70   36   92 1    
    71   36   93 1    
    72   36   94 1    
    73   37   38 2    
    74   37   39 am   BACKBONE|DICT|INTERRES
    75   39   40 1    
    76   39   95 1    
    77   40   41 1    
    78   40   42 1    
    79   40   96 1    
    80   41   97 1    
    81   41   98 1    
    82   41   99 1    
    83   42   43 2    
    84   42   44 am   BACKBONE|DICT|INTERRES
    85   44   45 1    
    86   44  100 1    
    87   45   46 1    
    88   45   47 1    
    89   45  101 1    
    90   46  102 1    
    91   46  103 1    
    92   46  104 1    
    93   47   48 2    
    94   47   49 am   BACKBONE|DICT|INTERRES
    95   49   50 1    
    96   49  105 1    
    97   50   51 1    
    98   50   52 1    
    99   50  106 1    
   100   51  107 1    
   101   51  108 1    
   102   51  109 1    
   103   52   53 2    
   104   52   54 am   BACKBONE|DICT|INTERRES
   105   54   55 1    
   106   54  110 1    
   107   55   56 1    
   108   55   59 1    
   109   55  111 1    
   110   56   57 am   BACKBONE|DICT|INTERRES
   111   56   58 2    
   112   57  112 1    
   113   57  113 1    
   114   59   60 1    
   115   59  114 1    
   116   59  115 1    
   117   60   61 1    
   118   61  116 1    
   119   61  117 1    
@<TRIPOS>SUBSTRUCTURE
     1 UNK         1 GROUP             0       ****    0 ROOT    
