@<TRIPOS>MOLECULE
3R8
117   119    1
SMALL
USER_CHARGES


@<TRIPOS>ATOM
      1 CA         23.6967  -31.1513  -46.8771 C.3       0 UNK        -0.2013 
      2 C          22.5210  -30.5882  -46.0954 C.2       0 UNK         0.4866 
      3 O          22.5839  -30.4745  -44.8684 O.2       0 UNK        -0.5176 
      4 N          21.4604  -30.1941  -46.8090 N.am      1 UNK        -0.4884 
      5 CA         20.2785  -29.4996  -46.2816 C.3       1 UNK         0.0853 
      6 C6         19.0216  -29.7877  -47.1428 C.3       10 UNK        -0.0849 
      7 S7         18.3568  -31.4457  -46.7783 S.3       10 UNK        -0.2776 
      8 C8         16.7022  -31.0495  -46.1186 C.3       10 UNK         0.0316 
      9 C9         16.7472  -30.1812  -44.8649 C.ar      10 UNK        -0.0863 
     10 C10        17.1459  -30.7279  -43.6420 C.ar      10 UNK        -0.1009 
     11 C11        17.1411  -29.9528  -42.4721 C.ar      10 UNK        -0.0712 
     12 C12        16.7346  -28.6152  -42.5491 C.ar      10 UNK        -0.0894 
     13 C13        16.3232  -28.0579  -43.7633 C.ar      10 UNK        -0.0745 
     14 C14        16.3374  -28.8456  -44.9176 C.ar      10 UNK        -0.0972 
     15 C15        15.7939  -26.6305  -43.8267 C.3       10 UNK         0.0209 
     16 S16        16.9911  -25.4841  -44.5803 S.3       10 UNK        -0.2568 
     17 C17        17.7344  -24.6572  -43.1303 C.3       10 UNK        -0.0983 
     18 CA         19.0383  -25.3319  -42.6429 C.3       3 UNK         0.0876 
     19 N          20.0062  -25.5142  -43.7290 N.am      3 UNK        -0.4424 
     20 C          21.1795  -26.1437  -43.6130 C.2       2 UNK         0.4918 
     21 O          21.5980  -26.6347  -42.5640 O.2       2 UNK        -0.4875 
     22 CA         21.9761  -26.3478  -44.9052 C.3       2 UNK         0.0481 
     23 CB         23.4935  -26.2460  -44.6723 C.3       2 UNK        -0.1831 
     24 N          21.6518  -27.6812  -45.3948 N.am      2 UNK        -0.4498 
     25 C          20.5686  -27.9919  -46.1163 C.2       1 UNK         0.5027 
     26 O          19.8316  -27.1471  -46.6281 O.2       1 UNK        -0.4969 
     27 C          19.6545  -24.5514  -41.4618 C.2       3 UNK         0.5005 
     28 O          20.4497  -23.6346  -41.6847 O.2       3 UNK        -0.5279 
     29 N          19.3112  -24.9584  -40.2315 N.am      4 UNK        -0.4463 
     30 CA         19.8382  -24.4991  -38.9351 C.3       4 UNK         0.0283 
     31 CB         19.6484  -22.9828  -38.7305 C.3       4 UNK        -0.1875 
     32 C          21.2929  -24.9259  -38.6513 C.2       4 UNK         0.4949 
     33 O          21.5944  -25.2718  -37.5090 O.2       4 UNK        -0.5039 
     34 N          22.1596  -24.9271  -39.6738 N.am      5 UNK        -0.4663 
     35 CA         23.5273  -25.4551  -39.6103 C.3       5 UNK         0.0242 
     36 CB         24.3189  -24.9898  -40.8430 C.3       5 UNK        -0.1982 
     37 C          23.5512  -26.9894  -39.4900 C.2       5 UNK         0.5017 
     38 O          24.3605  -27.5236  -38.7314 O.2       5 UNK        -0.5012 
     39 N          22.6395  -27.6492  -40.2206 N.am      6 UNK        -0.4439 
     40 CA         22.3507  -29.0847  -40.2343 C.3       6 UNK         0.0297 
     41 CB         21.7670  -29.5255  -38.8742 C.3       6 UNK        -0.2006 
     42 C          23.5503  -29.9357  -40.6914 C.2       6 UNK         0.4892 
     43 O          23.8753  -30.9307  -40.0422 O.2       6 UNK        -0.5089 
     44 N          24.1774  -29.5193  -41.8033 N.am      7 UNK        -0.4243 
     45 CA         25.4182  -30.0758  -42.3597 C.3       7 UNK         0.0196 
     46 CB         25.7914  -29.3330  -43.6539 C.3       7 UNK        -0.2007 
     47 C          25.4011  -31.6002  -42.5734 C.2       7 UNK         0.5020 
     48 O          26.2856  -32.2847  -42.0582 O.2       7 UNK        -0.5147 
     49 N          24.3882  -32.1041  -43.2903 N.am      8 UNK        -0.4734 
     50 CA         24.1077  -33.5429  -43.4038 C.3       8 UNK         0.0238 
     51 CB         23.9193  -33.9263  -44.8795 C.3       8 UNK        -0.1912 
     52 C          22.8661  -33.9497  -42.5947 C.2       8 UNK         0.5038 
     53 O          22.6918  -35.1398  -42.3298 O.2       8 UNK        -0.5046 
     54 N          22.0230  -32.9728  -42.2341 N.am      9 UNK        -0.4200 
     55 CA         20.8024  -33.1652  -41.4394 C.3       9 UNK         0.0839 
     56 C          21.0686  -33.6158  -39.9715 C.2       9 UNK         0.5513 
     57 N          22.1744  -33.2224  -39.3502 N.am      9 UNK        -0.7519 
     58 O          20.2745  -34.3555  -39.3970 O.2       9 UNK        -0.4960 
     59 C59        19.8999  -31.9069  -41.5234 C.3       10 UNK        -0.0876 
     60 S60        18.1662  -32.2168  -41.0615 S.3       10 UNK        -0.2414 
     61 C61        17.5004  -30.5158  -41.0933 C.3       10 UNK         0.0169 
     62 H62        23.4525  -32.1311  -47.2860 H         1 UNK         0.0903 
     63 H63        23.9608  -30.4911  -47.7030 H         1 UNK         0.0903 
     64 H64        24.5739  -31.2517  -46.2385 H         1 UNK         0.0903 
     65 H65        21.4795  -30.3081  -47.8128 H         1 UNK         0.3096 
     66 H66        20.0770  -29.8630  -45.2703 H         1 UNK         0.1121 
     67 H67        19.2515  -29.7168  -48.2072 H         1 UNK         0.0849 
     68 H68        18.2341  -29.0547  -46.9659 H         1 UNK         0.0849 
     69 H69        16.1143  -30.5672  -46.9013 H         1 UNK         0.0865 
     70 H70        16.1849  -31.9819  -45.8882 H         1 UNK         0.0865 
     71 H71        17.4371  -31.7679  -43.6157 H         1 UNK         0.1346 
     72 H72        16.7048  -28.0147  -41.6502 H         1 UNK         0.1412 
     73 H73        16.0077  -28.4184  -45.8551 H         1 UNK         0.1426 
     74 H74        15.4965  -26.2806  -42.8374 H         1 UNK         0.0716 
     75 H75        14.8842  -26.6190  -44.4288 H         1 UNK         0.0716 
     76 H76        17.0002  -24.6071  -42.3244 H         1 UNK         0.0695 
     77 H77        17.9327  -23.6221  -43.4163 H         1 UNK         0.0695 
     78 H78        18.7868  -26.3340  -42.2890 H         1 UNK         0.0983 
     79 H79        19.7106  -25.1936  -44.6400 H         1 UNK         0.3095 
     80 H80        21.6879  -25.5923  -45.6393 H         1 UNK         0.0454 
     81 H81        23.8461  -26.9700  -43.9379 H         1 UNK         0.0851 
     82 H82        23.7630  -25.2540  -44.3085 H         1 UNK         0.0851 
     83 H83        24.0470  -26.4132  -45.5962 H         1 UNK         0.0851 
     84 H84        22.1803  -28.4536  -45.0040 H         1 UNK         0.2976 
     85 H85        18.6629  -25.7310  -40.1613 H         1 UNK         0.3116 
     86 H86        19.2229  -25.0004  -38.1859 H         1 UNK         0.0646 
     87 H87        20.2747  -22.3945  -39.4013 H         1 UNK         0.0847 
     88 H88        19.9138  -22.6952  -37.7125 H         1 UNK         0.0847 
     89 H89        18.6120  -22.6862  -38.8909 H         1 UNK         0.0847 
     90 H90        21.8263  -24.5881  -40.5710 H         1 UNK         0.3040 
     91 H91        24.0097  -25.0464  -38.7195 H         1 UNK         0.1015 
     92 H92        24.3721  -23.9021  -40.8914 H         1 UNK         0.0786 
     93 H93        23.8698  -25.3438  -41.7705 H         1 UNK         0.0786 
     94 H94        25.3433  -25.3636  -40.8127 H         1 UNK         0.0786 
     95 H95        22.1080  -27.1041  -40.8984 H         1 UNK         0.3172 
     96 H96        21.5769  -29.2179  -40.9905 H         1 UNK         0.0595 
     97 H97        22.5001  -29.4344  -38.0721 H         1 UNK         0.0839 
     98 H98        21.4443  -30.5656  -38.8949 H         1 UNK         0.0839 
     99 H99        20.8990  -28.9248  -38.6027 H         1 UNK         0.0839 
    100 H100       23.8111  -28.6977  -42.2608 H         1 UNK         0.2998 
    101 H101       26.2016  -29.8720  -41.6268 H         1 UNK         0.0822 
    102 H102       25.9913  -28.2790  -43.4604 H         1 UNK         0.0787 
    103 H103       26.6942  -29.7531  -44.0996 H         1 UNK         0.0787 
    104 H104       25.0016  -29.3920  -44.4021 H         1 UNK         0.0787 
    105 H105       23.7349  -31.4644  -43.7378 H         1 UNK         0.3055 
    106 H106       24.9436  -34.1277  -43.0134 H         1 UNK         0.1106 
    107 H107       23.8094  -35.0062  -44.9869 H         1 UNK         0.0828 
    108 H108       24.7779  -33.6302  -45.4817 H         1 UNK         0.0828 
    109 H109       23.0242  -33.4710  -45.3023 H         1 UNK         0.0828 
    110 H110       22.2542  -32.0263  -42.4903 H         1 UNK         0.2931 
    111 H111       20.2599  -33.9822  -41.9199 H         1 UNK         0.0412 
    112 H112       22.8252  -32.5739  -39.7812 H         1 UNK         0.3472 
    113 H113       22.3407  -33.5365  -38.4077 H         1 UNK         0.3472 
    114 H114       20.2934  -31.1113  -40.8943 H         1 UNK         0.0970 
    115 H115       19.8957  -31.5152  -42.5423 H         1 UNK         0.0970 
    116 H116       16.5971  -30.5061  -40.4822 H         1 UNK         0.0612 
    117 H117       18.2090  -29.8485  -40.6003 H         1 UNK         0.0612 
@<TRIPOS>BOND
     1    1    2 1    
     2    1   62 1    
     3    1   63 1    
     4    1   64 1    
     5    2    3 2    
     6    2    4 am   BACKBONE|DICT|INTERRES
     7    4    5 1    
     8    4   65 1    
     9    5    6 1    
    10    5   25 1    
    11    5   66 1    
    12    6    7 1    
    13    6   67 1    
    14    6   68 1    
    15    7    8 1    
    16    8    9 1    
    17    8   69 1    
    18    8   70 1    
    19    9   10 ar   
    20    9   14 ar   
    21   10   11 ar   
    22   10   71 1    
    23   11   12 ar   
    24   11   61 1    
    25   12   13 ar   
    26   12   72 1    
    27   13   14 ar   
    28   13   15 1    
    29   14   73 1    
    30   15   16 1    
    31   15   74 1    
    32   15   75 1    
    33   16   17 1    
    34   17   18 1    
    35   17   76 1    
    36   17   77 1    
    37   18   19 1    
    38   18   27 1    
    39   18   78 1    
    40   19   20 am   BACKBONE|DICT|INTERRES
    41   19   79 1    
    42   20   21 2    
    43   20   22 1    
    44   22   23 1    
    45   22   24 1    
    46   22   80 1    
    47   23   81 1    
    48   23   82 1    
    49   23   83 1    
    50   24   25 am   BACKBONE|DICT|INTERRES
    51   24   84 1    
    52   25   26 2    
    53   27   28 2    
    54   27   29 am   BACKBONE|DICT|INTERRES
    55   29   30 1    
    56   29   85 1    
    57   30   31 1    
    58   30   32 1    
    59   30   86 1    
    60   31   87 1    
    61   31   88 1    
    62   31   89 1    
    63   32   33 2    
    64   32   34 am   BACKBONE|DICT|INTERRES
    65   34   35 1    
    66   34   90 1    
    67   35   36 1    
    68   35   37 1    
    69   35   91 1    
    70   36   92 1    
    71   36   93 1    
    72   36   94 1    
    73   37   38 2    
    74   37   39 am   BACKBONE|DICT|INTERRES
    75   39   40 1    
    76   39   95 1    
    77   40   41 1    
    78   40   42 1    
    79   40   96 1    
    80   41   97 1    
    81   41   98 1    
    82   41   99 1    
    83   42   43 2    
    84   42   44 am   BACKBONE|DICT|INTERRES
    85   44   45 1    
    86   44  100 1    
    87   45   46 1    
    88   45   47 1    
    89   45  101 1    
    90   46  102 1    
    91   46  103 1    
    92   46  104 1    
    93   47   48 2    
    94   47   49 am   BACKBONE|DICT|INTERRES
    95   49   50 1    
    96   49  105 1    
    97   50   51 1    
    98   50   52 1    
    99   50  106 1    
   100   51  107 1    
   101   51  108 1    
   102   51  109 1    
   103   52   53 2    
   104   52   54 am   BACKBONE|DICT|INTERRES
   105   54   55 1    
   106   54  110 1    
   107   55   56 1    
   108   55   59 1    
   109   55  111 1    
   110   56   57 am   BACKBONE|DICT|INTERRES
   111   56   58 2    
   112   57  112 1    
   113   57  113 1    
   114   59   60 1    
   115   59  114 1    
   116   59  115 1    
   117   60   61 1    
   118   61  116 1    
   119   61  117 1    
@<TRIPOS>SUBSTRUCTURE
     1 UNK         1 GROUP             0       ****    0 ROOT    
