@<TRIPOS>MOLECULE
3R8
117   119    1
SMALL
USER_CHARGES


@<TRIPOS>ATOM
      1 CA         18.8095  -23.3988  -40.0086 C.3       0 UNK        -0.2013 
      2 C          18.1514  -23.5784  -41.3686 C.2       0 UNK         0.4866 
      3 O          17.8169  -22.5898  -42.0226 O.2       0 UNK        -0.5176 
      4 N          17.9553  -24.8326  -41.7950 N.am      1 UNK        -0.4884 
      5 CA         17.4100  -25.1916  -43.1085 C.3       1 UNK         0.0853 
      6 C6         16.9106  -26.6557  -43.1136 C.3       10 UNK        -0.0849 
      7 S7         15.6211  -26.9628  -44.3642 S.3       10 UNK        -0.2776 
      8 C8         15.3678  -28.7569  -44.1606 C.3       10 UNK         0.0316 
      9 C9         16.6276  -29.5438  -44.4930 C.ar      10 UNK        -0.0863 
     10 C10        17.3713  -30.1586  -43.4814 C.ar      10 UNK        -0.1009 
     11 C11        18.5463  -30.8576  -43.7767 C.ar      10 UNK        -0.0712 
     12 C12        18.9780  -30.9200  -45.1106 C.ar      10 UNK        -0.0894 
     13 C13        18.2407  -30.3150  -46.1340 C.ar      10 UNK        -0.0745 
     14 C14        17.0573  -29.6425  -45.8169 C.ar      10 UNK        -0.0972 
     15 C15        18.7023  -30.4193  -47.5841 C.3       10 UNK         0.0209 
     16 S16        18.7044  -28.8084  -48.4411 S.3       10 UNK        -0.2568 
     17 C17        20.4483  -28.2750  -48.3248 C.3       10 UNK        -0.0983 
     18 CA         20.8203  -27.4339  -47.0698 C.3       3 UNK         0.0876 
     19 N          19.8125  -26.4236  -46.7375 N.am      3 UNK        -0.4424 
     20 C          19.8947  -25.1264  -47.0492 C.2       2 UNK         0.4918 
     21 O          20.8412  -24.6259  -47.6579 O.2       2 UNK        -0.4875 
     22 CA         18.7302  -24.2163  -46.6118 C.3       2 UNK         0.0481 
     23 CB         17.7655  -23.9985  -47.7887 C.3       2 UNK        -0.1831 
     24 N          17.9602  -24.6609  -45.4418 N.am      2 UNK        -0.4498 
     25 C          18.4491  -24.9332  -44.2234 C.2       1 UNK         0.5027 
     26 O          19.6545  -25.0088  -43.9693 O.2       1 UNK        -0.4969 
     27 C          21.2245  -28.2724  -45.8403 C.2       3 UNK         0.5005 
     28 O          21.7891  -29.3555  -46.0084 O.2       3 UNK        -0.5279 
     29 N          20.9738  -27.7634  -44.6229 N.am      4 UNK        -0.4463 
     30 CA         21.4105  -28.3992  -43.3801 C.3       4 UNK         0.0283 
     31 CB         20.5934  -27.8675  -42.1907 C.3       4 UNK        -0.1875 
     32 C          22.9119  -28.1752  -43.1587 C.2       4 UNK         0.4949 
     33 O          23.3193  -27.0686  -42.7981 O.2       4 UNK        -0.5039 
     34 N          23.7100  -29.2295  -43.3618 N.am      5 UNK        -0.4663 
     35 CA         25.1361  -29.2751  -43.0329 C.3       5 UNK         0.0242 
     36 CB         25.8037  -30.3977  -43.8465 C.3       5 UNK        -0.1982 
     37 C          25.3157  -29.4417  -41.5124 C.2       5 UNK         0.5017 
     38 O          25.6122  -30.5420  -41.0407 O.2       5 UNK        -0.5012 
     39 N          25.0578  -28.3448  -40.7851 N.am      6 UNK        -0.4439 
     40 CA         24.9090  -28.2362  -39.3287 C.3       6 UNK         0.0297 
     41 CB         26.1805  -28.7181  -38.5945 C.3       6 UNK        -0.2006 
     42 C          23.6354  -28.9433  -38.8232 C.2       6 UNK         0.4892 
     43 O          22.8829  -29.5217  -39.6110 O.2       6 UNK        -0.5089 
     44 N          23.4114  -28.8918  -37.5024 N.am      7 UNK        -0.4243 
     45 CA         22.2733  -29.5252  -36.8214 C.3       7 UNK         0.0196 
     46 CB         22.2768  -29.1136  -35.3403 C.3       7 UNK        -0.2007 
     47 C          22.2411  -31.0603  -36.9536 C.2       7 UNK         0.5020 
     48 O          21.1667  -31.6542  -36.8631 O.2       7 UNK        -0.5147 
     49 N          23.4114  -31.6704  -37.1841 N.am      8 UNK        -0.4734 
     50 CA         23.5712  -33.0965  -37.4709 C.3       8 UNK         0.0238 
     51 CB         25.0436  -33.4835  -37.2539 C.3       8 UNK        -0.1912 
     52 C          23.1199  -33.4959  -38.8890 C.2       8 UNK         0.5038 
     53 O          22.8791  -34.6829  -39.1127 O.2       8 UNK        -0.5046 
     54 N          23.0230  -32.5263  -39.8131 N.am      9 UNK        -0.4200 
     55 CA         22.7180  -32.7280  -41.2378 C.3       9 UNK         0.0839 
     56 C          23.7922  -33.5972  -41.9612 C.2       9 UNK         0.5513 
     57 N          25.0697  -33.2852  -41.7869 N.am      9 UNK        -0.7519 
     58 O          23.4859  -34.5577  -42.6635 O.2       9 UNK        -0.4960 
     59 C59        21.2520  -33.2001  -41.4611 C.3       10 UNK        -0.0876 
     60 S60        20.6008  -32.7046  -43.0930 S.3       10 UNK        -0.2414 
     61 C61        19.3106  -31.5043  -42.6169 C.3       10 UNK         0.0169 
     62 H62        18.1493  -22.8441  -39.3423 H         1 UNK         0.0903 
     63 H63        19.0421  -24.3538  -39.5377 H         1 UNK         0.0903 
     64 H64        19.7379  -22.8379  -40.1133 H         1 UNK         0.0903 
     65 H65        18.2762  -25.6023  -41.2259 H         1 UNK         0.3096 
     66 H66        16.5559  -24.5332  -43.2860 H         1 UNK         0.1121 
     67 H67        17.7385  -27.3464  -43.2691 H         1 UNK         0.0849 
     68 H68        16.4785  -26.9125  -42.1447 H         1 UNK         0.0849 
     69 H69        15.0363  -28.9623  -43.1414 H         1 UNK         0.0865 
     70 H70        14.5569  -29.0787  -44.8157 H         1 UNK         0.0865 
     71 H71        17.0380  -30.0866  -42.4549 H         1 UNK         0.1346 
     72 H72        19.8934  -31.4339  -45.3662 H         1 UNK         0.1412 
     73 H73        16.4774  -29.1744  -46.6009 H         1 UNK         0.1426 
     74 H74        18.0215  -31.0891  -48.1109 H         1 UNK         0.0716 
     75 H75        19.6916  -30.8746  -47.6509 H         1 UNK         0.0716 
     76 H76        20.6276  -27.6573  -49.2060 H         1 UNK         0.0695 
     77 H77        21.1083  -29.1342  -48.4548 H         1 UNK         0.0695 
     78 H78        21.7528  -26.9218  -47.3174 H         1 UNK         0.0983 
     79 H79        18.9874  -26.7608  -46.2627 H         1 UNK         0.3095 
     80 H80        19.1665  -23.2501  -46.3510 H         1 UNK         0.0454 
     81 H81        18.2972  -23.6358  -48.6697 H         1 UNK         0.0851 
     82 H82        17.0028  -23.2577  -47.5484 H         1 UNK         0.0851 
     83 H83        17.2610  -24.9233  -48.0719 H         1 UNK         0.0851 
     84 H84        16.9566  -24.6829  -45.5601 H         1 UNK         0.2976 
     85 H85        20.5855  -26.8294  -44.5444 H         1 UNK         0.3116 
     86 H86        21.2284  -29.4729  -43.4511 H         1 UNK         0.0646 
     87 H87        20.6304  -26.7798  -42.1231 H         1 UNK         0.0847 
     88 H88        19.5519  -28.1733  -42.2602 H         1 UNK         0.0847 
     89 H89        20.9767  -28.2644  -41.2494 H         1 UNK         0.0847 
     90 H90        23.2941  -30.0896  -43.6902 H         1 UNK         0.3040 
     91 H91        25.6055  -28.3322  -43.3233 H         1 UNK         0.1015 
     92 H92        26.8530  -30.5112  -43.5708 H         1 UNK         0.0786 
     93 H93        25.7712  -30.1810  -44.9144 H         1 UNK         0.0786 
     94 H94        25.3171  -31.3597  -43.6904 H         1 UNK         0.0786 
     95 H95        24.7131  -27.5459  -41.3079 H         1 UNK         0.3172 
     96 H96        24.7809  -27.1728  -39.1213 H         1 UNK         0.0595 
     97 H97        26.2890  -29.8026  -38.6298 H         1 UNK         0.0839 
     98 H98        26.1678  -28.4293  -37.5434 H         1 UNK         0.0839 
     99 H99        27.0784  -28.2806  -39.0311 H         1 UNK         0.0839 
    100 H100       24.0619  -28.3867  -36.9178 H         1 UNK         0.2998 
    101 H101       21.3593  -29.1439  -37.2819 H         1 UNK         0.0822 
    102 H102       21.4261  -29.5476  -34.8126 H         1 UNK         0.0787 
    103 H103       22.2064  -28.0315  -35.2278 H         1 UNK         0.0787 
    104 H104       23.1811  -29.4479  -34.8301 H         1 UNK         0.0787 
    105 H105       24.2431  -31.1001  -37.2289 H         1 UNK         0.3055 
    106 H106       22.9581  -33.6617  -36.7650 H         1 UNK         0.1106 
    107 H107       25.3648  -33.2729  -36.2337 H         1 UNK         0.0828 
    108 H108       25.1960  -34.5502  -37.4252 H         1 UNK         0.0828 
    109 H109       25.7068  -32.9477  -37.9346 H         1 UNK         0.0828 
    110 H110       23.2152  -31.5674  -39.5463 H         1 UNK         0.2931 
    111 H111       22.8079  -31.7325  -41.6752 H         1 UNK         0.0412 
    112 H112       25.3243  -32.4358  -41.2907 H         1 UNK         0.3472 
    113 H113       25.7811  -33.8415  -42.2328 H         1 UNK         0.3472 
    114 H114       21.1664  -34.2828  -41.3527 H         1 UNK         0.0970 
    115 H115       20.6055  -32.7803  -40.6889 H         1 UNK         0.0970 
    116 H116       18.5972  -32.0189  -41.9712 H         1 UNK         0.0612 
    117 H117       19.7663  -30.7203  -42.0117 H         1 UNK         0.0612 
@<TRIPOS>BOND
     1    1    2 1    
     2    1   62 1    
     3    1   63 1    
     4    1   64 1    
     5    2    3 2    
     6    2    4 am   BACKBONE|DICT|INTERRES
     7    4    5 1    
     8    4   65 1    
     9    5    6 1    
    10    5   25 1    
    11    5   66 1    
    12    6    7 1    
    13    6   67 1    
    14    6   68 1    
    15    7    8 1    
    16    8    9 1    
    17    8   69 1    
    18    8   70 1    
    19    9   10 ar   
    20    9   14 ar   
    21   10   11 ar   
    22   10   71 1    
    23   11   12 ar   
    24   11   61 1    
    25   12   13 ar   
    26   12   72 1    
    27   13   14 ar   
    28   13   15 1    
    29   14   73 1    
    30   15   16 1    
    31   15   74 1    
    32   15   75 1    
    33   16   17 1    
    34   17   18 1    
    35   17   76 1    
    36   17   77 1    
    37   18   19 1    
    38   18   27 1    
    39   18   78 1    
    40   19   20 am   BACKBONE|DICT|INTERRES
    41   19   79 1    
    42   20   21 2    
    43   20   22 1    
    44   22   23 1    
    45   22   24 1    
    46   22   80 1    
    47   23   81 1    
    48   23   82 1    
    49   23   83 1    
    50   24   25 am   BACKBONE|DICT|INTERRES
    51   24   84 1    
    52   25   26 2    
    53   27   28 2    
    54   27   29 am   BACKBONE|DICT|INTERRES
    55   29   30 1    
    56   29   85 1    
    57   30   31 1    
    58   30   32 1    
    59   30   86 1    
    60   31   87 1    
    61   31   88 1    
    62   31   89 1    
    63   32   33 2    
    64   32   34 am   BACKBONE|DICT|INTERRES
    65   34   35 1    
    66   34   90 1    
    67   35   36 1    
    68   35   37 1    
    69   35   91 1    
    70   36   92 1    
    71   36   93 1    
    72   36   94 1    
    73   37   38 2    
    74   37   39 am   BACKBONE|DICT|INTERRES
    75   39   40 1    
    76   39   95 1    
    77   40   41 1    
    78   40   42 1    
    79   40   96 1    
    80   41   97 1    
    81   41   98 1    
    82   41   99 1    
    83   42   43 2    
    84   42   44 am   BACKBONE|DICT|INTERRES
    85   44   45 1    
    86   44  100 1    
    87   45   46 1    
    88   45   47 1    
    89   45  101 1    
    90   46  102 1    
    91   46  103 1    
    92   46  104 1    
    93   47   48 2    
    94   47   49 am   BACKBONE|DICT|INTERRES
    95   49   50 1    
    96   49  105 1    
    97   50   51 1    
    98   50   52 1    
    99   50  106 1    
   100   51  107 1    
   101   51  108 1    
   102   51  109 1    
   103   52   53 2    
   104   52   54 am   BACKBONE|DICT|INTERRES
   105   54   55 1    
   106   54  110 1    
   107   55   56 1    
   108   55   59 1    
   109   55  111 1    
   110   56   57 am   BACKBONE|DICT|INTERRES
   111   56   58 2    
   112   57  112 1    
   113   57  113 1    
   114   59   60 1    
   115   59  114 1    
   116   59  115 1    
   117   60   61 1    
   118   61  116 1    
   119   61  117 1    
@<TRIPOS>SUBSTRUCTURE
     1 UNK         1 GROUP             0       ****    0 ROOT    
