@<TRIPOS>MOLECULE
3R8
117   119    1
SMALL
USER_CHARGES


@<TRIPOS>ATOM
      1 CA         16.5652  -29.5138  -40.5021 C.3       0 UNK        -0.2013 
      2 C          16.1074  -28.4840  -41.5245 C.2       0 UNK         0.4866 
      3 O          15.4692  -27.4981  -41.1560 O.2       0 UNK        -0.5176 
      4 N          16.4248  -28.7042  -42.8072 N.am      1 UNK        -0.4884 
      5 CA         16.0571  -27.8255  -43.9261 C.3       1 UNK         0.0853 
      6 C6         16.1146  -28.5484  -45.2953 C.3       10 UNK        -0.0849 
      7 S7         15.3505  -30.2188  -45.3358 S.3       10 UNK        -0.2776 
      8 C8         16.6664  -31.4274  -44.8958 C.3       10 UNK         0.0316 
      9 C9         18.0851  -30.8845  -45.0048 C.ar      10 UNK        -0.0863 
     10 C10        18.8524  -30.6655  -43.8569 C.ar      10 UNK        -0.1009 
     11 C11        20.1041  -30.0478  -43.9453 C.ar      10 UNK        -0.0712 
     12 C12        20.6050  -29.6879  -45.1997 C.ar      10 UNK        -0.0894 
     13 C13        19.8544  -29.9238  -46.3564 C.ar      10 UNK        -0.0745 
     14 C14        18.6107  -30.5507  -46.2552 C.ar      10 UNK        -0.0972 
     15 C15        20.3487  -29.4609  -47.7166 C.3       10 UNK         0.0209 
     16 S16        19.9397  -27.7051  -47.9952 S.3       10 UNK        -0.2568 
     17 C17        21.4245  -26.8912  -47.3237 C.3       10 UNK        -0.0983 
     18 CA         21.1453  -25.6796  -46.3970 C.3       3 UNK         0.0876 
     19 N          20.2446  -25.9808  -45.2701 N.am      3 UNK        -0.4424 
     20 C          19.7338  -25.0345  -44.4656 C.2       2 UNK         0.4918 
     21 O          19.8166  -23.8277  -44.7021 O.2       2 UNK        -0.4875 
     22 CA         19.0756  -25.5113  -43.1575 C.3       2 UNK         0.0481 
     23 CB         18.4697  -24.3610  -42.3249 C.3       2 UNK        -0.1831 
     24 N          18.1046  -26.5926  -43.3387 N.am      2 UNK        -0.4498 
     25 C          16.9244  -26.5461  -43.9771 C.2       1 UNK         0.5027 
     26 O          16.5068  -25.5603  -44.5860 O.2       1 UNK        -0.4969 
     27 C          22.5012  -25.1366  -45.8928 C.2       3 UNK         0.5005 
     28 O          23.0578  -24.2099  -46.4836 O.2       3 UNK        -0.5279 
     29 N          23.0008  -25.7529  -44.8157 N.am      4 UNK        -0.4463 
     30 CA         24.2781  -25.5340  -44.1491 C.3       4 UNK         0.0283 
     31 CB         25.4436  -25.9795  -45.0567 C.3       4 UNK        -0.1875 
     32 C          24.2445  -26.3578  -42.8537 C.2       4 UNK         0.4949 
     33 O          23.2983  -27.1220  -42.6393 O.2       4 UNK        -0.5039 
     34 N          25.2836  -26.2283  -42.0213 N.am      5 UNK        -0.4663 
     35 CA         25.4498  -26.9569  -40.7570 C.3       5 UNK         0.0242 
     36 CB         26.4308  -26.1759  -39.8618 C.3       5 UNK        -0.1982 
     37 C          25.8697  -28.4317  -40.9553 C.2       5 UNK         0.5017 
     38 O          26.8699  -28.8712  -40.3839 O.2       5 UNK        -0.5012 
     39 N          25.1035  -29.1680  -41.7692 N.am      6 UNK        -0.4439 
     40 CA         25.2310  -30.6124  -41.9753 C.3       6 UNK         0.0297 
     41 CB         24.5682  -30.9896  -43.3113 C.3       6 UNK        -0.2006 
     42 C          24.6019  -31.3926  -40.8074 C.2       6 UNK         0.4892 
     43 O          23.8332  -30.8237  -40.0310 O.2       6 UNK        -0.5089 
     44 N          24.9136  -32.6933  -40.7226 N.am      7 UNK        -0.4243 
     45 CA         24.5099  -33.6016  -39.6381 C.3       7 UNK         0.0196 
     46 CB         25.1478  -34.9801  -39.8768 C.3       7 UNK        -0.2007 
     47 C          22.9906  -33.7481  -39.4169 C.2       7 UNK         0.5020 
     48 O          22.5771  -34.0846  -38.3073 O.2       7 UNK        -0.5147 
     49 N          22.1866  -33.4906  -40.4572 N.am      8 UNK        -0.4734 
     50 CA         20.7208  -33.4708  -40.3888 C.3       8 UNK         0.0238 
     51 CB         20.1528  -33.6982  -41.8013 C.3       8 UNK        -0.1912 
     52 C          20.1442  -32.1806  -39.7680 C.2       8 UNK         0.5038 
     53 O          18.9425  -32.1398  -39.5015 O.2       8 UNK        -0.5046 
     54 N          20.9848  -31.1577  -39.5742 N.am      9 UNK        -0.4200 
     55 CA         20.6379  -29.8347  -39.0435 C.3       9 UNK         0.0839 
     56 C          21.2788  -29.6032  -37.6486 C.2       9 UNK         0.5513 
     57 N          20.8590  -28.5585  -36.9473 N.am      9 UNK        -0.7519 
     58 O          22.1427  -30.3461  -37.1867 O.2       9 UNK        -0.4960 
     59 C59        21.0387  -28.7228  -40.0519 C.3       10 UNK        -0.0876 
     60 S60        19.9603  -28.7243  -41.5197 S.3       10 UNK        -0.2414 
     61 C61        20.9043  -29.7538  -42.6847 C.3       10 UNK         0.0169 
     62 H62        17.2172  -29.0452  -39.7655 H         1 UNK         0.0903 
     63 H63        15.7062  -29.9325  -39.9789 H         1 UNK         0.0903 
     64 H64        17.1145  -30.3353  -40.9609 H         1 UNK         0.0903 
     65 H65        16.9382  -29.5330  -43.0683 H         1 UNK         0.3096 
     66 H66        15.0258  -27.5030  -43.7649 H         1 UNK         0.1121 
     67 H67        15.5721  -27.9466  -46.0270 H         1 UNK         0.0849 
     68 H68        17.1309  -28.5712  -45.6806 H         1 UNK         0.0849 
     69 H69        16.4758  -31.7897  -43.8844 H         1 UNK         0.0865 
     70 H70        16.5690  -32.2999  -45.5435 H         1 UNK         0.0865 
     71 H71        18.4697  -30.9451  -42.8852 H         1 UNK         0.1346 
     72 H72        21.5722  -29.2122  -45.2718 H         1 UNK         0.1412 
     73 H73        18.0146  -30.7122  -47.1435 H         1 UNK         0.1426 
     74 H74        19.8811  -30.0536  -48.5044 H         1 UNK         0.0716 
     75 H75        21.4220  -29.6300  -47.8145 H         1 UNK         0.0716 
     76 H76        22.0199  -26.5692  -48.1806 H         1 UNK         0.0695 
     77 H77        22.0389  -27.6295  -46.8079 H         1 UNK         0.0695 
     78 H78        20.6774  -24.8959  -46.9973 H         1 UNK         0.0983 
     79 H79        20.0882  -26.9541  -45.0532 H         1 UNK         0.3095 
     80 H80        19.8866  -25.9344  -42.5638 H         1 UNK         0.0454 
     81 H81        18.0513  -24.7283  -41.3878 H         1 UNK         0.0851 
     82 H82        17.6784  -23.8399  -42.8645 H         1 UNK         0.0851 
     83 H83        19.2294  -23.6209  -42.0707 H         1 UNK         0.0851 
     84 H84        18.3431  -27.4632  -42.8809 H         1 UNK         0.2976 
     85 H85        22.4518  -26.4705  -44.3556 H         1 UNK         0.3116 
     86 H86        24.3747  -24.4767  -43.8957 H         1 UNK         0.0646 
     87 H87        26.4077  -25.8289  -44.5701 H         1 UNK         0.0847 
     88 H88        25.4694  -25.4117  -45.9866 H         1 UNK         0.0847 
     89 H89        25.3701  -27.0369  -45.3145 H         1 UNK         0.0847 
     90 H90        26.0371  -25.6076  -42.2812 H         1 UNK         0.3040 
     91 H91        24.4855  -26.9783  -40.2433 H         1 UNK         0.1015 
     92 H92        26.5375  -26.6540  -38.8870 H         1 UNK         0.0786 
     93 H93        26.0812  -25.1589  -39.6823 H         1 UNK         0.0786 
     94 H94        27.4246  -26.1166  -40.3074 H         1 UNK         0.0786 
     95 H95        24.2891  -28.7096  -42.1671 H         1 UNK         0.3172 
     96 H96        26.2918  -30.8662  -42.0290 H         1 UNK         0.0595 
     97 H97        23.4903  -30.8381  -43.2908 H         1 UNK         0.0839 
     98 H98        24.7408  -32.0388  -43.5538 H         1 UNK         0.0839 
     99 H99        24.9727  -30.4012  -44.1352 H         1 UNK         0.0839 
    100 H100       25.5362  -33.0814  -41.4170 H         1 UNK         0.2998 
    101 H101       24.9212  -33.1930  -38.7125 H         1 UNK         0.0822 
    102 H102       26.2355  -34.9152  -39.9126 H         1 UNK         0.0787 
    103 H103       24.8051  -35.4262  -40.8113 H         1 UNK         0.0787 
    104 H104       24.8946  -35.6733  -39.0731 H         1 UNK         0.0787 
    105 H105       22.6107  -33.2310  -41.3358 H         1 UNK         0.3055 
    106 H106       20.3895  -34.2973  -39.7559 H         1 UNK         0.1106 
    107 H107       20.4776  -32.9301  -42.5027 H         1 UNK         0.0828 
    108 H108       20.4612  -34.6649  -42.1996 H         1 UNK         0.0828 
    109 H109       19.0619  -33.6893  -41.7927 H         1 UNK         0.0828 
    110 H110       21.9773  -31.2891  -39.7468 H         1 UNK         0.2931 
    111 H111       19.5589  -29.7799  -38.8870 H         1 UNK         0.0412 
    112 H112       20.1412  -27.9448  -37.3002 H         1 UNK         0.3472 
    113 H113       21.2596  -28.3879  -36.0379 H         1 UNK         0.3472 
    114 H114       20.9483  -27.7337  -39.6002 H         1 UNK         0.0970 
    115 H115       22.0831  -28.8163  -40.3549 H         1 UNK         0.0970 
    116 H116       21.8307  -29.2356  -42.9276 H         1 UNK         0.0612 
    117 H117       21.1867  -30.6936  -42.2146 H         1 UNK         0.0612 
@<TRIPOS>BOND
     1    1    2 1    
     2    1   62 1    
     3    1   63 1    
     4    1   64 1    
     5    2    3 2    
     6    2    4 am   BACKBONE|DICT|INTERRES
     7    4    5 1    
     8    4   65 1    
     9    5    6 1    
    10    5   25 1    
    11    5   66 1    
    12    6    7 1    
    13    6   67 1    
    14    6   68 1    
    15    7    8 1    
    16    8    9 1    
    17    8   69 1    
    18    8   70 1    
    19    9   10 ar   
    20    9   14 ar   
    21   10   11 ar   
    22   10   71 1    
    23   11   12 ar   
    24   11   61 1    
    25   12   13 ar   
    26   12   72 1    
    27   13   14 ar   
    28   13   15 1    
    29   14   73 1    
    30   15   16 1    
    31   15   74 1    
    32   15   75 1    
    33   16   17 1    
    34   17   18 1    
    35   17   76 1    
    36   17   77 1    
    37   18   19 1    
    38   18   27 1    
    39   18   78 1    
    40   19   20 am   BACKBONE|DICT|INTERRES
    41   19   79 1    
    42   20   21 2    
    43   20   22 1    
    44   22   23 1    
    45   22   24 1    
    46   22   80 1    
    47   23   81 1    
    48   23   82 1    
    49   23   83 1    
    50   24   25 am   BACKBONE|DICT|INTERRES
    51   24   84 1    
    52   25   26 2    
    53   27   28 2    
    54   27   29 am   BACKBONE|DICT|INTERRES
    55   29   30 1    
    56   29   85 1    
    57   30   31 1    
    58   30   32 1    
    59   30   86 1    
    60   31   87 1    
    61   31   88 1    
    62   31   89 1    
    63   32   33 2    
    64   32   34 am   BACKBONE|DICT|INTERRES
    65   34   35 1    
    66   34   90 1    
    67   35   36 1    
    68   35   37 1    
    69   35   91 1    
    70   36   92 1    
    71   36   93 1    
    72   36   94 1    
    73   37   38 2    
    74   37   39 am   BACKBONE|DICT|INTERRES
    75   39   40 1    
    76   39   95 1    
    77   40   41 1    
    78   40   42 1    
    79   40   96 1    
    80   41   97 1    
    81   41   98 1    
    82   41   99 1    
    83   42   43 2    
    84   42   44 am   BACKBONE|DICT|INTERRES
    85   44   45 1    
    86   44  100 1    
    87   45   46 1    
    88   45   47 1    
    89   45  101 1    
    90   46  102 1    
    91   46  103 1    
    92   46  104 1    
    93   47   48 2    
    94   47   49 am   BACKBONE|DICT|INTERRES
    95   49   50 1    
    96   49  105 1    
    97   50   51 1    
    98   50   52 1    
    99   50  106 1    
   100   51  107 1    
   101   51  108 1    
   102   51  109 1    
   103   52   53 2    
   104   52   54 am   BACKBONE|DICT|INTERRES
   105   54   55 1    
   106   54  110 1    
   107   55   56 1    
   108   55   59 1    
   109   55  111 1    
   110   56   57 am   BACKBONE|DICT|INTERRES
   111   56   58 2    
   112   57  112 1    
   113   57  113 1    
   114   59   60 1    
   115   59  114 1    
   116   59  115 1    
   117   60   61 1    
   118   61  116 1    
   119   61  117 1    
@<TRIPOS>SUBSTRUCTURE
     1 UNK         1 GROUP             0       ****    0 ROOT    
