@<TRIPOS>MOLECULE
3R8
117   119    1
SMALL
USER_CHARGES


@<TRIPOS>ATOM
      1 CA         18.1435  -24.0554  -49.1416 C.3       0 UNK        -0.2013 
      2 C          17.5131  -25.2034  -48.3676 C.2       0 UNK         0.4866 
      3 O          17.2385  -26.2553  -48.9457 O.2       0 UNK        -0.5176 
      4 N          17.2834  -25.0126  -47.0651 N.am      1 UNK        -0.4884 
      5 CA         16.7377  -26.0079  -46.1454 C.3       1 UNK         0.0853 
      6 C6         15.1964  -26.1575  -46.3083 C.3       10 UNK        -0.0849 
      7 S7         14.3431  -27.3643  -45.2265 S.3       10 UNK        -0.2776 
      8 C8         14.8406  -28.9829  -45.9054 C.3       10 UNK         0.0316 
      9 C9         16.1444  -29.4698  -45.2863 C.ar      10 UNK        -0.0863 
     10 C10        16.1741  -29.9022  -43.9556 C.ar      10 UNK        -0.1009 
     11 C11        17.3736  -30.3138  -43.3647 C.ar      10 UNK        -0.0712 
     12 C12        18.5492  -30.2851  -44.1220 C.ar      10 UNK        -0.0894 
     13 C13        18.5363  -29.8430  -45.4477 C.ar      10 UNK        -0.0745 
     14 C14        17.3248  -29.4702  -46.0335 C.ar      10 UNK        -0.0972 
     15 C15        19.8281  -29.7397  -46.2455 C.3       10 UNK         0.0209 
     16 S16        20.7232  -28.1929  -45.8733 S.3       10 UNK        -0.2568 
     17 C17        21.5724  -28.6222  -44.3125 C.3       10 UNK        -0.0983 
     18 CA         21.1697  -27.7660  -43.0762 C.3       3 UNK         0.0876 
     19 N          19.7174  -27.5462  -43.0003 N.am      3 UNK        -0.4424 
     20 C          19.0862  -26.5763  -42.3239 C.2       2 UNK         0.4918 
     21 O          19.6691  -25.7236  -41.6513 O.2       2 UNK        -0.4875 
     22 CA         17.5506  -26.5894  -42.4084 C.3       2 UNK         0.0481 
     23 CB         16.8813  -25.4570  -41.6012 C.3       2 UNK        -0.1831 
     24 N          17.0872  -26.6121  -43.7981 N.am      2 UNK        -0.4498 
     25 C          17.2226  -25.6540  -44.7258 C.2       1 UNK         0.5027 
     26 O          17.7236  -24.5455  -44.5119 O.2       1 UNK        -0.4969 
     27 C          21.7228  -28.3582  -41.7510 C.2       3 UNK         0.5005 
     28 O          22.3683  -29.4124  -41.7513 O.2       3 UNK        -0.5279 
     29 N          21.4024  -27.6991  -40.6305 N.am      4 UNK        -0.4463 
     30 CA         21.6298  -28.1620  -39.2610 C.3       4 UNK         0.0283 
     31 CB         20.6078  -27.4867  -38.3331 C.3       4 UNK        -0.1875 
     32 C          23.0575  -27.9327  -38.7455 C.2       4 UNK         0.4949 
     33 O          23.4382  -28.5478  -37.7494 O.2       4 UNK        -0.5039 
     34 N          23.8396  -27.0795  -39.4203 N.am      5 UNK        -0.4663 
     35 CA         25.2250  -26.7317  -39.0742 C.3       5 UNK         0.0242 
     36 CB         25.5697  -25.3788  -39.7255 C.3       5 UNK        -0.1982 
     37 C          26.2322  -27.8425  -39.4453 C.2       5 UNK         0.5017 
     38 O          27.2455  -27.5653  -40.0884 O.2       5 UNK        -0.5012 
     39 N          25.9046  -29.0882  -39.0702 N.am      6 UNK        -0.4439 
     40 CA         26.6033  -30.3496  -39.3589 C.3       6 UNK         0.0297 
     41 CB         27.9898  -30.3730  -38.6818 C.3       6 UNK        -0.2006 
     42 C          26.6842  -30.7081  -40.8596 C.2       6 UNK         0.4892 
     43 O          27.4437  -31.6072  -41.2236 O.2       6 UNK        -0.5089 
     44 N          25.9097  -30.0112  -41.7022 N.am      7 UNK        -0.4243 
     45 CA         25.9051  -30.1661  -43.1553 C.3       7 UNK         0.0196 
     46 CB         25.4041  -28.8665  -43.8019 C.3       7 UNK        -0.2007 
     47 C          25.0975  -31.3900  -43.6114 C.2       7 UNK         0.5020 
     48 O          25.5769  -32.1355  -44.4665 O.2       7 UNK        -0.5147 
     49 N          23.9142  -31.6007  -43.0193 N.am      8 UNK        -0.4734 
     50 CA         23.1088  -32.8093  -43.2290 C.3       8 UNK         0.0238 
     51 CB         22.2021  -32.6637  -44.4640 C.3       8 UNK        -0.1912 
     52 C          22.2859  -33.1781  -41.9898 C.2       8 UNK         0.5038 
     53 O          22.2093  -34.3621  -41.6597 O.2       8 UNK        -0.5046 
     54 N          21.6957  -32.1746  -41.3284 N.am      9 UNK        -0.4200 
     55 CA         20.8639  -32.3407  -40.1237 C.3       9 UNK         0.0839 
     56 C          21.6294  -32.0390  -38.8030 C.2       9 UNK         0.5513 
     57 N          22.9279  -31.7636  -38.8333 N.am      9 UNK        -0.7519 
     58 O          21.0373  -32.0661  -37.7275 O.2       9 UNK        -0.4960 
     59 C59        19.5429  -31.5317  -40.2335 C.3       10 UNK        -0.0876 
     60 S60        18.4593  -32.1689  -41.5585 S.3       10 UNK        -0.2414 
     61 C61        17.3949  -30.7246  -41.8944 C.3       10 UNK         0.0169 
     62 H62        19.0953  -24.3695  -49.5692 H         1 UNK         0.0903 
     63 H63        17.4884  -23.7480  -49.9563 H         1 UNK         0.0903 
     64 H64        18.3261  -23.1879  -48.5076 H         1 UNK         0.0903 
     65 H65        17.5751  -24.1581  -46.6034 H         1 UNK         0.3096 
     66 H66        17.2162  -26.9486  -46.4006 H         1 UNK         0.1121 
     67 H67        14.9612  -26.4209  -47.3406 H         1 UNK         0.0849 
     68 H68        14.7225  -25.1882  -46.1435 H         1 UNK         0.0849 
     69 H69        14.0550  -29.7094  -45.6923 H         1 UNK         0.0865 
     70 H70        14.9133  -28.9257  -46.9928 H         1 UNK         0.0865 
     71 H71        15.2612  -29.8989  -43.3748 H         1 UNK         0.1346 
     72 H72        19.4782  -30.5921  -43.6659 H         1 UNK         0.1412 
     73 H73        17.3090  -29.1433  -47.0650 H         1 UNK         0.1426 
     74 H74        19.6078  -29.7596  -47.3140 H         1 UNK         0.0716 
     75 H75        20.4661  -30.6038  -46.0590 H         1 UNK         0.0716 
     76 H76        21.4328  -29.6824  -44.1167 H         1 UNK         0.0695 
     77 H77        22.6371  -28.5093  -44.5053 H         1 UNK         0.0695 
     78 H78        21.6387  -26.7872  -43.1983 H         1 UNK         0.0983 
     79 H79        19.1575  -28.1893  -43.5424 H         1 UNK         0.3095 
     80 H80        17.2263  -27.5319  -41.9665 H         1 UNK         0.0454 
     81 H81        17.1342  -25.5344  -40.5431 H         1 UNK         0.0851 
     82 H82        17.2001  -24.4694  -41.9352 H         1 UNK         0.0851 
     83 H83        15.7952  -25.5032  -41.6788 H         1 UNK         0.0851 
     84 H84        16.6305  -27.4694  -44.0860 H         1 UNK         0.2976 
     85 H85        20.8569  -26.8468  -40.7410 H         1 UNK         0.3116 
     86 H86        21.4507  -29.2357  -39.2291 H         1 UNK         0.0646 
     87 H87        20.7226  -27.8344  -37.3053 H         1 UNK         0.0847 
     88 H88        19.5856  -27.7136  -38.6365 H         1 UNK         0.0847 
     89 H89        20.7234  -26.4021  -38.3258 H         1 UNK         0.0847 
     90 H90        23.4515  -26.6335  -40.2387 H         1 UNK         0.3040 
     91 H91        25.2886  -26.6028  -37.9911 H         1 UNK         0.1015 
     92 H92        24.8758  -24.5986  -39.4118 H         1 UNK         0.0786 
     93 H93        25.5420  -25.4363  -40.8144 H         1 UNK         0.0786 
     94 H94        26.5702  -25.0498  -39.4410 H         1 UNK         0.0786 
     95 H95        25.0410  -29.1725  -38.5374 H         1 UNK         0.3172 
     96 H96        26.0012  -31.1341  -38.8987 H         1 UNK         0.0595 
     97 H97        27.9173  -30.1398  -37.6196 H         1 UNK         0.0839 
     98 H98        28.6751  -29.6573  -39.1369 H         1 UNK         0.0839 
     99 H99        28.4505  -31.3582  -38.7634 H         1 UNK         0.0839 
    100 H100       25.3071  -29.3004  -41.3153 H         1 UNK         0.2998 
    101 H101       26.9336  -30.3216  -43.4898 H         1 UNK         0.0822 
    102 H102       25.1951  -29.0017  -44.8642 H         1 UNK         0.0787 
    103 H103       24.4969  -28.5053  -43.3215 H         1 UNK         0.0787 
    104 H104       26.1519  -28.0778  -43.7167 H         1 UNK         0.0787 
    105 H105       23.5651  -30.9095  -42.3634 H         1 UNK         0.3055 
    106 H106       23.7865  -33.6482  -43.4063 H         1 UNK         0.1106 
    107 H107       22.7660  -32.3639  -45.3473 H         1 UNK         0.0828 
    108 H108       21.7147  -33.6112  -44.6970 H         1 UNK         0.0828 
    109 H109       21.4132  -31.9330  -44.2997 H         1 UNK         0.0828 
    110 H110       21.8375  -31.2160  -41.6309 H         1 UNK         0.2931 
    111 H111       20.5770  -33.3899  -40.0324 H         1 UNK         0.0412 
    112 H112       23.4048  -31.5684  -37.9675 H         1 UNK         0.3472 
    113 H113       23.4289  -31.7714  -39.7050 H         1 UNK         0.3472 
    114 H114       19.7621  -30.4783  -40.4111 H         1 UNK         0.0970 
    115 H115       18.9755  -31.5758  -39.3019 H         1 UNK         0.0970 
    116 H116       16.3870  -30.9673  -41.5544 H         1 UNK         0.0612 
    117 H117       17.7177  -29.8683  -41.3021 H         1 UNK         0.0612 
@<TRIPOS>BOND
     1    1    2 1    
     2    1   62 1    
     3    1   63 1    
     4    1   64 1    
     5    2    3 2    
     6    2    4 am   BACKBONE|DICT|INTERRES
     7    4    5 1    
     8    4   65 1    
     9    5    6 1    
    10    5   25 1    
    11    5   66 1    
    12    6    7 1    
    13    6   67 1    
    14    6   68 1    
    15    7    8 1    
    16    8    9 1    
    17    8   69 1    
    18    8   70 1    
    19    9   10 ar   
    20    9   14 ar   
    21   10   11 ar   
    22   10   71 1    
    23   11   12 ar   
    24   11   61 1    
    25   12   13 ar   
    26   12   72 1    
    27   13   14 ar   
    28   13   15 1    
    29   14   73 1    
    30   15   16 1    
    31   15   74 1    
    32   15   75 1    
    33   16   17 1    
    34   17   18 1    
    35   17   76 1    
    36   17   77 1    
    37   18   19 1    
    38   18   27 1    
    39   18   78 1    
    40   19   20 am   BACKBONE|DICT|INTERRES
    41   19   79 1    
    42   20   21 2    
    43   20   22 1    
    44   22   23 1    
    45   22   24 1    
    46   22   80 1    
    47   23   81 1    
    48   23   82 1    
    49   23   83 1    
    50   24   25 am   BACKBONE|DICT|INTERRES
    51   24   84 1    
    52   25   26 2    
    53   27   28 2    
    54   27   29 am   BACKBONE|DICT|INTERRES
    55   29   30 1    
    56   29   85 1    
    57   30   31 1    
    58   30   32 1    
    59   30   86 1    
    60   31   87 1    
    61   31   88 1    
    62   31   89 1    
    63   32   33 2    
    64   32   34 am   BACKBONE|DICT|INTERRES
    65   34   35 1    
    66   34   90 1    
    67   35   36 1    
    68   35   37 1    
    69   35   91 1    
    70   36   92 1    
    71   36   93 1    
    72   36   94 1    
    73   37   38 2    
    74   37   39 am   BACKBONE|DICT|INTERRES
    75   39   40 1    
    76   39   95 1    
    77   40   41 1    
    78   40   42 1    
    79   40   96 1    
    80   41   97 1    
    81   41   98 1    
    82   41   99 1    
    83   42   43 2    
    84   42   44 am   BACKBONE|DICT|INTERRES
    85   44   45 1    
    86   44  100 1    
    87   45   46 1    
    88   45   47 1    
    89   45  101 1    
    90   46  102 1    
    91   46  103 1    
    92   46  104 1    
    93   47   48 2    
    94   47   49 am   BACKBONE|DICT|INTERRES
    95   49   50 1    
    96   49  105 1    
    97   50   51 1    
    98   50   52 1    
    99   50  106 1    
   100   51  107 1    
   101   51  108 1    
   102   51  109 1    
   103   52   53 2    
   104   52   54 am   BACKBONE|DICT|INTERRES
   105   54   55 1    
   106   54  110 1    
   107   55   56 1    
   108   55   59 1    
   109   55  111 1    
   110   56   57 am   BACKBONE|DICT|INTERRES
   111   56   58 2    
   112   57  112 1    
   113   57  113 1    
   114   59   60 1    
   115   59  114 1    
   116   59  115 1    
   117   60   61 1    
   118   61  116 1    
   119   61  117 1    
@<TRIPOS>SUBSTRUCTURE
     1 UNK         1 GROUP             0       ****    0 ROOT    
