@<TRIPOS>MOLECULE
3R8
117   119    1
SMALL
USER_CHARGES


@<TRIPOS>ATOM
      1 CA         19.6306  -23.8714  -41.6494 C.3       0 UNK        -0.2013 
      2 C          19.1474  -24.5938  -42.8963 C.2       0 UNK         0.4866 
      3 O          19.8702  -25.4267  -43.4423 O.2       0 UNK        -0.5176 
      4 N          17.9416  -24.2680  -43.3830 N.am      1 UNK        -0.4884 
      5 CA         17.2224  -24.9182  -44.4991 C.3       1 UNK         0.0853 
      6 C6         16.9238  -26.4229  -44.2306 C.3       10 UNK        -0.0849 
      7 S7         16.1263  -26.7815  -42.6285 S.3       10 UNK        -0.2776 
      8 C8         15.2048  -28.3092  -43.0109 C.3       10 UNK         0.0316 
      9 C9         16.1198  -29.4793  -43.3588 C.ar      10 UNK        -0.0863 
     10 C10        16.5917  -30.3365  -42.3584 C.ar      10 UNK        -0.1009 
     11 C11        17.3974  -31.4358  -42.6809 C.ar      10 UNK        -0.0712 
     12 C12        17.7414  -31.6615  -44.0178 C.ar      10 UNK        -0.0894 
     13 C13        17.2908  -30.8046  -45.0243 C.ar      10 UNK        -0.0745 
     14 C14        16.4655  -29.7277  -44.6904 C.ar      10 UNK        -0.0972 
     15 C15        17.6794  -31.0568  -46.4753 C.3       10 UNK         0.0209 
     16 S16        19.4057  -30.5854  -46.8234 S.3       10 UNK        -0.2568 
     17 C17        19.3430  -28.7711  -46.6269 C.3       10 UNK        -0.0983 
     18 CA         20.6449  -28.1202  -46.0797 C.3       3 UNK         0.0876 
     19 N          20.5350  -26.6570  -46.0620 N.am      3 UNK        -0.4424 
     20 C          20.5370  -25.8850  -47.1605 C.2       2 UNK         0.4918 
     21 O          20.7951  -26.3089  -48.2883 O.2       2 UNK        -0.4875 
     22 CA         20.1475  -24.3995  -46.9711 C.3       2 UNK         0.0481 
     23 CB         19.7257  -23.7090  -48.2852 C.3       2 UNK        -0.1831 
     24 N          19.1284  -24.2320  -45.9273 N.am      2 UNK        -0.4498 
     25 C          17.9030  -24.7804  -45.8871 C.2       1 UNK         0.5027 
     26 O          17.3299  -25.2351  -46.8780 O.2       1 UNK        -0.4969 
     27 C          21.0601  -28.6785  -44.7004 C.2       3 UNK         0.5005 
     28 O          21.8585  -29.6169  -44.6506 O.2       3 UNK        -0.5279 
     29 N          20.5483  -28.0998  -43.6050 N.am      4 UNK        -0.4463 
     30 CA         20.8557  -28.4853  -42.2298 C.3       4 UNK         0.0283 
     31 CB         19.6423  -28.1848  -41.3328 C.3       4 UNK        -0.1875 
     32 C          22.1248  -27.7574  -41.7647 C.2       4 UNK         0.4949 
     33 O          22.0467  -26.7409  -41.0704 O.2       4 UNK        -0.5039 
     34 N          23.2812  -28.2777  -42.1891 N.am      5 UNK        -0.4663 
     35 CA         24.6221  -27.8138  -41.8308 C.3       5 UNK         0.0242 
     36 CB         25.6327  -28.4303  -42.8150 C.3       5 UNK        -0.1982 
     37 C          24.9648  -28.1188  -40.3577 C.2       5 UNK         0.5017 
     38 O          25.7920  -28.9903  -40.0786 O.2       5 UNK        -0.5012 
     39 N          24.3077  -27.3906  -39.4445 N.am      6 UNK        -0.4439 
     40 CA         24.4046  -27.4798  -37.9857 C.3       6 UNK         0.0297 
     41 CB         25.7990  -27.0274  -37.4932 C.3       6 UNK        -0.2006 
     42 C          23.9752  -28.8706  -37.4847 C.2       6 UNK         0.4892 
     43 O          22.7779  -29.1587  -37.4774 O.2       6 UNK        -0.5089 
     44 N          24.9446  -29.6976  -37.0728 N.am      7 UNK        -0.4243 
     45 CA         24.7283  -31.0721  -36.6178 C.3       7 UNK         0.0196 
     46 CB         25.9473  -31.5231  -35.7962 C.3       7 UNK        -0.2007 
     47 C          24.4593  -32.0617  -37.7666 C.2       7 UNK         0.5020 
     48 O          23.8929  -33.1255  -37.5123 O.2       7 UNK        -0.5147 
     49 N          24.8785  -31.7210  -38.9921 N.am      8 UNK        -0.4734 
     50 CA         24.6638  -32.5276  -40.1937 C.3       8 UNK         0.0238 
     51 CB         25.9044  -32.4042  -41.0951 C.3       8 UNK        -0.1912 
     52 C          23.4018  -32.0691  -40.9407 C.2       8 UNK         0.5038 
     53 O          22.9315  -30.9508  -40.7304 O.2       8 UNK        -0.5046 
     54 N          22.9068  -32.9358  -41.8275 N.am      9 UNK        -0.4200 
     55 CA         21.7966  -32.6816  -42.7498 C.3       9 UNK         0.0839 
     56 C          22.1910  -33.2552  -44.1302 C.2       9 UNK         0.5513 
     57 N          22.2336  -32.4268  -45.1624 N.am      9 UNK        -0.7519 
     58 O          22.4430  -34.4505  -44.2686 O.2       9 UNK        -0.4960 
     59 C59        20.4658  -33.2910  -42.2301 C.3       10 UNK        -0.0876 
     60 S60        19.5831  -32.1672  -41.0923 S.3       10 UNK        -0.2414 
     61 C61        17.8453  -32.4038  -41.5908 C.3       10 UNK         0.0169 
     62 H62        20.5075  -23.2683  -41.8823 H         1 UNK         0.0903 
     63 H63        18.8644  -23.2182  -41.2328 H         1 UNK         0.0903 
     64 H64        19.9119  -24.5966  -40.8860 H         1 UNK         0.0903 
     65 H65        17.4110  -23.5495  -42.9089 H         1 UNK         0.3096 
     66 H66        16.2664  -24.3989  -44.5849 H         1 UNK         0.1121 
     67 H67        17.8398  -27.0128  -44.2730 H         1 UNK         0.0849 
     68 H68        16.2772  -26.8078  -45.0206 H         1 UNK         0.0849 
     69 H69        14.5889  -28.5697  -42.1489 H         1 UNK         0.0865 
     70 H70        14.5070  -28.1179  -43.8277 H         1 UNK         0.0865 
     71 H71        16.3178  -30.1553  -41.3279 H         1 UNK         0.1346 
     72 H72        18.3542  -32.5071  -44.2897 H         1 UNK         0.1412 
     73 H73        16.0942  -29.0799  -45.4721 H         1 UNK         0.1426 
     74 H74        17.0170  -30.5179  -47.1546 H         1 UNK         0.0716 
     75 H75        17.5522  -32.1160  -46.7032 H         1 UNK         0.0716 
     76 H76        18.5064  -28.4983  -45.9868 H         1 UNK         0.0695 
     77 H77        19.1022  -28.3606  -47.6082 H         1 UNK         0.0695 
     78 H78        21.4586  -28.3763  -46.7621 H         1 UNK         0.0983 
     79 H79        20.3753  -26.2162  -45.1610 H         1 UNK         0.3095 
     80 H80        21.0426  -23.8945  -46.6055 H         1 UNK         0.0454 
     81 H81        19.4436  -22.6703  -48.1152 H         1 UNK         0.0851 
     82 H82        18.8828  -24.2129  -48.7587 H         1 UNK         0.0851 
     83 H83        20.5454  -23.7077  -49.0045 H         1 UNK         0.0851 
     84 H84        19.4846  -23.9135  -45.0356 H         1 UNK         0.2976 
     85 H85        20.0104  -27.2423  -43.6848 H         1 UNK         0.3116 
     86 H86        21.0356  -29.5591  -42.1786 H         1 UNK         0.0646 
     87 H87        19.3930  -27.1245  -41.3157 H         1 UNK         0.0847 
     88 H88        19.8379  -28.4923  -40.3050 H         1 UNK         0.0847 
     89 H89        18.7611  -28.7274  -41.6714 H         1 UNK         0.0847 
     90 H90        23.2287  -29.1180  -42.7505 H         1 UNK         0.3040 
     91 H91        24.6569  -26.7291  -41.9549 H         1 UNK         0.1015 
     92 H92        25.6003  -29.5197  -42.7977 H         1 UNK         0.0786 
     93 H93        26.6521  -28.1279  -42.5713 H         1 UNK         0.0786 
     94 H94        25.4353  -28.1078  -43.8375 H         1 UNK         0.0786 
     95 H95        23.5564  -26.8052  -39.8009 H         1 UNK         0.3172 
     96 H96        23.6747  -26.7737  -37.5868 H         1 UNK         0.0595 
     97 H97        26.6081  -27.6338  -37.9012 H         1 UNK         0.0839 
     98 H98        25.8653  -27.0744  -36.4053 H         1 UNK         0.0839 
     99 H99        25.9936  -25.9933  -37.7780 H         1 UNK         0.0839 
    100 H100       25.9018  -29.3824  -37.1383 H         1 UNK         0.2998 
    101 H101       23.8531  -31.0857  -35.9643 H         1 UNK         0.0822 
    102 H102       25.8066  -32.5347  -35.4126 H         1 UNK         0.0787 
    103 H103       26.8592  -31.5259  -36.3949 H         1 UNK         0.0787 
    104 H104       26.1102  -30.8726  -34.9366 H         1 UNK         0.0787 
    105 H105       25.2509  -30.7892  -39.1449 H         1 UNK         0.3055 
    106 H106       24.5378  -33.5778  -39.9196 H         1 UNK         0.1106 
    107 H107       26.0829  -31.3724  -41.3968 H         1 UNK         0.0828 
    108 H108       26.7994  -32.7597  -40.5844 H         1 UNK         0.0828 
    109 H109       25.7964  -32.9963  -42.0047 H         1 UNK         0.0828 
    110 H110       23.3762  -33.8191  -41.9729 H         1 UNK         0.2931 
    111 H111       21.6658  -31.6066  -42.8735 H         1 UNK         0.0412 
    112 H112       22.0431  -31.4341  -45.0366 H         1 UNK         0.3472 
    113 H113       22.4767  -32.7798  -46.0739 H         1 UNK         0.3472 
    114 H114       20.6466  -34.2383  -41.7193 H         1 UNK         0.0970 
    115 H115       19.8050  -33.5392  -43.0590 H         1 UNK         0.0970 
    116 H116       17.2215  -32.2758  -40.7049 H         1 UNK         0.0612 
    117 H117       17.6869  -33.4327  -41.9169 H         1 UNK         0.0612 
@<TRIPOS>BOND
     1    1    2 1    
     2    1   62 1    
     3    1   63 1    
     4    1   64 1    
     5    2    3 2    
     6    2    4 am   BACKBONE|DICT|INTERRES
     7    4    5 1    
     8    4   65 1    
     9    5    6 1    
    10    5   25 1    
    11    5   66 1    
    12    6    7 1    
    13    6   67 1    
    14    6   68 1    
    15    7    8 1    
    16    8    9 1    
    17    8   69 1    
    18    8   70 1    
    19    9   10 ar   
    20    9   14 ar   
    21   10   11 ar   
    22   10   71 1    
    23   11   12 ar   
    24   11   61 1    
    25   12   13 ar   
    26   12   72 1    
    27   13   14 ar   
    28   13   15 1    
    29   14   73 1    
    30   15   16 1    
    31   15   74 1    
    32   15   75 1    
    33   16   17 1    
    34   17   18 1    
    35   17   76 1    
    36   17   77 1    
    37   18   19 1    
    38   18   27 1    
    39   18   78 1    
    40   19   20 am   BACKBONE|DICT|INTERRES
    41   19   79 1    
    42   20   21 2    
    43   20   22 1    
    44   22   23 1    
    45   22   24 1    
    46   22   80 1    
    47   23   81 1    
    48   23   82 1    
    49   23   83 1    
    50   24   25 am   BACKBONE|DICT|INTERRES
    51   24   84 1    
    52   25   26 2    
    53   27   28 2    
    54   27   29 am   BACKBONE|DICT|INTERRES
    55   29   30 1    
    56   29   85 1    
    57   30   31 1    
    58   30   32 1    
    59   30   86 1    
    60   31   87 1    
    61   31   88 1    
    62   31   89 1    
    63   32   33 2    
    64   32   34 am   BACKBONE|DICT|INTERRES
    65   34   35 1    
    66   34   90 1    
    67   35   36 1    
    68   35   37 1    
    69   35   91 1    
    70   36   92 1    
    71   36   93 1    
    72   36   94 1    
    73   37   38 2    
    74   37   39 am   BACKBONE|DICT|INTERRES
    75   39   40 1    
    76   39   95 1    
    77   40   41 1    
    78   40   42 1    
    79   40   96 1    
    80   41   97 1    
    81   41   98 1    
    82   41   99 1    
    83   42   43 2    
    84   42   44 am   BACKBONE|DICT|INTERRES
    85   44   45 1    
    86   44  100 1    
    87   45   46 1    
    88   45   47 1    
    89   45  101 1    
    90   46  102 1    
    91   46  103 1    
    92   46  104 1    
    93   47   48 2    
    94   47   49 am   BACKBONE|DICT|INTERRES
    95   49   50 1    
    96   49  105 1    
    97   50   51 1    
    98   50   52 1    
    99   50  106 1    
   100   51  107 1    
   101   51  108 1    
   102   51  109 1    
   103   52   53 2    
   104   52   54 am   BACKBONE|DICT|INTERRES
   105   54   55 1    
   106   54  110 1    
   107   55   56 1    
   108   55   59 1    
   109   55  111 1    
   110   56   57 am   BACKBONE|DICT|INTERRES
   111   56   58 2    
   112   57  112 1    
   113   57  113 1    
   114   59   60 1    
   115   59  114 1    
   116   59  115 1    
   117   60   61 1    
   118   61  116 1    
   119   61  117 1    
@<TRIPOS>SUBSTRUCTURE
     1 UNK         1 GROUP             0       ****    0 ROOT    
