@<TRIPOS>MOLECULE
3R8
117   119    1
SMALL
USER_CHARGES


@<TRIPOS>ATOM
      1 CA         14.5332  -23.3734  -46.3943 C.3       0 UNK        -0.2013 
      2 C          15.4961  -24.5326  -46.1878 C.2       0 UNK         0.4866 
      3 O          16.7100  -24.3246  -46.1585 O.2       0 UNK        -0.5176 
      4 N          14.9690  -25.7546  -46.0345 N.am      1 UNK        -0.4884 
      5 CA         15.7343  -26.9866  -45.8038 C.3       1 UNK         0.0853 
      6 C6         14.9611  -28.2393  -46.3147 C.3       10 UNK        -0.0849 
      7 S7         15.9999  -29.3572  -47.3115 S.3       10 UNK        -0.2776 
      8 C8         16.7457  -30.4412  -46.0451 C.3       10 UNK         0.0316 
      9 C9         17.9853  -29.8472  -45.3789 C.ar      10 UNK        -0.0863 
     10 C10        18.1715  -29.9915  -43.9996 C.ar      10 UNK        -0.1009 
     11 C11        19.3243  -29.4989  -43.3806 C.ar      10 UNK        -0.0712 
     12 C12        20.3017  -28.8673  -44.1526 C.ar      10 UNK        -0.0894 
     13 C13        20.1213  -28.6927  -45.5271 C.ar      10 UNK        -0.0745 
     14 C14        18.9665  -29.1937  -46.1341 C.ar      10 UNK        -0.0972 
     15 C15        21.1758  -27.9837  -46.3658 C.3       10 UNK         0.0209 
     16 S16        21.0638  -26.1694  -46.2141 S.3       10 UNK        -0.2568 
     17 C17        22.0054  -25.8705  -44.6782 C.3       10 UNK        -0.0983 
     18 CA         21.1903  -25.2040  -43.5366 C.3       3 UNK         0.0876 
     19 N          19.8552  -25.7935  -43.3514 N.am      3 UNK        -0.4424 
     20 C          18.8895  -25.2662  -42.5856 C.2       2 UNK         0.4918 
     21 O          19.0170  -24.2180  -41.9516 O.2       2 UNK        -0.4875 
     22 CA         17.5609  -26.0320  -42.5490 C.3       2 UNK         0.0481 
     23 CB         16.5047  -25.3637  -41.6436 C.3       2 UNK        -0.1831 
     24 N          17.0532  -26.1711  -43.9104 N.am      2 UNK        -0.4498 
     25 C          16.1556  -27.0743  -44.3186 C.2       1 UNK         0.5027 
     26 O          15.6370  -27.9017  -43.5663 O.2       1 UNK        -0.4969 
     27 C          22.0352  -25.2138  -42.2433 C.2       3 UNK         0.5005 
     28 O          22.9362  -24.3854  -42.1044 O.2       3 UNK        -0.5279 
     29 N          21.7606  -26.1800  -41.3501 N.am      4 UNK        -0.4463 
     30 CA         22.4101  -26.4838  -40.0649 C.3       4 UNK         0.0283 
     31 CB         22.3195  -25.2971  -39.0868 C.3       4 UNK        -0.1875 
     32 C          23.8577  -26.9922  -40.1880 C.2       4 UNK         0.4949 
     33 O          24.1999  -27.9927  -39.5582 O.2       4 UNK        -0.5039 
     34 N          24.6677  -26.3300  -41.0236 N.am      5 UNK        -0.4663 
     35 CA         26.0809  -26.6250  -41.2906 C.3       5 UNK         0.0242 
     36 CB         26.6526  -25.5235  -42.1977 C.3       5 UNK        -0.1982 
     37 C          26.3452  -28.0142  -41.9012 C.2       5 UNK         0.5017 
     38 O          27.4716  -28.5035  -41.8117 O.2       5 UNK        -0.5012 
     39 N          25.3096  -28.6279  -42.4921 N.am      6 UNK        -0.4439 
     40 CA         25.3199  -30.0029  -42.9966 C.3       6 UNK         0.0297 
     41 CB         24.0420  -30.2537  -43.8136 C.3       6 UNK        -0.2006 
     42 C          25.4676  -31.0611  -41.8857 C.2       6 UNK         0.4892 
     43 O          25.9963  -32.1380  -42.1639 O.2       6 UNK        -0.5089 
     44 N          25.0097  -30.7373  -40.6638 N.am      7 UNK        -0.4243 
     45 CA         25.0797  -31.4972  -39.4055 C.3       7 UNK         0.0196 
     46 CB         26.5415  -31.6996  -38.9628 C.3       7 UNK        -0.2007 
     47 C          24.3108  -32.8315  -39.3857 C.2       7 UNK         0.5020 
     48 O          23.5549  -33.0780  -38.4454 O.2       7 UNK        -0.5147 
     49 N          24.5010  -33.6665  -40.4141 N.am      8 UNK        -0.4734 
     50 CA         23.9113  -35.0023  -40.5692 C.3       8 UNK         0.0238 
     51 CB         24.5415  -35.6856  -41.7936 C.3       8 UNK        -0.1912 
     52 C          22.3761  -35.0093  -40.6801 C.2       8 UNK         0.5038 
     53 O          21.7574  -36.0396  -40.4105 O.2       8 UNK        -0.5046 
     54 N          21.7959  -33.8655  -41.0601 N.am      9 UNK        -0.4200 
     55 CA         20.3524  -33.6030  -41.0626 C.3       9 UNK         0.0839 
     56 C          19.7101  -33.4634  -39.6492 C.2       9 UNK         0.5513 
     57 N          20.4778  -33.3493  -38.5703 N.am      9 UNK        -0.7519 
     58 O          18.4875  -33.4716  -39.5319 O.2       9 UNK        -0.4960 
     59 C59        20.0104  -32.4051  -41.9845 C.3       10 UNK        -0.0876 
     60 S60        20.8214  -30.8449  -41.4817 S.3       10 UNK        -0.2414 
     61 C61        19.5191  -29.6402  -41.8778 C.3       10 UNK         0.0169 
     62 H62        14.7402  -22.8791  -47.3431 H         1 UNK         0.0903 
     63 H63        13.4941  -23.7018  -46.4028 H         1 UNK         0.0903 
     64 H64        14.6514  -22.6414  -45.5959 H         1 UNK         0.0903 
     65 H65        13.9637  -25.8588  -46.0301 H         1 UNK         0.3096 
     66 H66        16.6604  -26.9060  -46.3790 H         1 UNK         0.1121 
     67 H67        14.1525  -27.9325  -46.9801 H         1 UNK         0.0849 
     68 H68        14.4599  -28.8008  -45.5247 H         1 UNK         0.0849 
     69 H69        15.9893  -30.6999  -45.3023 H         1 UNK         0.0865 
     70 H70        17.0362  -31.3781  -46.5222 H         1 UNK         0.0865 
     71 H71        17.4171  -30.4890  -43.4053 H         1 UNK         0.1346 
     72 H72        21.2034  -28.5160  -43.6743 H         1 UNK         0.1412 
     73 H73        18.8353  -29.0811  -47.2016 H         1 UNK         0.1426 
     74 H74        22.1737  -28.3279  -46.0909 H         1 UNK         0.0716 
     75 H75        21.0527  -28.2460  -47.4178 H         1 UNK         0.0716 
     76 H76        22.4567  -26.8057  -44.3461 H         1 UNK         0.0695 
     77 H77        22.8494  -25.2294  -44.9404 H         1 UNK         0.0695 
     78 H78        21.0379  -24.1564  -43.8062 H         1 UNK         0.0983 
     79 H79        19.6537  -26.6242  -43.8920 H         1 UNK         0.3095 
     80 H80        17.7783  -27.0251  -42.1509 H         1 UNK         0.0454 
     81 H81        16.2255  -24.3767  -42.0140 H         1 UNK         0.0851 
     82 H82        15.5974  -25.9636  -41.5745 H         1 UNK         0.0851 
     83 H83        16.8822  -25.2385  -40.6280 H         1 UNK         0.0851 
     84 H84        17.3731  -25.4823  -44.5861 H         1 UNK         0.2976 
     85 H85        21.0052  -26.8032  -41.5929 H         1 UNK         0.3116 
     86 H86        21.8314  -27.3025  -39.6334 H         1 UNK         0.0646 
     87 H87        22.7097  -25.5721  -38.1060 H         1 UNK         0.0847 
     88 H88        21.2869  -24.9774  -38.9467 H         1 UNK         0.0847 
     89 H89        22.8924  -24.4357  -39.4311 H         1 UNK         0.0847 
     90 H90        24.2703  -25.5161  -41.4894 H         1 UNK         0.3040 
     91 H91        26.6080  -26.5941  -40.3346 H         1 UNK         0.1015 
     92 H92        26.5627  -24.5410  -41.7337 H         1 UNK         0.0786 
     93 H93        26.1399  -25.4881  -43.1600 H         1 UNK         0.0786 
     94 H94        27.7123  -25.6896  -42.3974 H         1 UNK         0.0786 
     95 H95        24.4320  -28.1317  -42.5220 H         1 UNK         0.3172 
     96 H96        26.1776  -30.1076  -43.6643 H         1 UNK         0.0595 
     97 H97        24.0280  -31.2681  -44.2151 H         1 UNK         0.0839 
     98 H98        23.9712  -29.5720  -44.6611 H         1 UNK         0.0839 
     99 H99        23.1440  -30.1332  -43.2082 H         1 UNK         0.0839 
    100 H100       24.6014  -29.8148  -40.5570 H         1 UNK         0.2998 
    101 H101       24.6025  -30.8579  -38.6605 H         1 UNK         0.0822 
    102 H102       27.0633  -30.7461  -38.8785 H         1 UNK         0.0787 
    103 H103       26.5896  -32.1835  -37.9864 H         1 UNK         0.0787 
    104 H104       27.0978  -32.3243  -39.6623 H         1 UNK         0.0787 
    105 H105       25.1279  -33.3449  -41.1508 H         1 UNK         0.3055 
    106 H106       24.1677  -35.5813  -39.6793 H         1 UNK         0.1106 
    107 H107       24.1457  -36.6934  -41.9276 H         1 UNK         0.0828 
    108 H108       24.3418  -35.1309  -42.7113 H         1 UNK         0.0828 
    109 H109       25.6225  -35.7760  -41.6850 H         1 UNK         0.0828 
    110 H110       22.3870  -33.0680  -41.2408 H         1 UNK         0.2931 
    111 H111       19.8788  -34.4803  -41.5076 H         1 UNK         0.0412 
    112 H112       20.0435  -33.2652  -37.6650 H         1 UNK         0.3472 
    113 H113       21.4879  -33.3251  -38.6473 H         1 UNK         0.3472 
    114 H114       18.9288  -32.2653  -42.0286 H         1 UNK         0.0970 
    115 H115       20.3156  -32.6271  -43.0083 H         1 UNK         0.0970 
    116 H116       19.7960  -28.6734  -41.4568 H         1 UNK         0.0612 
    117 H117       18.5895  -29.9307  -41.3857 H         1 UNK         0.0612 
@<TRIPOS>BOND
     1    1    2 1    
     2    1   62 1    
     3    1   63 1    
     4    1   64 1    
     5    2    3 2    
     6    2    4 am   BACKBONE|DICT|INTERRES
     7    4    5 1    
     8    4   65 1    
     9    5    6 1    
    10    5   25 1    
    11    5   66 1    
    12    6    7 1    
    13    6   67 1    
    14    6   68 1    
    15    7    8 1    
    16    8    9 1    
    17    8   69 1    
    18    8   70 1    
    19    9   10 ar   
    20    9   14 ar   
    21   10   11 ar   
    22   10   71 1    
    23   11   12 ar   
    24   11   61 1    
    25   12   13 ar   
    26   12   72 1    
    27   13   14 ar   
    28   13   15 1    
    29   14   73 1    
    30   15   16 1    
    31   15   74 1    
    32   15   75 1    
    33   16   17 1    
    34   17   18 1    
    35   17   76 1    
    36   17   77 1    
    37   18   19 1    
    38   18   27 1    
    39   18   78 1    
    40   19   20 am   BACKBONE|DICT|INTERRES
    41   19   79 1    
    42   20   21 2    
    43   20   22 1    
    44   22   23 1    
    45   22   24 1    
    46   22   80 1    
    47   23   81 1    
    48   23   82 1    
    49   23   83 1    
    50   24   25 am   BACKBONE|DICT|INTERRES
    51   24   84 1    
    52   25   26 2    
    53   27   28 2    
    54   27   29 am   BACKBONE|DICT|INTERRES
    55   29   30 1    
    56   29   85 1    
    57   30   31 1    
    58   30   32 1    
    59   30   86 1    
    60   31   87 1    
    61   31   88 1    
    62   31   89 1    
    63   32   33 2    
    64   32   34 am   BACKBONE|DICT|INTERRES
    65   34   35 1    
    66   34   90 1    
    67   35   36 1    
    68   35   37 1    
    69   35   91 1    
    70   36   92 1    
    71   36   93 1    
    72   36   94 1    
    73   37   38 2    
    74   37   39 am   BACKBONE|DICT|INTERRES
    75   39   40 1    
    76   39   95 1    
    77   40   41 1    
    78   40   42 1    
    79   40   96 1    
    80   41   97 1    
    81   41   98 1    
    82   41   99 1    
    83   42   43 2    
    84   42   44 am   BACKBONE|DICT|INTERRES
    85   44   45 1    
    86   44  100 1    
    87   45   46 1    
    88   45   47 1    
    89   45  101 1    
    90   46  102 1    
    91   46  103 1    
    92   46  104 1    
    93   47   48 2    
    94   47   49 am   BACKBONE|DICT|INTERRES
    95   49   50 1    
    96   49  105 1    
    97   50   51 1    
    98   50   52 1    
    99   50  106 1    
   100   51  107 1    
   101   51  108 1    
   102   51  109 1    
   103   52   53 2    
   104   52   54 am   BACKBONE|DICT|INTERRES
   105   54   55 1    
   106   54  110 1    
   107   55   56 1    
   108   55   59 1    
   109   55  111 1    
   110   56   57 am   BACKBONE|DICT|INTERRES
   111   56   58 2    
   112   57  112 1    
   113   57  113 1    
   114   59   60 1    
   115   59  114 1    
   116   59  115 1    
   117   60   61 1    
   118   61  116 1    
   119   61  117 1    
@<TRIPOS>SUBSTRUCTURE
     1 UNK         1 GROUP             0       ****    0 ROOT    
