@<TRIPOS>MOLECULE
3R8
117   119    1
SMALL
USER_CHARGES


@<TRIPOS>ATOM
      1 CA         20.9470  -22.3358  -47.5826 C.3       0 UNK        -0.2013 
      2 C          21.0873  -23.1466  -46.3032 C.2       0 UNK         0.4866 
      3 O          21.2130  -22.5694  -45.2232 O.2       0 UNK        -0.5176 
      4 N          21.0691  -24.4810  -46.4164 N.am      1 UNK        -0.4884 
      5 CA         21.1613  -25.4255  -45.2953 C.3       1 UNK         0.0853 
      6 C6         21.5344  -26.8561  -45.7666 C.3       10 UNK        -0.0849 
      7 S7         20.5430  -27.4774  -47.1676 S.3       10 UNK        -0.2776 
      8 C8         21.0404  -29.2308  -47.1916 C.3       10 UNK         0.0316 
      9 C9         20.2982  -30.0411  -46.1390 C.ar      10 UNK        -0.0863 
     10 C10        20.9616  -30.5394  -45.0122 C.ar      10 UNK        -0.1009 
     11 C11        20.2635  -31.2789  -44.0511 C.ar      10 UNK        -0.0712 
     12 C12        18.8995  -31.5306  -44.2283 C.ar      10 UNK        -0.0894 
     13 C13        18.2234  -31.0132  -45.3369 C.ar      10 UNK        -0.0745 
     14 C14        18.9322  -30.2882  -46.2976 C.ar      10 UNK        -0.0972 
     15 C15        16.7185  -31.1821  -45.4746 C.3       10 UNK         0.0209 
     16 S16        15.8515  -29.6037  -45.1851 S.3       10 UNK        -0.2568 
     17 C17        16.0728  -29.3642  -43.3873 C.3       10 UNK        -0.0983 
     18 CA         17.3751  -28.6045  -42.9991 C.3       3 UNK         0.0876 
     19 N          17.5675  -27.3436  -43.7170 N.am      3 UNK        -0.4424 
     20 C          16.8949  -26.1981  -43.5585 C.2       2 UNK         0.4918 
     21 O          15.9113  -26.0775  -42.8268 O.2       2 UNK        -0.4875 
     22 CA         17.4142  -24.9692  -44.3406 C.3       2 UNK         0.0481 
     23 CB         17.4133  -23.7039  -43.4580 C.3       2 UNK        -0.1831 
     24 N          18.7322  -25.1290  -44.9825 N.am      2 UNK        -0.4498 
     25 C          19.9055  -25.4297  -44.3984 C.2       1 UNK         0.5027 
     26 O          20.0217  -25.7220  -43.2082 O.2       1 UNK        -0.4969 
     27 C          17.5582  -28.4691  -41.4690 C.2       3 UNK         0.5005 
     28 O          16.8683  -29.1575  -40.7127 O.2       3 UNK        -0.5279 
     29 N          18.4784  -27.5984  -41.0254 N.am      4 UNK        -0.4463 
     30 CA         18.7740  -27.3805  -39.6111 C.3       4 UNK         0.0283 
     31 CB         17.8112  -26.3308  -39.0265 C.3       4 UNK        -0.1875 
     32 C          20.2318  -26.9453  -39.4412 C.2       4 UNK         0.4949 
     33 O          20.6395  -25.9525  -40.0432 O.2       4 UNK        -0.5039 
     34 N          20.9723  -27.6815  -38.5990 N.am      5 UNK        -0.4663 
     35 CA         22.3459  -27.4139  -38.1378 C.3       5 UNK         0.0242 
     36 CB         22.3748  -26.1429  -37.2613 C.3       5 UNK        -0.1982 
     37 C          23.4286  -27.3806  -39.2392 C.2       5 UNK         0.5017 
     38 O          24.5288  -26.8844  -38.9879 O.2       5 UNK        -0.5012 
     39 N          23.1169  -27.9158  -40.4245 N.am      6 UNK        -0.4439 
     40 CA         24.0302  -28.0369  -41.5593 C.3       6 UNK         0.0297 
     41 CB         23.2178  -27.8725  -42.8539 C.3       6 UNK        -0.2006 
     42 C          24.7741  -29.3827  -41.5268 C.2       6 UNK         0.4892 
     43 O          24.5553  -30.1999  -40.6275 O.2       6 UNK        -0.5089 
     44 N          25.6464  -29.5931  -42.5217 N.am      7 UNK        -0.4243 
     45 CA         26.3983  -30.8326  -42.7250 C.3       7 UNK         0.0196 
     46 CB         27.3208  -30.6778  -43.9452 C.3       7 UNK        -0.2007 
     47 C          25.4640  -32.0428  -42.8968 C.2       7 UNK         0.5020 
     48 O          24.5754  -32.0063  -43.7491 O.2       7 UNK        -0.5147 
     49 N          25.6881  -33.0715  -42.0695 N.am      8 UNK        -0.4734 
     50 CA         24.9324  -34.3273  -41.9661 C.3       8 UNK         0.0238 
     51 CB         24.9154  -35.0917  -43.3084 C.3       8 UNK        -0.1912 
     52 C          23.5226  -34.1977  -41.3508 C.2       8 UNK         0.5038 
     53 O          22.7989  -35.1953  -41.3376 O.2       8 UNK        -0.5046 
     54 N          23.1527  -33.0214  -40.8209 N.am      9 UNK        -0.4200 
     55 CA         21.9302  -32.8454  -40.0194 C.3       9 UNK         0.0839 
     56 C          22.1062  -33.4360  -38.5927 C.2       9 UNK         0.5513 
     57 N          21.0293  -33.9139  -37.9842 N.am      9 UNK        -0.7519 
     58 O          23.1937  -33.4301  -38.0187 O.2       9 UNK        -0.4960 
     59 C59        21.4739  -31.3627  -39.9394 C.3       10 UNK        -0.0876 
     60 S60        20.8840  -30.5452  -41.4714 S.3       10 UNK        -0.2414 
     61 C61        20.9684  -31.7860  -42.8044 C.3       10 UNK         0.0169 
     62 H62        21.8209  -21.6998  -47.7213 H         1 UNK         0.0903 
     63 H63        20.8490  -22.9732  -48.4613 H         1 UNK         0.0903 
     64 H64        20.0659  -21.6971  -47.5271 H         1 UNK         0.0903 
     65 H65        20.9689  -24.9086  -47.3275 H         1 UNK         0.3096 
     66 H66        21.9739  -25.0788  -44.6521 H         1 UNK         0.1121 
     67 H67        22.5822  -26.8715  -46.0708 H         1 UNK         0.0849 
     68 H68        21.4547  -27.5678  -44.9443 H         1 UNK         0.0849 
     69 H69        20.8219  -29.6447  -48.1771 H         1 UNK         0.0865 
     70 H70        22.1209  -29.3114  -47.0617 H         1 UNK         0.0865 
     71 H71        22.0175  -30.3476  -44.8751 H         1 UNK         0.1346 
     72 H72        18.3551  -32.0853  -43.4761 H         1 UNK         0.1412 
     73 H73        18.4106  -29.8836  -47.1547 H         1 UNK         0.1426 
     74 H74        16.4869  -31.5339  -46.4809 H         1 UNK         0.0716 
     75 H75        16.3407  -31.9417  -44.7885 H         1 UNK         0.0716 
     76 H76        16.0429  -30.3441  -42.9075 H         1 UNK         0.0695 
     77 H77        15.2012  -28.8218  -43.0170 H         1 UNK         0.0695 
     78 H78        18.2225  -29.2124  -43.3014 H         1 UNK         0.0983 
     79 H79        18.3495  -27.3288  -44.3546 H         1 UNK         0.3095 
     80 H80        16.7034  -24.8083  -45.1521 H         1 UNK         0.0454 
     81 H81        17.7508  -22.8302  -44.0155 H         1 UNK         0.0851 
     82 H82        18.0634  -23.8187  -42.5897 H         1 UNK         0.0851 
     83 H83        16.4122  -23.4812  -43.0868 H         1 UNK         0.0851 
     84 H84        18.7552  -24.9462  -45.9764 H         1 UNK         0.2976 
     85 H85        19.0281  -27.0519  -41.6827 H         1 UNK         0.3116 
     86 H86        18.6342  -28.3171  -39.0662 H         1 UNK         0.0646 
     87 H87        17.8812  -25.3818  -39.5597 H         1 UNK         0.0847 
     88 H88        16.7758  -26.6676  -39.0794 H         1 UNK         0.0847 
     89 H89        18.0357  -26.1349  -37.9772 H         1 UNK         0.0847 
     90 H90        20.5313  -28.4857  -38.1733 H         1 UNK         0.3040 
     91 H91        22.6155  -28.2558  -37.4979 H         1 UNK         0.1015 
     92 H92        22.1751  -25.2449  -37.8470 H         1 UNK         0.0786 
     93 H93        23.3484  -26.0113  -36.7873 H         1 UNK         0.0786 
     94 H94        21.6348  -26.1940  -36.4627 H         1 UNK         0.0786 
     95 H95        22.2083  -28.3432  -40.5301 H         1 UNK         0.3172 
     96 H96        24.7737  -27.2382  -41.5182 H         1 UNK         0.0595 
     97 H97        22.5388  -28.7094  -43.0147 H         1 UNK         0.0839 
     98 H98        23.8661  -27.8064  -43.7279 H         1 UNK         0.0839 
     99 H99        22.6221  -26.9597  -42.8264 H         1 UNK         0.0839 
    100 H100       25.7567  -28.8810  -43.2282 H         1 UNK         0.2998 
    101 H101       27.0224  -30.9843  -41.8416 H         1 UNK         0.0822 
    102 H102       27.9066  -31.5836  -44.1077 H         1 UNK         0.0787 
    103 H103       26.7538  -30.4891  -44.8580 H         1 UNK         0.0787 
    104 H104       28.0257  -29.8571  -43.8106 H         1 UNK         0.0787 
    105 H105       26.4370  -32.9733  -41.3965 H         1 UNK         0.3055 
    106 H106       25.4912  -34.9421  -41.2584 H         1 UNK         0.1106 
    107 H107       25.9179  -35.1884  -43.7248 H         1 UNK         0.0828 
    108 H108       24.5229  -36.1010  -43.1788 H         1 UNK         0.0828 
    109 H109       24.2880  -34.5978  -44.0508 H         1 UNK         0.0828 
    110 H110       23.7937  -32.2371  -40.8411 H         1 UNK         0.2931 
    111 H111       21.1276  -33.4154  -40.4888 H         1 UNK         0.0412 
    112 H112       20.1302  -33.9204  -38.4409 H         1 UNK         0.3472 
    113 H113       21.1189  -34.2887  -37.0523 H         1 UNK         0.3472 
    114 H114       20.6476  -31.2748  -39.2313 H         1 UNK         0.0970 
    115 H115       22.2726  -30.7519  -39.5170 H         1 UNK         0.0970 
    116 H116       22.0095  -32.0080  -43.0358 H         1 UNK         0.0612 
    117 H117       20.5038  -32.7192  -42.4876 H         1 UNK         0.0612 
@<TRIPOS>BOND
     1    1    2 1    
     2    1   62 1    
     3    1   63 1    
     4    1   64 1    
     5    2    3 2    
     6    2    4 am   BACKBONE|DICT|INTERRES
     7    4    5 1    
     8    4   65 1    
     9    5    6 1    
    10    5   25 1    
    11    5   66 1    
    12    6    7 1    
    13    6   67 1    
    14    6   68 1    
    15    7    8 1    
    16    8    9 1    
    17    8   69 1    
    18    8   70 1    
    19    9   10 ar   
    20    9   14 ar   
    21   10   11 ar   
    22   10   71 1    
    23   11   12 ar   
    24   11   61 1    
    25   12   13 ar   
    26   12   72 1    
    27   13   14 ar   
    28   13   15 1    
    29   14   73 1    
    30   15   16 1    
    31   15   74 1    
    32   15   75 1    
    33   16   17 1    
    34   17   18 1    
    35   17   76 1    
    36   17   77 1    
    37   18   19 1    
    38   18   27 1    
    39   18   78 1    
    40   19   20 am   BACKBONE|DICT|INTERRES
    41   19   79 1    
    42   20   21 2    
    43   20   22 1    
    44   22   23 1    
    45   22   24 1    
    46   22   80 1    
    47   23   81 1    
    48   23   82 1    
    49   23   83 1    
    50   24   25 am   BACKBONE|DICT|INTERRES
    51   24   84 1    
    52   25   26 2    
    53   27   28 2    
    54   27   29 am   BACKBONE|DICT|INTERRES
    55   29   30 1    
    56   29   85 1    
    57   30   31 1    
    58   30   32 1    
    59   30   86 1    
    60   31   87 1    
    61   31   88 1    
    62   31   89 1    
    63   32   33 2    
    64   32   34 am   BACKBONE|DICT|INTERRES
    65   34   35 1    
    66   34   90 1    
    67   35   36 1    
    68   35   37 1    
    69   35   91 1    
    70   36   92 1    
    71   36   93 1    
    72   36   94 1    
    73   37   38 2    
    74   37   39 am   BACKBONE|DICT|INTERRES
    75   39   40 1    
    76   39   95 1    
    77   40   41 1    
    78   40   42 1    
    79   40   96 1    
    80   41   97 1    
    81   41   98 1    
    82   41   99 1    
    83   42   43 2    
    84   42   44 am   BACKBONE|DICT|INTERRES
    85   44   45 1    
    86   44  100 1    
    87   45   46 1    
    88   45   47 1    
    89   45  101 1    
    90   46  102 1    
    91   46  103 1    
    92   46  104 1    
    93   47   48 2    
    94   47   49 am   BACKBONE|DICT|INTERRES
    95   49   50 1    
    96   49  105 1    
    97   50   51 1    
    98   50   52 1    
    99   50  106 1    
   100   51  107 1    
   101   51  108 1    
   102   51  109 1    
   103   52   53 2    
   104   52   54 am   BACKBONE|DICT|INTERRES
   105   54   55 1    
   106   54  110 1    
   107   55   56 1    
   108   55   59 1    
   109   55  111 1    
   110   56   57 am   BACKBONE|DICT|INTERRES
   111   56   58 2    
   112   57  112 1    
   113   57  113 1    
   114   59   60 1    
   115   59  114 1    
   116   59  115 1    
   117   60   61 1    
   118   61  116 1    
   119   61  117 1    
@<TRIPOS>SUBSTRUCTURE
     1 UNK         1 GROUP             0       ****    0 ROOT    
