@<TRIPOS>MOLECULE
3R8
117   119    1
SMALL
USER_CHARGES


@<TRIPOS>ATOM
      1 CA         15.6554  -24.2072  -47.6142 C.3       0 UNK        -0.2013 
      2 C          16.3597  -25.5540  -47.5491 C.2       0 UNK         0.4866 
      3 O          16.7541  -26.0891  -48.5853 O.2       0 UNK        -0.5176 
      4 N          16.5192  -26.1067  -46.3391 N.am      1 UNK        -0.4884 
      5 CA         17.1600  -27.4056  -46.0883 C.3       1 UNK         0.0853 
      6 C6         16.8674  -27.9215  -44.6569 C.3       10 UNK        -0.0849 
      7 S7         15.1021  -28.2889  -44.3926 S.3       10 UNK        -0.2776 
      8 C8         15.0232  -28.4245  -42.5735 C.3       10 UNK         0.0316 
      9 C9         16.0053  -29.4475  -42.0122 C.ar      10 UNK        -0.0863 
     10 C10        15.9145  -30.7935  -42.3806 C.ar      10 UNK        -0.1009 
     11 C11        16.8309  -31.7292  -41.8903 C.ar      10 UNK        -0.0712 
     12 C12        17.8146  -31.3194  -40.9871 C.ar      10 UNK        -0.0894 
     13 C13        17.9352  -29.9736  -40.6337 C.ar      10 UNK        -0.0745 
     14 C14        17.0192  -29.0440  -41.1372 C.ar      10 UNK        -0.0972 
     15 C15        19.0904  -29.5198  -39.7522 C.3       10 UNK         0.0209 
     16 S16        20.6537  -29.4288  -40.6893 S.3       10 UNK        -0.2568 
     17 C17        20.2230  -28.1995  -41.9622 C.3       10 UNK        -0.0983 
     18 CA         21.4005  -27.7791  -42.8745 C.3       3 UNK         0.0876 
     19 N          20.8955  -27.0146  -44.0133 N.am      3 UNK        -0.4424 
     20 C          21.5584  -26.7533  -45.1471 C.2       2 UNK         0.4918 
     21 O          22.7206  -27.1008  -45.3591 O.2       2 UNK        -0.4875 
     22 CA         20.7697  -25.9726  -46.2233 C.3       2 UNK         0.0481 
     23 CB         21.3147  -26.2071  -47.6479 C.3       2 UNK        -0.1831 
     24 N          19.3172  -26.2114  -46.1672 N.am      2 UNK        -0.4498 
     25 C          18.6839  -27.3860  -46.3334 C.2       1 UNK         0.5027 
     26 O          19.2536  -28.4379  -46.6262 O.2       1 UNK        -0.4969 
     27 C          22.4836  -26.9898  -42.1141 C.2       3 UNK         0.5005 
     28 O          23.5799  -27.5071  -41.8800 O.2       3 UNK        -0.5279 
     29 N          22.1345  -25.7500  -41.7273 N.am      4 UNK        -0.4463 
     30 CA         22.9489  -24.7611  -41.0005 C.3       4 UNK         0.0283 
     31 CB         24.0924  -24.2582  -41.9067 C.3       4 UNK        -0.1875 
     32 C          23.4808  -25.2322  -39.6283 C.2       4 UNK         0.4949 
     33 O          24.3818  -24.5946  -39.0826 O.2       4 UNK        -0.5039 
     34 N          22.9506  -26.3570  -39.1202 N.am      5 UNK        -0.4663 
     35 CA         23.4636  -27.1656  -38.0047 C.3       5 UNK         0.0242 
     36 CB         23.3351  -26.4065  -36.6668 C.3       5 UNK        -0.1982 
     37 C          24.8913  -27.7088  -38.2490 C.2       5 UNK         0.5017 
     38 O          25.5858  -28.0406  -37.2866 O.2       5 UNK        -0.5012 
     39 N          25.3031  -27.7831  -39.5225 N.am      6 UNK        -0.4439 
     40 CA         26.6263  -28.2152  -39.9688 C.3       6 UNK         0.0297 
     41 CB         27.2383  -27.1248  -40.8642 C.3       6 UNK        -0.2006 
     42 C          26.5360  -29.5459  -40.7244 C.2       6 UNK         0.4892 
     43 O          27.3565  -30.4319  -40.4807 O.2       6 UNK        -0.5089 
     44 N          25.5413  -29.6709  -41.6129 N.am      7 UNK        -0.4243 
     45 CA         25.2129  -30.9119  -42.3121 C.3       7 UNK         0.0196 
     46 CB         24.6025  -30.5605  -43.6791 C.3       7 UNK        -0.2007 
     47 C          24.2359  -31.7539  -41.4761 C.2       7 UNK         0.5020 
     48 O          23.6470  -31.2543  -40.5154 O.2       7 UNK        -0.5147 
     49 N          24.0603  -33.0213  -41.8709 N.am      8 UNK        -0.4734 
     50 CA         23.0832  -33.9332  -41.2641 C.3       8 UNK         0.0238 
     51 CB         23.4109  -35.3791  -41.6714 C.3       8 UNK        -0.1912 
     52 C          21.6298  -33.5851  -41.6346 C.2       8 UNK         0.5038 
     53 O          20.7264  -33.8424  -40.8382 O.2       8 UNK        -0.5046 
     54 N          21.4366  -33.0159  -42.8296 N.am      9 UNK        -0.4200 
     55 CA         20.1592  -32.5540  -43.3748 C.3       9 UNK         0.0839 
     56 C          20.4064  -31.5443  -44.5251 C.2       9 UNK         0.5513 
     57 N          19.4070  -30.7457  -44.8640 N.am      9 UNK        -0.7519 
     58 O          21.4906  -31.4765  -45.1016 O.2       9 UNK        -0.4960 
     59 C59        19.2252  -33.7427  -43.7509 C.3       10 UNK        -0.0876 
     60 S60        17.4740  -33.3139  -44.0556 S.3       10 UNK        -0.2414 
     61 C61        16.7796  -33.1697  -42.3755 C.3       10 UNK         0.0169 
     62 H62        15.3588  -23.8529  -46.6271 H         1 UNK         0.0903 
     63 H63        16.3132  -23.4608  -48.0589 H         1 UNK         0.0903 
     64 H64        14.7597  -24.2822  -48.2302 H         1 UNK         0.0903 
     65 H65        16.1429  -25.6395  -45.5258 H         1 UNK         0.3096 
     66 H66        16.7455  -28.1244  -46.7994 H         1 UNK         0.1121 
     67 H67        17.1991  -27.1989  -43.9089 H         1 UNK         0.0849 
     68 H68        17.4180  -28.8420  -44.4567 H         1 UNK         0.0849 
     69 H69        15.1977  -27.4389  -42.1392 H         1 UNK         0.0865 
     70 H70        14.0107  -28.7091  -42.2842 H         1 UNK         0.0865 
     71 H71        15.1499  -31.1070  -43.0787 H         1 UNK         0.1346 
     72 H72        18.5287  -32.0371  -40.6050 H         1 UNK         0.1412 
     73 H73        17.1125  -28.0014  -40.8653 H         1 UNK         0.1426 
     74 H74        19.2145  -30.2177  -38.9229 H         1 UNK         0.0716 
     75 H75        18.8787  -28.5469  -39.3062 H         1 UNK         0.0716 
     76 H76        19.7637  -27.3341  -41.4809 H         1 UNK         0.0695 
     77 H77        19.4455  -28.6493  -42.5819 H         1 UNK         0.0695 
     78 H78        21.8615  -28.6853  -43.2701 H         1 UNK         0.0983 
     79 H79        19.9488  -26.6762  -43.9412 H         1 UNK         0.3095 
     80 H80        20.9105  -24.9163  -45.9900 H         1 UNK         0.0454 
     81 H81        21.2829  -27.2608  -47.9265 H         1 UNK         0.0851 
     82 H82        22.3530  -25.8833  -47.7279 H         1 UNK         0.0851 
     83 H83        20.7442  -25.6470  -48.3886 H         1 UNK         0.0851 
     84 H84        18.7466  -25.4067  -45.9461 H         1 UNK         0.2976 
     85 H85        21.2032  -25.4376  -41.9648 H         1 UNK         0.3116 
     86 H86        22.2912  -23.9157  -40.7937 H         1 UNK         0.0646 
     87 H87        24.8240  -25.0419  -42.1057 H         1 UNK         0.0847 
     88 H88        24.6260  -23.4263  -41.4453 H         1 UNK         0.0847 
     89 H89        23.7135  -23.9035  -42.8651 H         1 UNK         0.0847 
     90 H90        22.2100  -26.7893  -39.6547 H         1 UNK         0.3040 
     91 H91        22.8204  -28.0456  -37.9481 H         1 UNK         0.1015 
     92 H92        24.0158  -25.5564  -36.6153 H         1 UNK         0.0786 
     93 H93        23.5669  -27.0579  -35.8233 H         1 UNK         0.0786 
     94 H94        22.3214  -26.0350  -36.5172 H         1 UNK         0.0786 
     95 H95        24.6409  -27.5344  -40.2527 H         1 UNK         0.3172 
     96 H96        27.2889  -28.3608  -39.1131 H         1 UNK         0.0595 
     97 H97        26.6277  -26.9338  -41.7478 H         1 UNK         0.0839 
     98 H98        28.2317  -27.4149  -41.2090 H         1 UNK         0.0839 
     99 H99        27.3437  -26.1841  -40.3233 H         1 UNK         0.0839 
    100 H100       24.8763  -28.9102  -41.7218 H         1 UNK         0.2998 
    101 H101       26.1228  -31.4938  -42.4752 H         1 UNK         0.0822 
    102 H102       25.2719  -29.9276  -44.2620 H         1 UNK         0.0787 
    103 H103       24.4097  -31.4557  -44.2711 H         1 UNK         0.0787 
    104 H104       23.6557  -30.0328  -43.5734 H         1 UNK         0.0787 
    105 H105       24.5905  -33.3717  -42.6566 H         1 UNK         0.3055 
    106 H106       23.1679  -33.8568  -40.1773 H         1 UNK         0.1106 
    107 H107       23.3525  -35.5202  -42.7514 H         1 UNK         0.0828 
    108 H108       22.7114  -36.0801  -41.2137 H         1 UNK         0.0828 
    109 H109       24.4115  -35.6660  -41.3476 H         1 UNK         0.0828 
    110 H110       22.2343  -32.8063  -43.4143 H         1 UNK         0.2931 
    111 H111       19.7009  -31.9762  -42.5789 H         1 UNK         0.0412 
    112 H112       18.5099  -30.8511  -44.4165 H         1 UNK         0.3472 
    113 H113       19.5318  -30.0605  -45.6019 H         1 UNK         0.3472 
    114 H114       19.2370  -34.5003  -42.9668 H         1 UNK         0.0970 
    115 H115       19.6098  -34.2458  -44.6396 H         1 UNK         0.0970 
    116 H116       15.7419  -33.5057  -42.3945 H         1 UNK         0.0612 
    117 H117       17.3054  -33.8355  -41.6893 H         1 UNK         0.0612 
@<TRIPOS>BOND
     1    1    2 1    
     2    1   62 1    
     3    1   63 1    
     4    1   64 1    
     5    2    3 2    
     6    2    4 am   BACKBONE|DICT|INTERRES
     7    4    5 1    
     8    4   65 1    
     9    5    6 1    
    10    5   25 1    
    11    5   66 1    
    12    6    7 1    
    13    6   67 1    
    14    6   68 1    
    15    7    8 1    
    16    8    9 1    
    17    8   69 1    
    18    8   70 1    
    19    9   10 ar   
    20    9   14 ar   
    21   10   11 ar   
    22   10   71 1    
    23   11   12 ar   
    24   11   61 1    
    25   12   13 ar   
    26   12   72 1    
    27   13   14 ar   
    28   13   15 1    
    29   14   73 1    
    30   15   16 1    
    31   15   74 1    
    32   15   75 1    
    33   16   17 1    
    34   17   18 1    
    35   17   76 1    
    36   17   77 1    
    37   18   19 1    
    38   18   27 1    
    39   18   78 1    
    40   19   20 am   BACKBONE|DICT|INTERRES
    41   19   79 1    
    42   20   21 2    
    43   20   22 1    
    44   22   23 1    
    45   22   24 1    
    46   22   80 1    
    47   23   81 1    
    48   23   82 1    
    49   23   83 1    
    50   24   25 am   BACKBONE|DICT|INTERRES
    51   24   84 1    
    52   25   26 2    
    53   27   28 2    
    54   27   29 am   BACKBONE|DICT|INTERRES
    55   29   30 1    
    56   29   85 1    
    57   30   31 1    
    58   30   32 1    
    59   30   86 1    
    60   31   87 1    
    61   31   88 1    
    62   31   89 1    
    63   32   33 2    
    64   32   34 am   BACKBONE|DICT|INTERRES
    65   34   35 1    
    66   34   90 1    
    67   35   36 1    
    68   35   37 1    
    69   35   91 1    
    70   36   92 1    
    71   36   93 1    
    72   36   94 1    
    73   37   38 2    
    74   37   39 am   BACKBONE|DICT|INTERRES
    75   39   40 1    
    76   39   95 1    
    77   40   41 1    
    78   40   42 1    
    79   40   96 1    
    80   41   97 1    
    81   41   98 1    
    82   41   99 1    
    83   42   43 2    
    84   42   44 am   BACKBONE|DICT|INTERRES
    85   44   45 1    
    86   44  100 1    
    87   45   46 1    
    88   45   47 1    
    89   45  101 1    
    90   46  102 1    
    91   46  103 1    
    92   46  104 1    
    93   47   48 2    
    94   47   49 am   BACKBONE|DICT|INTERRES
    95   49   50 1    
    96   49  105 1    
    97   50   51 1    
    98   50   52 1    
    99   50  106 1    
   100   51  107 1    
   101   51  108 1    
   102   51  109 1    
   103   52   53 2    
   104   52   54 am   BACKBONE|DICT|INTERRES
   105   54   55 1    
   106   54  110 1    
   107   55   56 1    
   108   55   59 1    
   109   55  111 1    
   110   56   57 am   BACKBONE|DICT|INTERRES
   111   56   58 2    
   112   57  112 1    
   113   57  113 1    
   114   59   60 1    
   115   59  114 1    
   116   59  115 1    
   117   60   61 1    
   118   61  116 1    
   119   61  117 1    
@<TRIPOS>SUBSTRUCTURE
     1 UNK         1 GROUP             0       ****    0 ROOT    
