@<TRIPOS>MOLECULE
3R8
117   119    1
SMALL
USER_CHARGES


@<TRIPOS>ATOM
      1 CA         14.6408  -26.9326  -40.8755 C.3       0 UNK        -0.2013 
      2 C          14.4773  -26.4037  -42.2988 C.2       0 UNK         0.4866 
      3 O          13.7854  -25.4037  -42.4792 O.2       0 UNK        -0.5176 
      4 N          15.0721  -27.0017  -43.3436 N.am      1 UNK        -0.4884 
      5 CA         15.9479  -28.1826  -43.3940 C.3       1 UNK         0.0853 
      6 C6         15.1930  -29.5353  -43.2757 C.3       10 UNK        -0.0849 
      7 S7         14.2443  -29.8869  -44.7920 S.3       10 UNK        -0.2776 
      8 C8         15.3658  -31.0385  -45.6605 C.3       10 UNK         0.0316 
      9 C9         16.7371  -30.4305  -45.9407 C.ar      10 UNK        -0.0863 
     10 C10        17.8890  -30.9843  -45.3682 C.ar      10 UNK        -0.1009 
     11 C11        19.1469  -30.4367  -45.6398 C.ar      10 UNK        -0.0712 
     12 C12        19.2463  -29.3278  -46.4808 C.ar      10 UNK        -0.0894 
     13 C13        18.1042  -28.7426  -47.0327 C.ar      10 UNK        -0.0745 
     14 C14        16.8536  -29.3129  -46.7753 C.ar      10 UNK        -0.0972 
     15 C15        18.2183  -27.5062  -47.9149 C.3       10 UNK         0.0209 
     16 S16        18.5332  -25.9928  -46.9433 S.3       10 UNK        -0.2568 
     17 C17        20.3577  -25.9999  -46.8199 C.3       10 UNK        -0.0983 
     18 CA         20.9179  -25.7372  -45.3951 C.3       3 UNK         0.0876 
     19 N          20.1908  -26.4406  -44.3301 N.am      3 UNK        -0.4424 
     20 C          20.2392  -26.0909  -43.0344 C.2       2 UNK         0.4918 
     21 O          20.9480  -25.1808  -42.6027 O.2       2 UNK        -0.4875 
     22 CA         19.2981  -26.8442  -42.0806 C.3       2 UNK         0.0481 
     23 CB         19.0938  -26.1273  -40.7306 C.3       2 UNK        -0.1831 
     24 N          18.0130  -27.0744  -42.7394 N.am      2 UNK        -0.4498 
     25 C          17.1665  -28.0712  -42.4611 C.2       1 UNK         0.5027 
     26 O          17.2995  -28.8529  -41.5197 O.2       1 UNK        -0.4969 
     27 C          22.4318  -26.0334  -45.3625 C.2       3 UNK         0.5005 
     28 O          23.2232  -25.1695  -45.7448 O.2       3 UNK        -0.5279 
     29 N          22.8026  -27.2444  -44.9238 N.am      4 UNK        -0.4463 
     30 CA         24.1841  -27.6918  -44.7664 C.3       4 UNK         0.0283 
     31 CB         24.3131  -29.1320  -45.2910 C.3       4 UNK        -0.1875 
     32 C          24.5754  -27.6313  -43.2858 C.2       4 UNK         0.4949 
     33 O          23.7293  -27.8379  -42.4135 O.2       4 UNK        -0.5039 
     34 N          25.8659  -27.3851  -43.0312 N.am      5 UNK        -0.4663 
     35 CA         26.4422  -27.3399  -41.6843 C.3       5 UNK         0.0242 
     36 CB         27.7949  -26.6115  -41.7371 C.3       5 UNK        -0.1982 
     37 C          26.6072  -28.7297  -41.0456 C.2       5 UNK         0.5017 
     38 O          26.6378  -28.8164  -39.8180 O.2       5 UNK        -0.5012 
     39 N          26.7105  -29.7779  -41.8785 N.am      6 UNK        -0.4439 
     40 CA         26.8842  -31.1864  -41.5072 C.3       6 UNK         0.0297 
     41 CB         26.9607  -32.0356  -42.7881 C.3       6 UNK        -0.2006 
     42 C          25.7651  -31.6816  -40.5754 C.2       6 UNK         0.4892 
     43 O          24.6598  -31.9622  -41.0442 O.2       6 UNK        -0.5089 
     44 N          26.0607  -31.6928  -39.2657 N.am      7 UNK        -0.4243 
     45 CA         25.1510  -31.9671  -38.1423 C.3       7 UNK         0.0196 
     46 CB         24.7560  -33.4592  -38.1289 C.3       7 UNK        -0.2007 
     47 C          23.9152  -31.0407  -38.0997 C.2       7 UNK         0.5020 
     48 O          22.8957  -31.4195  -37.5219 O.2       7 UNK        -0.5147 
     49 N          24.0026  -29.8729  -38.7584 N.am      8 UNK        -0.4734 
     50 CA         22.9068  -28.9458  -39.0775 C.3       8 UNK         0.0238 
     51 CB         22.4831  -28.1664  -37.8151 C.3       8 UNK        -0.1912 
     52 C          21.7130  -29.6255  -39.7893 C.2       8 UNK         0.5038 
     53 O          20.5694  -29.2324  -39.5561 O.2       8 UNK        -0.5046 
     54 N          21.9994  -30.6554  -40.6024 N.am      9 UNK        -0.4200 
     55 CA         21.0320  -31.5661  -41.2416 C.3       9 UNK         0.0839 
     56 C          20.2635  -32.4965  -40.2522 C.2       9 UNK         0.5513 
     57 N          20.6544  -32.6118  -38.9883 N.am      9 UNK        -0.7519 
     58 O          19.3113  -33.1655  -40.6458 O.2       9 UNK        -0.4960 
     59 C59        20.0805  -30.8550  -42.2464 C.3       10 UNK        -0.0876 
     60 S60        20.9832  -30.0566  -43.6149 S.3       10 UNK        -0.2414 
     61 C61        20.4140  -31.0299  -45.0430 C.3       10 UNK         0.0169 
     62 H62        13.7943  -26.6266  -40.2612 H         1 UNK         0.0903 
     63 H63        14.6936  -28.0175  -40.8311 H         1 UNK         0.0903 
     64 H64        15.5442  -26.5237  -40.4237 H         1 UNK         0.0903 
     65 H65        14.9041  -26.5887  -44.2507 H         1 UNK         0.3096 
     66 H66        16.3895  -28.1540  -44.3892 H         1 UNK         0.1121 
     67 H67        14.5086  -29.5430  -42.4285 H         1 UNK         0.0849 
     68 H68        15.8838  -30.3638  -43.1067 H         1 UNK         0.0849 
     69 H69        15.4585  -31.9540  -45.0740 H         1 UNK         0.0865 
     70 H70        14.9078  -31.3302  -46.6066 H         1 UNK         0.0865 
     71 H71        17.8097  -31.8453  -44.7187 H         1 UNK         0.1346 
     72 H72        20.2243  -28.9257  -46.6940 H         1 UNK         0.1412 
     73 H73        15.9631  -28.8779  -47.2091 H         1 UNK         0.1426 
     74 H74        17.2946  -27.3631  -48.4778 H         1 UNK         0.0716 
     75 H75        19.0017  -27.6473  -48.6611 H         1 UNK         0.0716 
     76 H76        20.7272  -25.2276  -47.4972 H         1 UNK         0.0695 
     77 H77        20.7470  -26.9315  -47.2271 H         1 UNK         0.0695 
     78 H78        20.8048  -24.6676  -45.2018 H         1 UNK         0.0983 
     79 H79        19.5915  -27.2000  -44.6192 H         1 UNK         0.3095 
     80 H80        19.7747  -27.8050  -41.8847 H         1 UNK         0.0454 
     81 H81        18.4673  -26.7151  -40.0598 H         1 UNK         0.0851 
     82 H82        18.6272  -25.1505  -40.8602 H         1 UNK         0.0851 
     83 H83        20.0461  -25.9750  -40.2213 H         1 UNK         0.0851 
     84 H84        17.7885  -26.4406  -43.4955 H         1 UNK         0.2976 
     85 H85        22.0966  -27.8573  -44.5381 H         1 UNK         0.3116 
     86 H86        24.8571  -27.0528  -45.3422 H         1 UNK         0.0646 
     87 H87        23.7364  -29.8377  -44.6924 H         1 UNK         0.0847 
     88 H88        25.3515  -29.4644  -45.2690 H         1 UNK         0.0847 
     89 H89        23.9714  -29.2112  -46.3231 H         1 UNK         0.0847 
     90 H90        26.4960  -27.2169  -43.8034 H         1 UNK         0.3040 
     91 H91        25.7708  -26.7662  -41.0408 H         1 UNK         0.1015 
     92 H92        28.5116  -27.1319  -42.3738 H         1 UNK         0.0786 
     93 H93        28.2370  -26.5374  -40.7423 H         1 UNK         0.0786 
     94 H94        27.6839  -25.5951  -42.1156 H         1 UNK         0.0786 
     95 H95        26.6470  -29.5836  -42.8662 H         1 UNK         0.3172 
     96 H96        27.8393  -31.2782  -40.9860 H         1 UNK         0.0595 
     97 H97        26.0566  -31.9417  -43.3916 H         1 UNK         0.0839 
     98 H98        27.0814  -33.0928  -42.5476 H         1 UNK         0.0839 
     99 H99        27.8099  -31.7473  -43.4078 H         1 UNK         0.0839 
    100 H100       26.9842  -31.3780  -38.9989 H         1 UNK         0.2998 
    101 H101       25.7143  -31.7610  -37.2311 H         1 UNK         0.0822 
    102 H102       25.6350  -34.1032  -38.1539 H         1 UNK         0.0787 
    103 H103       24.1988  -33.7108  -37.2256 H         1 UNK         0.0787 
    104 H104       24.1260  -33.7173  -38.9811 H         1 UNK         0.0787 
    105 H105       24.9019  -29.6403  -39.1699 H         1 UNK         0.3055 
    106 H106       23.3086  -28.2261  -39.7923 H         1 UNK         0.1106 
    107 H107       22.0221  -28.8204  -37.0743 H         1 UNK         0.0828 
    108 H108       23.3361  -27.6760  -37.3464 H         1 UNK         0.0828 
    109 H109       21.7584  -27.3886  -38.0592 H         1 UNK         0.0828 
    110 H110       22.9712  -30.9273  -40.7148 H         1 UNK         0.2931 
    111 H111       21.6479  -32.2536  -41.8226 H         1 UNK         0.0412 
    112 H112       21.4412  -32.0831  -38.6244 H         1 UNK         0.3472 
    113 H113       20.1477  -33.2308  -38.3762 H         1 UNK         0.3472 
    114 H114       19.4843  -30.1051  -41.7325 H         1 UNK         0.0970 
    115 H115       19.3586  -31.5579  -42.6638 H         1 UNK         0.0970 
    116 H116       20.2674  -32.0736  -44.7611 H         1 UNK         0.0612 
    117 H117       21.2027  -31.0305  -45.7970 H         1 UNK         0.0612 
@<TRIPOS>BOND
     1    1    2 1    
     2    1   62 1    
     3    1   63 1    
     4    1   64 1    
     5    2    3 2    
     6    2    4 am   BACKBONE|DICT|INTERRES
     7    4    5 1    
     8    4   65 1    
     9    5    6 1    
    10    5   25 1    
    11    5   66 1    
    12    6    7 1    
    13    6   67 1    
    14    6   68 1    
    15    7    8 1    
    16    8    9 1    
    17    8   69 1    
    18    8   70 1    
    19    9   10 ar   
    20    9   14 ar   
    21   10   11 ar   
    22   10   71 1    
    23   11   12 ar   
    24   11   61 1    
    25   12   13 ar   
    26   12   72 1    
    27   13   14 ar   
    28   13   15 1    
    29   14   73 1    
    30   15   16 1    
    31   15   74 1    
    32   15   75 1    
    33   16   17 1    
    34   17   18 1    
    35   17   76 1    
    36   17   77 1    
    37   18   19 1    
    38   18   27 1    
    39   18   78 1    
    40   19   20 am   BACKBONE|DICT|INTERRES
    41   19   79 1    
    42   20   21 2    
    43   20   22 1    
    44   22   23 1    
    45   22   24 1    
    46   22   80 1    
    47   23   81 1    
    48   23   82 1    
    49   23   83 1    
    50   24   25 am   BACKBONE|DICT|INTERRES
    51   24   84 1    
    52   25   26 2    
    53   27   28 2    
    54   27   29 am   BACKBONE|DICT|INTERRES
    55   29   30 1    
    56   29   85 1    
    57   30   31 1    
    58   30   32 1    
    59   30   86 1    
    60   31   87 1    
    61   31   88 1    
    62   31   89 1    
    63   32   33 2    
    64   32   34 am   BACKBONE|DICT|INTERRES
    65   34   35 1    
    66   34   90 1    
    67   35   36 1    
    68   35   37 1    
    69   35   91 1    
    70   36   92 1    
    71   36   93 1    
    72   36   94 1    
    73   37   38 2    
    74   37   39 am   BACKBONE|DICT|INTERRES
    75   39   40 1    
    76   39   95 1    
    77   40   41 1    
    78   40   42 1    
    79   40   96 1    
    80   41   97 1    
    81   41   98 1    
    82   41   99 1    
    83   42   43 2    
    84   42   44 am   BACKBONE|DICT|INTERRES
    85   44   45 1    
    86   44  100 1    
    87   45   46 1    
    88   45   47 1    
    89   45  101 1    
    90   46  102 1    
    91   46  103 1    
    92   46  104 1    
    93   47   48 2    
    94   47   49 am   BACKBONE|DICT|INTERRES
    95   49   50 1    
    96   49  105 1    
    97   50   51 1    
    98   50   52 1    
    99   50  106 1    
   100   51  107 1    
   101   51  108 1    
   102   51  109 1    
   103   52   53 2    
   104   52   54 am   BACKBONE|DICT|INTERRES
   105   54   55 1    
   106   54  110 1    
   107   55   56 1    
   108   55   59 1    
   109   55  111 1    
   110   56   57 am   BACKBONE|DICT|INTERRES
   111   56   58 2    
   112   57  112 1    
   113   57  113 1    
   114   59   60 1    
   115   59  114 1    
   116   59  115 1    
   117   60   61 1    
   118   61  116 1    
   119   61  117 1    
@<TRIPOS>SUBSTRUCTURE
     1 UNK         1 GROUP             0       ****    0 ROOT    
