@<TRIPOS>MOLECULE
3R8
117   119    1
SMALL
USER_CHARGES


@<TRIPOS>ATOM
      1 CA         17.0713  -24.0088  -49.8353 C.3       0 UNK        -0.2013 
      2 C          18.1737  -24.5701  -48.9497 C.2       0 UNK         0.4866 
      3 O          19.1711  -23.8896  -48.7069 O.2       0 UNK        -0.5176 
      4 N          18.0073  -25.8106  -48.4760 N.am      1 UNK        -0.4884 
      5 CA         18.9209  -26.4971  -47.5571 C.3       1 UNK         0.0853 
      6 C6         18.6653  -28.0348  -47.4748 C.3       10 UNK        -0.0849 
      7 S7         16.9621  -28.6186  -47.8167 S.3       10 UNK        -0.2776 
      8 C8         16.0418  -28.2010  -46.2935 C.3       10 UNK         0.0316 
      9 C9         16.4424  -28.9454  -45.0177 C.ar      10 UNK        -0.0863 
     10 C10        17.1700  -30.1435  -45.0247 C.ar      10 UNK        -0.1009 
     11 C11        17.4890  -30.7908  -43.8260 C.ar      10 UNK        -0.0712 
     12 C12        17.0504  -30.2546  -42.6126 C.ar      10 UNK        -0.0894 
     13 C13        16.3367  -29.0541  -42.5879 C.ar      10 UNK        -0.0745 
     14 C14        16.0330  -28.4117  -43.7913 C.ar      10 UNK        -0.0972 
     15 C15        15.8950  -28.4401  -41.2673 C.3       10 UNK         0.0209 
     16 S16        16.9274  -27.0080  -40.8139 S.3       10 UNK        -0.2568 
     17 C17        18.4152  -27.8006  -40.1106 C.3       10 UNK        -0.0983 
     18 CA         19.5196  -28.1246  -41.1585 C.3       3 UNK         0.0876 
     19 N          19.8383  -26.9693  -42.0037 N.am      3 UNK        -0.4424 
     20 C          20.0477  -27.0436  -43.3217 C.2       2 UNK         0.4918 
     21 O          20.0737  -28.0999  -43.9554 O.2       2 UNK        -0.4875 
     22 CA         20.2633  -25.7114  -44.0615 C.3       2 UNK         0.0481 
     23 CB         21.6707  -25.1537  -43.7955 C.3       2 UNK        -0.1831 
     24 N          20.1023  -25.9314  -45.4987 N.am      2 UNK        -0.4498 
     25 C          18.9374  -25.8530  -46.1540 C.2       1 UNK         0.5027 
     26 O          17.9137  -25.3470  -45.6863 O.2       1 UNK        -0.4969 
     27 C          20.7933  -28.7401  -40.5330 C.2       3 UNK         0.5005 
     28 O          21.8966  -28.5745  -41.0651 O.2       3 UNK        -0.5279 
     29 N          20.6180  -29.4578  -39.4122 N.am      4 UNK        -0.4463 
     30 CA         21.6656  -30.1049  -38.6180 C.3       4 UNK         0.0283 
     31 CB         21.0215  -30.7985  -37.4076 C.3       4 UNK        -0.1875 
     32 C          22.7630  -29.1294  -38.1572 C.2       4 UNK         0.4949 
     33 O          22.5019  -27.9356  -37.9944 O.2       4 UNK        -0.5039 
     34 N          23.9824  -29.6590  -37.9943 N.am      5 UNK        -0.4663 
     35 CA         25.2570  -28.9698  -37.7318 C.3       5 UNK         0.0242 
     36 CB         25.2220  -28.1779  -36.4096 C.3       5 UNK        -0.1982 
     37 C          25.7550  -28.0915  -38.8973 C.2       5 UNK         0.5017 
     38 O          26.9499  -28.1189  -39.1915 O.2       5 UNK        -0.5012 
     39 N          24.8468  -27.3487  -39.5437 N.am      6 UNK        -0.4439 
     40 CA         25.1060  -26.5208  -40.7213 C.3       6 UNK         0.0297 
     41 CB         23.9429  -25.5374  -40.9284 C.3       6 UNK        -0.2006 
     42 C          25.3618  -27.3797  -41.9705 C.2       6 UNK         0.4892 
     43 O          26.4682  -27.3443  -42.5103 O.2       6 UNK        -0.5089 
     44 N          24.3490  -28.1523  -42.3870 N.am      7 UNK        -0.4243 
     45 CA         24.4590  -29.1507  -43.4558 C.3       7 UNK         0.0196 
     46 CB         23.1633  -29.1592  -44.2794 C.3       7 UNK        -0.2007 
     47 C          24.7286  -30.5561  -42.8951 C.2       7 UNK         0.5020 
     48 O          25.1933  -31.4174  -43.6411 O.2       7 UNK        -0.5147 
     49 N          24.4200  -30.7651  -41.6050 N.am      8 UNK        -0.4734 
     50 CA         24.5759  -32.0089  -40.8346 C.3       8 UNK         0.0238 
     51 CB         26.0553  -32.4452  -40.7692 C.3       8 UNK        -0.1912 
     52 C          23.6360  -33.1547  -41.2638 C.2       8 UNK         0.5038 
     53 O          23.8494  -34.2938  -40.8451 O.2       8 UNK        -0.5046 
     54 N          22.6041  -32.8415  -42.0569 N.am      9 UNK        -0.4200 
     55 CA         21.5244  -33.7624  -42.4336 C.3       9 UNK         0.0839 
     56 C          20.5096  -34.0067  -41.2805 C.2       9 UNK         0.5513 
     57 N          19.7168  -35.0660  -41.3727 N.am      9 UNK        -0.7519 
     58 O          20.4175  -33.2444  -40.3200 O.2       9 UNK        -0.4960 
     59 C59        20.8409  -33.3228  -43.7554 C.3       10 UNK        -0.0876 
     60 S60        20.0969  -31.6562  -43.6987 S.3       10 UNK        -0.2414 
     61 C61        18.3282  -32.0578  -43.8376 C.3       10 UNK         0.0169 
     62 H62        16.2592  -24.7218  -49.9769 H         1 UNK         0.0903 
     63 H63        16.6554  -23.1058  -49.3891 H         1 UNK         0.0903 
     64 H64        17.4714  -23.7517  -50.8158 H         1 UNK         0.0903 
     65 H65        17.1658  -26.3264  -48.6949 H         1 UNK         0.3096 
     66 H66        19.9245  -26.3590  -47.9675 H         1 UNK         0.1121 
     67 H67        19.0019  -28.4563  -46.5248 H         1 UNK         0.0849 
     68 H68        19.2950  -28.5201  -48.2221 H         1 UNK         0.0849 
     69 H69        14.9870  -28.4082  -46.4787 H         1 UNK         0.0865 
     70 H70        16.1071  -27.1255  -46.1319 H         1 UNK         0.0865 
     71 H71        17.5038  -30.5750  -45.9574 H         1 UNK         0.1346 
     72 H72        17.2969  -30.7553  -41.6863 H         1 UNK         0.1412 
     73 H73        15.4769  -27.4840  -43.7690 H         1 UNK         0.1426 
     74 H74        15.9062  -29.1794  -40.4650 H         1 UNK         0.0716 
     75 H75        14.8596  -28.1083  -41.3575 H         1 UNK         0.0716 
     76 H76        18.0924  -28.7009  -39.5859 H         1 UNK         0.0695 
     77 H77        18.8100  -27.1276  -39.3468 H         1 UNK         0.0695 
     78 H78        19.1318  -28.9159  -41.7976 H         1 UNK         0.0983 
     79 H79        19.8558  -26.0713  -41.5448 H         1 UNK         0.3095 
     80 H80        19.5258  -24.9868  -43.7101 H         1 UNK         0.0454 
     81 H81        21.7690  -24.8415  -42.7564 H         1 UNK         0.0851 
     82 H82        21.8744  -24.2771  -44.4107 H         1 UNK         0.0851 
     83 H83        22.4492  -25.8914  -43.9935 H         1 UNK         0.0851 
     84 H84        20.8712  -26.4074  -45.9482 H         1 UNK         0.2976 
     85 H85        19.6832  -29.5292  -39.0398 H         1 UNK         0.3116 
     86 H86        22.1182  -30.8669  -39.2542 H         1 UNK         0.0646 
     87 H87        20.2918  -31.5459  -37.7210 H         1 UNK         0.0847 
     88 H88        20.5163  -30.0850  -36.7551 H         1 UNK         0.0847 
     89 H89        21.7695  -31.3158  -36.8053 H         1 UNK         0.0847 
     90 H90        24.0699  -30.6589  -38.1049 H         1 UNK         0.3040 
     91 H91        25.9975  -29.7630  -37.6114 H         1 UNK         0.1015 
     92 H92        26.2094  -27.7805  -36.1710 H         1 UNK         0.0786 
     93 H93        24.9178  -28.8111  -35.5762 H         1 UNK         0.0786 
     94 H94        24.5379  -27.3302  -36.4544 H         1 UNK         0.0786 
     95 H95        23.8909  -27.3867  -39.1984 H         1 UNK         0.3172 
     96 H96        26.0071  -25.9335  -40.5317 H         1 UNK         0.0595 
     97 H97        24.0992  -24.9333  -41.8230 H         1 UNK         0.0839 
     98 H98        23.8549  -24.8500  -40.0870 H         1 UNK         0.0839 
     99 H99        22.9874  -26.0513  -41.0361 H         1 UNK         0.0839 
    100 H100       23.4608  -28.1288  -41.8858 H         1 UNK         0.2998 
    101 H101       25.2839  -28.8964  -44.1248 H         1 UNK         0.0822 
    102 H102       23.2259  -29.8707  -45.1037 H         1 UNK         0.0787 
    103 H103       22.9571  -28.1807  -44.7113 H         1 UNK         0.0787 
    104 H104       22.3058  -29.4456  -43.6702 H         1 UNK         0.0787 
    105 H105       24.0052  -29.9874  -41.1101 H         1 UNK         0.3055 
    106 H106       24.2763  -31.7728  -39.8156 H         1 UNK         0.1106 
    107 H107       26.6969  -31.6264  -40.4432 H         1 UNK         0.0828 
    108 H108       26.1926  -33.2628  -40.0605 H         1 UNK         0.0828 
    109 H109       26.4202  -32.7940  -41.7355 H         1 UNK         0.0828 
    110 H110       22.4781  -31.8795  -42.3334 H         1 UNK         0.2931 
    111 H111       21.9923  -34.7287  -42.6341 H         1 UNK         0.0412 
    112 H112       19.7827  -35.7047  -42.1499 H         1 UNK         0.3472 
    113 H113       19.0473  -35.2391  -40.6390 H         1 UNK         0.3472 
    114 H114       20.0917  -34.0553  -44.0604 H         1 UNK         0.0970 
    115 H115       21.5806  -33.3228  -44.5575 H         1 UNK         0.0970 
    116 H116       18.1523  -32.6164  -44.7582 H         1 UNK         0.0612 
    117 H117       18.0376  -32.7112  -43.0133 H         1 UNK         0.0612 
@<TRIPOS>BOND
     1    1    2 1    
     2    1   62 1    
     3    1   63 1    
     4    1   64 1    
     5    2    3 2    
     6    2    4 am   BACKBONE|DICT|INTERRES
     7    4    5 1    
     8    4   65 1    
     9    5    6 1    
    10    5   25 1    
    11    5   66 1    
    12    6    7 1    
    13    6   67 1    
    14    6   68 1    
    15    7    8 1    
    16    8    9 1    
    17    8   69 1    
    18    8   70 1    
    19    9   10 ar   
    20    9   14 ar   
    21   10   11 ar   
    22   10   71 1    
    23   11   12 ar   
    24   11   61 1    
    25   12   13 ar   
    26   12   72 1    
    27   13   14 ar   
    28   13   15 1    
    29   14   73 1    
    30   15   16 1    
    31   15   74 1    
    32   15   75 1    
    33   16   17 1    
    34   17   18 1    
    35   17   76 1    
    36   17   77 1    
    37   18   19 1    
    38   18   27 1    
    39   18   78 1    
    40   19   20 am   BACKBONE|DICT|INTERRES
    41   19   79 1    
    42   20   21 2    
    43   20   22 1    
    44   22   23 1    
    45   22   24 1    
    46   22   80 1    
    47   23   81 1    
    48   23   82 1    
    49   23   83 1    
    50   24   25 am   BACKBONE|DICT|INTERRES
    51   24   84 1    
    52   25   26 2    
    53   27   28 2    
    54   27   29 am   BACKBONE|DICT|INTERRES
    55   29   30 1    
    56   29   85 1    
    57   30   31 1    
    58   30   32 1    
    59   30   86 1    
    60   31   87 1    
    61   31   88 1    
    62   31   89 1    
    63   32   33 2    
    64   32   34 am   BACKBONE|DICT|INTERRES
    65   34   35 1    
    66   34   90 1    
    67   35   36 1    
    68   35   37 1    
    69   35   91 1    
    70   36   92 1    
    71   36   93 1    
    72   36   94 1    
    73   37   38 2    
    74   37   39 am   BACKBONE|DICT|INTERRES
    75   39   40 1    
    76   39   95 1    
    77   40   41 1    
    78   40   42 1    
    79   40   96 1    
    80   41   97 1    
    81   41   98 1    
    82   41   99 1    
    83   42   43 2    
    84   42   44 am   BACKBONE|DICT|INTERRES
    85   44   45 1    
    86   44  100 1    
    87   45   46 1    
    88   45   47 1    
    89   45  101 1    
    90   46  102 1    
    91   46  103 1    
    92   46  104 1    
    93   47   48 2    
    94   47   49 am   BACKBONE|DICT|INTERRES
    95   49   50 1    
    96   49  105 1    
    97   50   51 1    
    98   50   52 1    
    99   50  106 1    
   100   51  107 1    
   101   51  108 1    
   102   51  109 1    
   103   52   53 2    
   104   52   54 am   BACKBONE|DICT|INTERRES
   105   54   55 1    
   106   54  110 1    
   107   55   56 1    
   108   55   59 1    
   109   55  111 1    
   110   56   57 am   BACKBONE|DICT|INTERRES
   111   56   58 2    
   112   57  112 1    
   113   57  113 1    
   114   59   60 1    
   115   59  114 1    
   116   59  115 1    
   117   60   61 1    
   118   61  116 1    
   119   61  117 1    
@<TRIPOS>SUBSTRUCTURE
     1 UNK         1 GROUP             0       ****    0 ROOT    
