@<TRIPOS>MOLECULE
3R8
117   119    1
SMALL
USER_CHARGES


@<TRIPOS>ATOM
      1 CA         19.0750  -22.2817  -41.5385 C.3       0 UNK        -0.2013 
      2 C          18.7994  -22.8229  -42.9334 C.2       0 UNK         0.4866 
      3 O          19.1213  -22.1636  -43.9225 O.2       0 UNK        -0.5176 
      4 N          18.1965  -24.0147  -43.0176 N.am      1 UNK        -0.4884 
      5 CA         17.9230  -24.7536  -44.2546 C.3       1 UNK         0.0853 
      6 C6         16.9144  -25.9268  -44.0530 C.3       10 UNK        -0.0849 
      7 S7         16.9210  -26.6941  -42.3918 S.3       10 UNK        -0.2776 
      8 C8         15.7167  -28.0425  -42.5849 C.3       10 UNK         0.0316 
      9 C9         16.4008  -29.3135  -43.0576 C.ar      10 UNK        -0.0863 
     10 C10        17.0546  -30.1372  -42.1353 C.ar      10 UNK        -0.1009 
     11 C11        17.7156  -31.2931  -42.5595 C.ar      10 UNK        -0.0712 
     12 C12        17.6978  -31.6336  -43.9147 C.ar      10 UNK        -0.0894 
     13 C13        17.0777  -30.7989  -44.8487 C.ar      10 UNK        -0.0745 
     14 C14        16.4111  -29.6504  -44.4137 C.ar      10 UNK        -0.0972 
     15 C15        17.2098  -31.0946  -46.3348 C.3       10 UNK         0.0209 
     16 S16        18.3648  -29.9400  -47.1531 S.3       10 UNK        -0.2568 
     17 C17        19.8173  -29.9835  -46.0407 C.3       10 UNK        -0.0983 
     18 CA         20.9383  -28.9957  -46.4470 C.3       3 UNK         0.0876 
     19 N          20.4159  -27.6348  -46.6122 N.am      3 UNK        -0.4424 
     20 C          21.0400  -26.6263  -47.2300 C.2       2 UNK         0.4918 
     21 O          22.1330  -26.7419  -47.7843 O.2       2 UNK        -0.4875 
     22 CA         20.3506  -25.2494  -47.2145 C.3       2 UNK         0.0481 
     23 CB         19.9026  -24.8642  -48.6343 C.3       2 UNK        -0.1831 
     24 N          19.2047  -25.1104  -46.3043 N.am      2 UNK        -0.4498 
     25 C          19.2270  -25.1878  -44.9640 C.2       1 UNK         0.5027 
     26 O          20.2032  -25.5704  -44.3096 O.2       1 UNK        -0.4969 
     27 C          22.1106  -29.0791  -45.4367 C.2       3 UNK         0.5005 
     28 O          22.7010  -30.1527  -45.3163 O.2       3 UNK        -0.5279 
     29 N          22.4081  -27.9696  -44.7373 N.am      4 UNK        -0.4463 
     30 CA         23.3622  -27.7883  -43.6367 C.3       4 UNK         0.0283 
     31 CB         24.7332  -28.4514  -43.8914 C.3       4 UNK        -0.1875 
     32 C          22.7094  -28.1975  -42.3099 C.2       4 UNK         0.4949 
     33 O          23.0670  -29.2164  -41.7196 O.2       4 UNK        -0.5039 
     34 N          21.7402  -27.3738  -41.8868 N.am      5 UNK        -0.4663 
     35 CA         20.8599  -27.5500  -40.7243 C.3       5 UNK         0.0242 
     36 CB         20.0000  -26.2845  -40.5876 C.3       5 UNK        -0.1982 
     37 C          21.5530  -27.8302  -39.3785 C.2       5 UNK         0.5017 
     38 O          20.9397  -28.4430  -38.5030 O.2       5 UNK        -0.5012 
     39 N          22.8008  -27.3691  -39.2210 N.am      6 UNK        -0.4439 
     40 CA         23.6357  -27.5372  -38.0296 C.3       6 UNK         0.0297 
     41 CB         24.7582  -26.4830  -38.0600 C.3       6 UNK        -0.2006 
     42 C          24.1786  -28.9747  -37.8997 C.2       6 UNK         0.4892 
     43 O          25.3894  -29.1851  -37.9848 O.2       6 UNK        -0.5089 
     44 N          23.2636  -29.9394  -37.7295 N.am      7 UNK        -0.4243 
     45 CA         23.4451  -31.3882  -37.5390 C.3       7 UNK         0.0196 
     46 CB         24.2526  -31.6802  -36.2592 C.3       7 UNK        -0.2007 
     47 C          24.0299  -32.1583  -38.7396 C.2       7 UNK         0.5020 
     48 O          23.7377  -33.3465  -38.8805 O.2       7 UNK        -0.5147 
     49 N          24.8239  -31.4921  -39.5868 N.am      8 UNK        -0.4734 
     50 CA         25.4953  -32.0426  -40.7693 C.3       8 UNK         0.0238 
     51 CB         26.3706  -30.9484  -41.3994 C.3       8 UNK        -0.1912 
     52 C          24.5495  -32.6574  -41.8169 C.2       8 UNK         0.5038 
     53 O          24.9680  -33.5639  -42.5388 O.2       8 UNK        -0.5046 
     54 N          23.2989  -32.1826  -41.8616 N.am      9 UNK        -0.4200 
     55 CA         22.2068  -32.7521  -42.6594 C.3       9 UNK         0.0839 
     56 C          21.7493  -34.1833  -42.2453 C.2       9 UNK         0.5513 
     57 N          22.1308  -34.7014  -41.0825 N.am      9 UNK        -0.7519 
     58 O          21.0375  -34.8380  -43.0026 O.2       9 UNK        -0.4960 
     59 C59        21.0150  -31.7687  -42.7690 C.3       10 UNK        -0.0876 
     60 S60        20.1273  -31.4584  -41.1990 S.3       10 UNK        -0.2414 
     61 C61        18.4787  -32.1507  -41.5590 C.3       10 UNK         0.0169 
     62 H62        20.1442  -22.1195  -41.4045 H         1 UNK         0.0903 
     63 H63        18.5647  -21.3293  -41.3972 H         1 UNK         0.0903 
     64 H64        18.7369  -22.9669  -40.7612 H         1 UNK         0.0903 
     65 H65        17.9564  -24.5187  -42.1748 H         1 UNK         0.3096 
     66 H66        17.4395  -24.0362  -44.9223 H         1 UNK         0.1121 
     67 H67        17.0484  -26.7059  -44.8061 H         1 UNK         0.0849 
     68 H68        15.9044  -25.5463  -44.2139 H         1 UNK         0.0849 
     69 H69        15.2350  -28.2252  -41.6231 H         1 UNK         0.0865 
     70 H70        14.9214  -27.7458  -43.2705 H         1 UNK         0.0865 
     71 H71        17.0732  -29.8635  -41.0890 H         1 UNK         0.1346 
     72 H72        18.2125  -32.5226  -44.2521 H         1 UNK         0.1412 
     73 H73        15.9378  -29.0004  -45.1370 H         1 UNK         0.1426 
     74 H74        16.2316  -31.0218  -46.8121 H         1 UNK         0.0716 
     75 H75        17.5565  -32.1164  -46.4970 H         1 UNK         0.0716 
     76 H76        20.1943  -31.0079  -46.0179 H         1 UNK         0.0695 
     77 H77        19.4913  -29.7501  -45.0258 H         1 UNK         0.0695 
     78 H78        21.3364  -29.3161  -47.4123 H         1 UNK         0.0983 
     79 H79        19.5115  -27.4569  -46.2020 H         1 UNK         0.3095 
     80 H80        21.1038  -24.5278  -46.8920 H         1 UNK         0.0454 
     81 H81        20.7365  -24.9108  -49.3364 H         1 UNK         0.0851 
     82 H82        19.5151  -23.8459  -48.6682 H         1 UNK         0.0851 
     83 H83        19.1265  -25.5336  -49.0078 H         1 UNK         0.0851 
     84 H84        18.3437  -24.8171  -46.7441 H         1 UNK         0.2976 
     85 H85        21.8141  -27.1677  -44.9107 H         1 UNK         0.3116 
     86 H86        23.5450  -26.7139  -43.5801 H         1 UNK         0.0646 
     87 H87        25.4569  -28.1317  -43.1413 H         1 UNK         0.0847 
     88 H88        24.6826  -29.5394  -43.8424 H         1 UNK         0.0847 
     89 H89        25.1338  -28.1765  -44.8668 H         1 UNK         0.0847 
     90 H90        21.5136  -26.5833  -42.4764 H         1 UNK         0.3040 
     91 H91        20.2066  -28.3973  -40.9425 H         1 UNK         0.1015 
     92 H92        19.2012  -26.4296  -39.8590 H         1 UNK         0.0786 
     93 H93        19.5362  -26.0217  -41.5357 H         1 UNK         0.0786 
     94 H94        20.5903  -25.4261  -40.2637 H         1 UNK         0.0786 
     95 H95        23.2287  -26.9130  -40.0132 H         1 UNK         0.3172 
     96 H96        23.0230  -27.3421  -37.1469 H         1 UNK         0.0595 
     97 H97        25.4057  -26.6050  -38.9294 H         1 UNK         0.0839 
     98 H98        25.3879  -26.5582  -37.1723 H         1 UNK         0.0839 
     99 H99        24.3533  -25.4711  -38.0816 H         1 UNK         0.0839 
    100 H100       22.2952  -29.6320  -37.7752 H         1 UNK         0.2998 
    101 H101       22.4399  -31.7861  -37.3897 H         1 UNK         0.0822 
    102 H102       24.2962  -32.7524  -36.0630 H         1 UNK         0.0787 
    103 H103       25.2805  -31.3243  -36.3361 H         1 UNK         0.0787 
    104 H104       23.7982  -31.2100  -35.3871 H         1 UNK         0.0787 
    105 H105       25.0444  -30.5320  -39.3410 H         1 UNK         0.3055 
    106 H106       26.1476  -32.8480  -40.4252 H         1 UNK         0.1106 
    107 H107       27.1521  -30.6222  -40.7130 H         1 UNK         0.0828 
    108 H108       26.8626  -31.3073  -42.3046 H         1 UNK         0.0828 
    109 H109       25.7789  -30.0745  -41.6701 H         1 UNK         0.0828 
    110 H110       23.0643  -31.3801  -41.2907 H         1 UNK         0.2931 
    111 H111       22.6063  -32.8590  -43.6699 H         1 UNK         0.0412 
    112 H112       22.7061  -34.1688  -40.4390 H         1 UNK         0.3472 
    113 H113       21.8281  -35.6293  -40.8332 H         1 UNK         0.3472 
    114 H114       21.3666  -30.8065  -43.1372 H         1 UNK         0.0970 
    115 H115       20.3273  -32.1278  -43.5315 H         1 UNK         0.0970 
    116 H116       18.5846  -33.1736  -41.9242 H         1 UNK         0.0612 
    117 H117       17.9138  -32.2147  -40.6280 H         1 UNK         0.0612 
@<TRIPOS>BOND
     1    1    2 1    
     2    1   62 1    
     3    1   63 1    
     4    1   64 1    
     5    2    3 2    
     6    2    4 am   BACKBONE|DICT|INTERRES
     7    4    5 1    
     8    4   65 1    
     9    5    6 1    
    10    5   25 1    
    11    5   66 1    
    12    6    7 1    
    13    6   67 1    
    14    6   68 1    
    15    7    8 1    
    16    8    9 1    
    17    8   69 1    
    18    8   70 1    
    19    9   10 ar   
    20    9   14 ar   
    21   10   11 ar   
    22   10   71 1    
    23   11   12 ar   
    24   11   61 1    
    25   12   13 ar   
    26   12   72 1    
    27   13   14 ar   
    28   13   15 1    
    29   14   73 1    
    30   15   16 1    
    31   15   74 1    
    32   15   75 1    
    33   16   17 1    
    34   17   18 1    
    35   17   76 1    
    36   17   77 1    
    37   18   19 1    
    38   18   27 1    
    39   18   78 1    
    40   19   20 am   BACKBONE|DICT|INTERRES
    41   19   79 1    
    42   20   21 2    
    43   20   22 1    
    44   22   23 1    
    45   22   24 1    
    46   22   80 1    
    47   23   81 1    
    48   23   82 1    
    49   23   83 1    
    50   24   25 am   BACKBONE|DICT|INTERRES
    51   24   84 1    
    52   25   26 2    
    53   27   28 2    
    54   27   29 am   BACKBONE|DICT|INTERRES
    55   29   30 1    
    56   29   85 1    
    57   30   31 1    
    58   30   32 1    
    59   30   86 1    
    60   31   87 1    
    61   31   88 1    
    62   31   89 1    
    63   32   33 2    
    64   32   34 am   BACKBONE|DICT|INTERRES
    65   34   35 1    
    66   34   90 1    
    67   35   36 1    
    68   35   37 1    
    69   35   91 1    
    70   36   92 1    
    71   36   93 1    
    72   36   94 1    
    73   37   38 2    
    74   37   39 am   BACKBONE|DICT|INTERRES
    75   39   40 1    
    76   39   95 1    
    77   40   41 1    
    78   40   42 1    
    79   40   96 1    
    80   41   97 1    
    81   41   98 1    
    82   41   99 1    
    83   42   43 2    
    84   42   44 am   BACKBONE|DICT|INTERRES
    85   44   45 1    
    86   44  100 1    
    87   45   46 1    
    88   45   47 1    
    89   45  101 1    
    90   46  102 1    
    91   46  103 1    
    92   46  104 1    
    93   47   48 2    
    94   47   49 am   BACKBONE|DICT|INTERRES
    95   49   50 1    
    96   49  105 1    
    97   50   51 1    
    98   50   52 1    
    99   50  106 1    
   100   51  107 1    
   101   51  108 1    
   102   51  109 1    
   103   52   53 2    
   104   52   54 am   BACKBONE|DICT|INTERRES
   105   54   55 1    
   106   54  110 1    
   107   55   56 1    
   108   55   59 1    
   109   55  111 1    
   110   56   57 am   BACKBONE|DICT|INTERRES
   111   56   58 2    
   112   57  112 1    
   113   57  113 1    
   114   59   60 1    
   115   59  114 1    
   116   59  115 1    
   117   60   61 1    
   118   61  116 1    
   119   61  117 1    
@<TRIPOS>SUBSTRUCTURE
     1 UNK         1 GROUP             0       ****    0 ROOT    
