@<TRIPOS>MOLECULE
3R8
117   119    1
SMALL
USER_CHARGES


@<TRIPOS>ATOM
      1 CA         13.5891  -22.7327  -47.2464 C.3       0 UNK        -0.2013 
      2 C          15.0102  -23.0106  -46.7793 C.2       0 UNK         0.4866 
      3 O          15.9543  -22.4176  -47.3018 O.2       0 UNK        -0.5176 
      4 N          15.1704  -23.9058  -45.8003 N.am      1 UNK        -0.4884 
      5 CA         16.4455  -24.2858  -45.1963 C.3       1 UNK         0.0853 
      6 C6         17.1856  -25.3536  -46.0425 C.3       10 UNK        -0.0849 
      7 S7         18.9761  -25.4334  -45.6943 S.3       10 UNK        -0.2776 
      8 C8         19.5097  -26.7216  -46.8728 C.3       10 UNK         0.0316 
      9 C9         19.5627  -28.0906  -46.2098 C.ar      10 UNK        -0.0863 
     10 C10        20.7866  -28.6407  -45.8188 C.ar      10 UNK        -0.1009 
     11 C11        20.8496  -29.8730  -45.1575 C.ar      10 UNK        -0.0712 
     12 C12        19.6532  -30.5565  -44.8921 C.ar      10 UNK        -0.0894 
     13 C13        18.4215  -30.0018  -45.2543 C.ar      10 UNK        -0.0745 
     14 C14        18.3860  -28.7933  -45.9512 C.ar      10 UNK        -0.0972 
     15 C15        17.1187  -30.6368  -44.7951 C.3       10 UNK         0.0209 
     16 S16        16.2982  -29.5869  -43.5429 S.3       10 UNK        -0.2568 
     17 C17        17.5010  -29.6180  -42.1672 C.3       10 UNK        -0.0983 
     18 CA         18.5569  -28.4736  -42.2265 C.3       3 UNK         0.0876 
     19 N          17.9948  -27.1176  -42.2430 N.am      3 UNK        -0.4424 
     20 C          17.3533  -26.4986  -41.2416 C.2       2 UNK         0.4918 
     21 O          17.0724  -27.0307  -40.1676 O.2       2 UNK        -0.4875 
     22 CA         17.0006  -25.0133  -41.4514 C.3       2 UNK         0.0481 
     23 CB         17.9213  -24.1278  -40.5945 C.3       2 UNK        -0.1831 
     24 N          17.0968  -24.5812  -42.8506 N.am      2 UNK        -0.4498 
     25 C          16.1455  -24.7818  -43.7715 C.2       1 UNK         0.5027 
     26 O          15.0694  -25.3401  -43.5376 O.2       1 UNK        -0.4969 
     27 C          19.6736  -28.6244  -41.1700 C.2       3 UNK         0.5005 
     28 O          19.7249  -29.6282  -40.4590 O.2       3 UNK        -0.5279 
     29 N          20.5525  -27.6157  -41.0908 N.am      4 UNK        -0.4463 
     30 CA         21.6809  -27.5542  -40.1576 C.3       4 UNK         0.0283 
     31 CB         21.2773  -26.7167  -38.9288 C.3       4 UNK        -0.1875 
     32 C          22.9555  -27.0207  -40.8362 C.2       4 UNK         0.4949 
     33 O          23.8577  -26.5473  -40.1452 O.2       4 UNK        -0.5039 
     34 N          23.0185  -27.0948  -42.1749 N.am      5 UNK        -0.4663 
     35 CA         24.1481  -26.6109  -42.9806 C.3       5 UNK         0.0242 
     36 CB         23.6863  -26.4290  -44.4350 C.3       5 UNK        -0.1982 
     37 C          25.3851  -27.5281  -42.9295 C.2       5 UNK         0.5017 
     38 O          26.4722  -27.0916  -43.3095 O.2       5 UNK        -0.5012 
     39 N          25.2008  -28.7720  -42.4764 N.am      6 UNK        -0.4439 
     40 CA         26.2337  -29.7796  -42.2770 C.3       6 UNK         0.0297 
     41 CB         26.3234  -30.6805  -43.5209 C.3       6 UNK        -0.2006 
     42 C          25.8493  -30.5937  -41.0398 C.2       6 UNK         0.4892 
     43 O          24.6571  -30.7367  -40.7587 O.2       6 UNK        -0.5089 
     44 N          26.8556  -31.1406  -40.3458 N.am      7 UNK        -0.4243 
     45 CA         26.6949  -31.9306  -39.1177 C.3       7 UNK         0.0196 
     46 CB         28.0798  -32.1956  -38.5045 C.3       7 UNK        -0.2007 
     47 C          25.9301  -33.2540  -39.3085 C.2       7 UNK         0.5020 
     48 O          25.3681  -33.7701  -38.3426 O.2       7 UNK        -0.5147 
     49 N          25.9177  -33.7780  -40.5415 N.am      8 UNK        -0.4734 
     50 CA         25.1576  -34.9674  -40.9312 C.3       8 UNK         0.0238 
     51 CB         25.7221  -35.5089  -42.2552 C.3       8 UNK        -0.1912 
     52 C          23.6443  -34.7106  -41.0613 C.2       8 UNK         0.5038 
     53 O          22.8725  -35.6675  -40.9809 O.2       8 UNK        -0.5046 
     54 N          23.2474  -33.4502  -41.2797 N.am      9 UNK        -0.4200 
     55 CA         21.8473  -33.0308  -41.4162 C.3       9 UNK         0.0839 
     56 C          21.1744  -32.8457  -40.0310 C.2       9 UNK         0.5513 
     57 N          19.8948  -33.1757  -39.9185 N.am      9 UNK        -0.7519 
     58 O          21.7892  -32.3916  -39.0683 O.2       9 UNK        -0.4960 
     59 C59        21.7178  -31.7559  -42.2884 C.3       10 UNK        -0.0876 
     60 S60        22.2902  -32.0571  -43.9974 S.3       10 UNK        -0.2414 
     61 C61        22.2292  -30.3857  -44.7294 C.3       10 UNK         0.0169 
     62 H62        12.8570  -23.3289  -46.7020 H         1 UNK         0.0903 
     63 H63        13.3452  -21.6806  -47.1011 H         1 UNK         0.0903 
     64 H64        13.4914  -22.9620  -48.3072 H         1 UNK         0.0903 
     65 H65        14.3695  -24.3478  -45.3632 H         1 UNK         0.3096 
     66 H66        17.0626  -23.3870  -45.1208 H         1 UNK         0.1121 
     67 H67        17.0826  -25.1188  -47.1033 H         1 UNK         0.0849 
     68 H68        16.7268  -26.3332  -45.9102 H         1 UNK         0.0849 
     69 H69        18.8455  -26.7490  -47.7380 H         1 UNK         0.0865 
     70 H70        20.4939  -26.4520  -47.2590 H         1 UNK         0.0865 
     71 H71        21.6973  -28.0985  -46.0265 H         1 UNK         0.1346 
     72 H72        19.6601  -31.4983  -44.3648 H         1 UNK         0.1412 
     73 H73        17.4309  -28.3759  -46.2330 H         1 UNK         0.1426 
     74 H74        17.2865  -31.6333  -44.3837 H         1 UNK         0.0716 
     75 H75        16.4536  -30.7609  -45.6508 H         1 UNK         0.0716 
     76 H76        17.9905  -30.5937  -42.1727 H         1 UNK         0.0695 
     77 H77        16.9445  -29.5695  -41.2300 H         1 UNK         0.0695 
     78 H78        19.0862  -28.5559  -43.1711 H         1 UNK         0.0983 
     79 H79        18.1472  -26.5948  -43.0932 H         1 UNK         0.3095 
     80 H80        15.9752  -24.8676  -41.1050 H         1 UNK         0.0454 
     81 H81        18.9676  -24.2268  -40.8859 H         1 UNK         0.0851 
     82 H82        17.8519  -24.3969  -39.5395 H         1 UNK         0.0851 
     83 H83        17.6477  -23.0757  -40.6749 H         1 UNK         0.0851 
     84 H84        17.9512  -24.1158  -43.1253 H         1 UNK         0.2976 
     85 H85        20.4238  -26.8107  -41.6884 H         1 UNK         0.3116 
     86 H86        21.9319  -28.5610  -39.8159 H         1 UNK         0.0646 
     87 H87        21.0607  -25.6830  -39.2004 H         1 UNK         0.0847 
     88 H88        22.0726  -26.7005  -38.1826 H         1 UNK         0.0847 
     89 H89        20.3917  -27.1280  -38.4441 H         1 UNK         0.0847 
     90 H90        22.2508  -27.5170  -42.6751 H         1 UNK         0.3040 
     91 H91        24.4506  -25.6349  -42.5937 H         1 UNK         0.1015 
     92 H92        23.5007  -27.3886  -44.9153 H         1 UNK         0.0786 
     93 H93        24.4523  -25.9207  -45.0225 H         1 UNK         0.0786 
     94 H94        22.7779  -25.8295  -44.5011 H         1 UNK         0.0786 
     95 H95        24.2958  -29.0297  -42.1048 H         1 UNK         0.3172 
     96 H96        27.1969  -29.2972  -42.0967 H         1 UNK         0.0595 
     97 H97        25.3817  -31.1964  -43.7145 H         1 UNK         0.0839 
     98 H98        27.0957  -31.4413  -43.4015 H         1 UNK         0.0839 
     99 H99        26.5748  -30.1023  -44.4102 H         1 UNK         0.0839 
    100 H100       27.8034  -30.9821  -40.6582 H         1 UNK         0.2998 
    101 H101       26.1178  -31.3284  -38.4124 H         1 UNK         0.0822 
    102 H102       27.9936  -32.7562  -37.5724 H         1 UNK         0.0787 
    103 H103       28.7143  -32.7759  -39.1758 H         1 UNK         0.0787 
    104 H104       28.5970  -31.2644  -38.2722 H         1 UNK         0.0787 
    105 H105       26.4239  -33.2965  -41.2702 H         1 UNK         0.3055 
    106 H106       25.2917  -35.7319  -40.1622 H         1 UNK         0.1106 
    107 H107       25.6178  -34.7859  -43.0654 H         1 UNK         0.0828 
    108 H108       25.1984  -36.4162  -42.5602 H         1 UNK         0.0828 
    109 H109       26.7782  -35.7631  -42.1633 H         1 UNK         0.0828 
    110 H110       23.9279  -32.7020  -41.2428 H         1 UNK         0.2931 
    111 H111       21.3098  -33.8282  -41.9348 H         1 UNK         0.0412 
    112 H112       19.3796  -33.5470  -40.7011 H         1 UNK         0.3472 
    113 H113       19.4336  -33.0447  -39.0318 H         1 UNK         0.3472 
    114 H114       20.6787  -31.4279  -42.3218 H         1 UNK         0.0970 
    115 H115       22.2805  -30.9293  -41.8524 H         1 UNK         0.0970 
    116 H116       22.6721  -29.6799  -44.0260 H         1 UNK         0.0612 
    117 H117       22.8790  -30.3909  -45.6057 H         1 UNK         0.0612 
@<TRIPOS>BOND
     1    1    2 1    
     2    1   62 1    
     3    1   63 1    
     4    1   64 1    
     5    2    3 2    
     6    2    4 am   BACKBONE|DICT|INTERRES
     7    4    5 1    
     8    4   65 1    
     9    5    6 1    
    10    5   25 1    
    11    5   66 1    
    12    6    7 1    
    13    6   67 1    
    14    6   68 1    
    15    7    8 1    
    16    8    9 1    
    17    8   69 1    
    18    8   70 1    
    19    9   10 ar   
    20    9   14 ar   
    21   10   11 ar   
    22   10   71 1    
    23   11   12 ar   
    24   11   61 1    
    25   12   13 ar   
    26   12   72 1    
    27   13   14 ar   
    28   13   15 1    
    29   14   73 1    
    30   15   16 1    
    31   15   74 1    
    32   15   75 1    
    33   16   17 1    
    34   17   18 1    
    35   17   76 1    
    36   17   77 1    
    37   18   19 1    
    38   18   27 1    
    39   18   78 1    
    40   19   20 am   BACKBONE|DICT|INTERRES
    41   19   79 1    
    42   20   21 2    
    43   20   22 1    
    44   22   23 1    
    45   22   24 1    
    46   22   80 1    
    47   23   81 1    
    48   23   82 1    
    49   23   83 1    
    50   24   25 am   BACKBONE|DICT|INTERRES
    51   24   84 1    
    52   25   26 2    
    53   27   28 2    
    54   27   29 am   BACKBONE|DICT|INTERRES
    55   29   30 1    
    56   29   85 1    
    57   30   31 1    
    58   30   32 1    
    59   30   86 1    
    60   31   87 1    
    61   31   88 1    
    62   31   89 1    
    63   32   33 2    
    64   32   34 am   BACKBONE|DICT|INTERRES
    65   34   35 1    
    66   34   90 1    
    67   35   36 1    
    68   35   37 1    
    69   35   91 1    
    70   36   92 1    
    71   36   93 1    
    72   36   94 1    
    73   37   38 2    
    74   37   39 am   BACKBONE|DICT|INTERRES
    75   39   40 1    
    76   39   95 1    
    77   40   41 1    
    78   40   42 1    
    79   40   96 1    
    80   41   97 1    
    81   41   98 1    
    82   41   99 1    
    83   42   43 2    
    84   42   44 am   BACKBONE|DICT|INTERRES
    85   44   45 1    
    86   44  100 1    
    87   45   46 1    
    88   45   47 1    
    89   45  101 1    
    90   46  102 1    
    91   46  103 1    
    92   46  104 1    
    93   47   48 2    
    94   47   49 am   BACKBONE|DICT|INTERRES
    95   49   50 1    
    96   49  105 1    
    97   50   51 1    
    98   50   52 1    
    99   50  106 1    
   100   51  107 1    
   101   51  108 1    
   102   51  109 1    
   103   52   53 2    
   104   52   54 am   BACKBONE|DICT|INTERRES
   105   54   55 1    
   106   54  110 1    
   107   55   56 1    
   108   55   59 1    
   109   55  111 1    
   110   56   57 am   BACKBONE|DICT|INTERRES
   111   56   58 2    
   112   57  112 1    
   113   57  113 1    
   114   59   60 1    
   115   59  114 1    
   116   59  115 1    
   117   60   61 1    
   118   61  116 1    
   119   61  117 1    
@<TRIPOS>SUBSTRUCTURE
     1 UNK         1 GROUP             0       ****    0 ROOT    
