@<TRIPOS>MOLECULE
3R8
117   119    1
SMALL
USER_CHARGES


@<TRIPOS>ATOM
      1 CA         17.5297  -22.9559  -43.1012 C.3       0 UNK        -0.2013 
      2 C          17.7204  -24.3443  -43.6912 C.2       0 UNK         0.4866 
      3 O          18.0761  -25.2748  -42.9654 O.2       0 UNK        -0.5176 
      4 N          17.4844  -24.4768  -45.0051 N.am      1 UNK        -0.4884 
      5 CA         17.5397  -25.6958  -45.8260 C.3       1 UNK         0.0853 
      6 C6         16.4793  -26.7488  -45.4083 C.3       10 UNK        -0.0849 
      7 S7         16.2318  -28.0431  -46.6745 S.3       10 UNK        -0.2776 
      8 C8         15.4727  -29.3889  -45.7085 C.3       10 UNK         0.0316 
      9 C9         16.4120  -29.9364  -44.6429 C.ar      10 UNK        -0.0863 
     10 C10        17.4687  -30.7816  -44.9945 C.ar      10 UNK        -0.1009 
     11 C11        18.3399  -31.2741  -44.0167 C.ar      10 UNK        -0.0712 
     12 C12        18.1404  -30.9223  -42.6780 C.ar      10 UNK        -0.0894 
     13 C13        17.0842  -30.0795  -42.3153 C.ar      10 UNK        -0.0745 
     14 C14        16.2222  -29.5953  -43.3014 C.ar      10 UNK        -0.0972 
     15 C15        16.8554  -29.6897  -40.8629 C.3       10 UNK         0.0209 
     16 S16        17.7081  -28.1367  -40.4398 S.3       10 UNK        -0.2568 
     17 C17        19.3963  -28.7459  -40.1201 C.3       10 UNK        -0.0983 
     18 CA         20.5168  -27.9842  -40.8680 C.3       3 UNK         0.0876 
     19 N          20.2753  -27.8217  -42.3104 N.am      3 UNK        -0.4424 
     20 C          21.2200  -27.4628  -43.1967 C.2       2 UNK         0.4918 
     21 O          22.3715  -27.1672  -42.8784 O.2       2 UNK        -0.4875 
     22 CA         20.8216  -27.3636  -44.6720 C.3       2 UNK         0.0481 
     23 CB         20.9052  -28.7386  -45.3567 C.3       2 UNK        -0.1831 
     24 N          19.4925  -26.7774  -44.8134 N.am      2 UNK        -0.4498 
     25 C          18.9631  -26.2854  -45.9370 C.2       1 UNK         0.5027 
     26 O          19.5462  -26.2667  -47.0225 O.2       1 UNK        -0.4969 
     27 C          20.9524  -26.7005  -40.1321 C.2       3 UNK         0.5005 
     28 O          21.5776  -26.8038  -39.0753 O.2       3 UNK        -0.5279 
     29 N          20.6824  -25.5247  -40.7169 N.am      4 UNK        -0.4463 
     30 CA         21.2372  -24.2415  -40.2782 C.3       4 UNK         0.0283 
     31 CB         20.5207  -23.1027  -41.0181 C.3       4 UNK        -0.1875 
     32 C          22.7646  -24.1287  -40.4704 C.2       4 UNK         0.4949 
     33 O          23.3971  -23.3612  -39.7446 O.2       4 UNK        -0.5039 
     34 N          23.3278  -24.8750  -41.4322 N.am      5 UNK        -0.4663 
     35 CA         24.7623  -24.9257  -41.7184 C.3       5 UNK         0.0242 
     36 CB         24.9869  -24.9230  -43.2404 C.3       5 UNK        -0.1982 
     37 C          25.4153  -26.1553  -41.0698 C.2       5 UNK         0.5017 
     38 O          26.4341  -26.0034  -40.3944 O.2       5 UNK        -0.5012 
     39 N          24.8266  -27.3420  -41.2709 N.am      6 UNK        -0.4439 
     40 CA         25.2923  -28.6111  -40.7118 C.3       6 UNK         0.0297 
     41 CB         26.4137  -29.2052  -41.5836 C.3       6 UNK        -0.2006 
     42 C          24.1014  -29.5674  -40.6161 C.2       6 UNK         0.4892 
     43 O          23.4194  -29.7758  -41.6189 O.2       6 UNK        -0.5089 
     44 N          23.8650  -30.1143  -39.4159 N.am      7 UNK        -0.4243 
     45 CA         22.6907  -30.9253  -39.0704 C.3       7 UNK         0.0196 
     46 CB         22.6995  -31.2088  -37.5596 C.3       7 UNK        -0.2007 
     47 C          22.5467  -32.2378  -39.8602 C.2       7 UNK         0.5020 
     48 O          21.4194  -32.6730  -40.0964 O.2       7 UNK        -0.5147 
     49 N          23.6744  -32.8529  -40.2373 N.am      8 UNK        -0.4734 
     50 CA         23.7098  -34.0762  -41.0380 C.3       8 UNK         0.0238 
     51 CB         25.0725  -34.7656  -40.8539 C.3       8 UNK        -0.1912 
     52 C          23.4527  -33.7565  -42.5188 C.2       8 UNK         0.5038 
     53 O          24.1821  -32.9454  -43.0936 O.2       8 UNK        -0.5046 
     54 N          22.4469  -34.4128  -43.1101 N.am      9 UNK        -0.4200 
     55 CA         22.0847  -34.2707  -44.5309 C.3       9 UNK         0.0839 
     56 C          23.0593  -34.9715  -45.5231 C.2       9 UNK         0.5513 
     57 N          23.9834  -35.8122  -45.0730 N.am      9 UNK        -0.7519 
     58 O          22.9752  -34.7432  -46.7270 O.2       9 UNK        -0.4960 
     59 C59        20.6182  -34.7019  -44.8083 C.3       10 UNK        -0.0876 
     60 S60        19.3703  -33.8456  -43.7862 S.3       10 UNK        -0.2414 
     61 C61        19.5233  -32.1455  -44.4137 C.3       10 UNK         0.0169 
     62 H62        16.7979  -22.3788  -43.6661 H         1 UNK         0.0903 
     63 H63        17.1764  -23.0267  -42.0727 H         1 UNK         0.0903 
     64 H64        18.4720  -22.4100  -43.1049 H         1 UNK         0.0903 
     65 H65        17.2348  -23.6451  -45.5237 H         1 UNK         0.3096 
     66 H66        17.2763  -25.3634  -46.8320 H         1 UNK         0.1121 
     67 H67        15.5167  -26.2608  -45.2482 H         1 UNK         0.0849 
     68 H68        16.7470  -27.1969  -44.4520 H         1 UNK         0.0849 
     69 H69        14.5442  -29.0305  -45.2609 H         1 UNK         0.0865 
     70 H70        15.1893  -30.1945  -46.3874 H         1 UNK         0.0865 
     71 H71        17.6208  -31.0398  -46.0338 H         1 UNK         0.1346 
     72 H72        18.8118  -31.3107  -41.9248 H         1 UNK         0.1412 
     73 H73        15.4071  -28.9409  -43.0228 H         1 UNK         0.1426 
     74 H74        17.1752  -30.4897  -40.1934 H         1 UNK         0.0716 
     75 H75        15.7873  -29.5589  -40.6823 H         1 UNK         0.0716 
     76 H76        19.4571  -29.7991  -40.3900 H         1 UNK         0.0695 
     77 H77        19.5647  -28.7310  -39.0413 H         1 UNK         0.0695 
     78 H78        21.3909  -28.6252  -40.8009 H         1 UNK         0.0983 
     79 H79        19.3456  -28.0568  -42.6276 H         1 UNK         0.3095 
     80 H80        21.5386  -26.6944  -45.1522 H         1 UNK         0.0454 
     81 H81        21.8614  -29.2234  -45.1542 H         1 UNK         0.0851 
     82 H82        20.8089  -28.6541  -46.4389 H         1 UNK         0.0851 
     83 H83        20.1181  -29.4013  -45.0047 H         1 UNK         0.0851 
     84 H84        18.9774  -26.5843  -43.9574 H         1 UNK         0.2976 
     85 H85        20.1139  -25.5237  -41.5539 H         1 UNK         0.3116 
     86 H86        21.0331  -24.1346  -39.2107 H         1 UNK         0.0646 
     87 H87        20.6604  -23.1729  -42.0974 H         1 UNK         0.0847 
     88 H88        20.9013  -22.1303  -40.7022 H         1 UNK         0.0847 
     89 H89        19.4508  -23.1116  -40.8113 H         1 UNK         0.0847 
     90 H90        22.7483  -25.5245  -41.9545 H         1 UNK         0.3040 
     91 H91        25.2540  -24.0387  -41.3120 H         1 UNK         0.1015 
     92 H92        24.5275  -25.7846  -43.7259 H         1 UNK         0.0786 
     93 H93        26.0517  -24.9467  -43.4760 H         1 UNK         0.0786 
     94 H94        24.5744  -24.0237  -43.6978 H         1 UNK         0.0786 
     95 H95        23.9804  -27.3964  -41.8360 H         1 UNK         0.3172 
     96 H96        25.6821  -28.4359  -39.7065 H         1 UNK         0.0595 
     97 H97        26.0774  -29.3761  -42.6072 H         1 UNK         0.0839 
     98 H98        26.7511  -30.1635  -41.1868 H         1 UNK         0.0839 
     99 H99        27.2814  -28.5465  -41.6215 H         1 UNK         0.0839 
    100 H100       24.4917  -29.8921  -38.6553 H         1 UNK         0.2998 
    101 H101       21.8052  -30.3275  -39.2878 H         1 UNK         0.0822 
    102 H102       21.8242  -31.7906  -37.2662 H         1 UNK         0.0787 
    103 H103       23.5823  -31.7750  -37.2598 H         1 UNK         0.0787 
    104 H104       22.6785  -30.2846  -36.9815 H         1 UNK         0.0787 
    105 H105       24.5572  -32.4024  -40.0454 H         1 UNK         0.3055 
    106 H106       22.9346  -34.7558  -40.6756 H         1 UNK         0.1106 
    107 H107       25.1208  -35.6933  -41.4256 H         1 UNK         0.0828 
    108 H108       25.8958  -34.1336  -41.1895 H         1 UNK         0.0828 
    109 H109       25.2501  -35.0212  -39.8091 H         1 UNK         0.0828 
    110 H110       21.8843  -35.0546  -42.5714 H         1 UNK         0.2931 
    111 H111       22.1560  -33.2084  -44.7707 H         1 UNK         0.0412 
    112 H112       24.0621  -36.0090  -44.0886 H         1 UNK         0.3472 
    113 H113       24.6086  -36.2552  -45.7282 H         1 UNK         0.3472 
    114 H114       20.5057  -35.7749  -44.6424 H         1 UNK         0.0970 
    115 H115       20.3617  -34.5361  -45.8567 H         1 UNK         0.0970 
    116 H116       19.6310  -32.1687  -45.4992 H         1 UNK         0.0612 
    117 H117       20.4394  -31.7034  -44.0191 H         1 UNK         0.0612 
@<TRIPOS>BOND
     1    1    2 1    
     2    1   62 1    
     3    1   63 1    
     4    1   64 1    
     5    2    3 2    
     6    2    4 am   BACKBONE|DICT|INTERRES
     7    4    5 1    
     8    4   65 1    
     9    5    6 1    
    10    5   25 1    
    11    5   66 1    
    12    6    7 1    
    13    6   67 1    
    14    6   68 1    
    15    7    8 1    
    16    8    9 1    
    17    8   69 1    
    18    8   70 1    
    19    9   10 ar   
    20    9   14 ar   
    21   10   11 ar   
    22   10   71 1    
    23   11   12 ar   
    24   11   61 1    
    25   12   13 ar   
    26   12   72 1    
    27   13   14 ar   
    28   13   15 1    
    29   14   73 1    
    30   15   16 1    
    31   15   74 1    
    32   15   75 1    
    33   16   17 1    
    34   17   18 1    
    35   17   76 1    
    36   17   77 1    
    37   18   19 1    
    38   18   27 1    
    39   18   78 1    
    40   19   20 am   BACKBONE|DICT|INTERRES
    41   19   79 1    
    42   20   21 2    
    43   20   22 1    
    44   22   23 1    
    45   22   24 1    
    46   22   80 1    
    47   23   81 1    
    48   23   82 1    
    49   23   83 1    
    50   24   25 am   BACKBONE|DICT|INTERRES
    51   24   84 1    
    52   25   26 2    
    53   27   28 2    
    54   27   29 am   BACKBONE|DICT|INTERRES
    55   29   30 1    
    56   29   85 1    
    57   30   31 1    
    58   30   32 1    
    59   30   86 1    
    60   31   87 1    
    61   31   88 1    
    62   31   89 1    
    63   32   33 2    
    64   32   34 am   BACKBONE|DICT|INTERRES
    65   34   35 1    
    66   34   90 1    
    67   35   36 1    
    68   35   37 1    
    69   35   91 1    
    70   36   92 1    
    71   36   93 1    
    72   36   94 1    
    73   37   38 2    
    74   37   39 am   BACKBONE|DICT|INTERRES
    75   39   40 1    
    76   39   95 1    
    77   40   41 1    
    78   40   42 1    
    79   40   96 1    
    80   41   97 1    
    81   41   98 1    
    82   41   99 1    
    83   42   43 2    
    84   42   44 am   BACKBONE|DICT|INTERRES
    85   44   45 1    
    86   44  100 1    
    87   45   46 1    
    88   45   47 1    
    89   45  101 1    
    90   46  102 1    
    91   46  103 1    
    92   46  104 1    
    93   47   48 2    
    94   47   49 am   BACKBONE|DICT|INTERRES
    95   49   50 1    
    96   49  105 1    
    97   50   51 1    
    98   50   52 1    
    99   50  106 1    
   100   51  107 1    
   101   51  108 1    
   102   51  109 1    
   103   52   53 2    
   104   52   54 am   BACKBONE|DICT|INTERRES
   105   54   55 1    
   106   54  110 1    
   107   55   56 1    
   108   55   59 1    
   109   55  111 1    
   110   56   57 am   BACKBONE|DICT|INTERRES
   111   56   58 2    
   112   57  112 1    
   113   57  113 1    
   114   59   60 1    
   115   59  114 1    
   116   59  115 1    
   117   60   61 1    
   118   61  116 1    
   119   61  117 1    
@<TRIPOS>SUBSTRUCTURE
     1 UNK         1 GROUP             0       ****    0 ROOT    
