@<TRIPOS>MOLECULE
3R8
117   119    1
SMALL
USER_CHARGES


@<TRIPOS>ATOM
      1 CA         14.3072  -22.8020  -42.0082 C.3       0 UNK        -0.2013 
      2 C          15.0927  -23.8981  -42.7125 C.2       0 UNK         0.4866 
      3 O          15.8404  -23.6111  -43.6479 O.2       0 UNK        -0.5176 
      4 N          14.9262  -25.1531  -42.2758 N.am      1 UNK        -0.4884 
      5 CA         15.6521  -26.3185  -42.7862 C.3       1 UNK         0.0853 
      6 C6         14.8717  -27.6312  -42.5022 C.3       10 UNK        -0.0849 
      7 S7         15.2371  -28.9279  -43.7284 S.3       10 UNK        -0.2776 
      8 C8         16.4861  -29.9087  -42.8329 C.3       10 UNK         0.0316 
      9 C9         17.3478  -30.7595  -43.7585 C.ar      10 UNK        -0.0863 
     10 C10        17.6605  -32.0773  -43.4112 C.ar      10 UNK        -0.1009 
     11 C11        18.5233  -32.8353  -44.2095 C.ar      10 UNK        -0.0712 
     12 C12        19.0476  -32.2773  -45.3809 C.ar      10 UNK        -0.0894 
     13 C13        18.7621  -30.9549  -45.7308 C.ar      10 UNK        -0.0745 
     14 C14        17.9050  -30.2074  -44.9172 C.ar      10 UNK        -0.0972 
     15 C15        19.3827  -30.3541  -46.9897 C.3       10 UNK         0.0209 
     16 S16        19.9278  -28.6214  -46.8004 S.3       10 UNK        -0.2568 
     17 C17        21.4007  -28.7849  -45.7358 C.3       10 UNK        -0.0983 
     18 CA         21.7446  -27.4297  -45.0650 C.3       3 UNK         0.0876 
     19 N          20.7755  -27.0822  -44.0158 N.am      3 UNK        -0.4424 
     20 C          20.3858  -25.8365  -43.7229 C.2       2 UNK         0.4918 
     21 O          20.7361  -24.8385  -44.3543 O.2       2 UNK        -0.4875 
     22 CA         19.4452  -25.6876  -42.5232 C.3       2 UNK         0.0481 
     23 CB         19.6079  -24.3316  -41.8091 C.3       2 UNK        -0.1831 
     24 N          18.0629  -25.8600  -42.9602 N.am      2 UNK        -0.4498 
     25 C          17.0737  -26.3208  -42.1845 C.2       1 UNK         0.5027 
     26 O          17.2339  -26.6879  -41.0180 O.2       1 UNK        -0.4969 
     27 C          23.2114  -27.3525  -44.5696 C.2       3 UNK         0.5005 
     28 O          24.1253  -27.6063  -45.3559 O.2       3 UNK        -0.5279 
     29 N          23.4278  -26.9902  -43.2939 N.am      4 UNK        -0.4463 
     30 CA         24.6873  -26.6449  -42.6118 C.3       4 UNK         0.0283 
     31 CB         25.3755  -25.4462  -43.2927 C.3       4 UNK        -0.1875 
     32 C          25.6915  -27.7919  -42.3902 C.2       4 UNK         0.4949 
     33 O          26.3529  -27.8033  -41.3518 O.2       4 UNK        -0.5039 
     34 N          25.8029  -28.7189  -43.3518 N.am      5 UNK        -0.4663 
     35 CA         26.7901  -29.8098  -43.3988 C.3       5 UNK         0.0242 
     36 CB         26.5629  -30.6309  -44.6783 C.3       5 UNK        -0.1982 
     37 C          26.8300  -30.7406  -42.1687 C.2       5 UNK         0.5017 
     38 O          27.9058  -31.2241  -41.8140 O.2       5 UNK        -0.5012 
     39 N          25.6712  -30.9663  -41.5434 N.am      6 UNK        -0.4439 
     40 CA         25.4790  -31.7488  -40.3289 C.3       6 UNK         0.0297 
     41 CB         25.2111  -33.2221  -40.6925 C.3       6 UNK        -0.2006 
     42 C          24.3342  -31.0956  -39.5450 C.2       6 UNK         0.4892 
     43 O          23.2645  -31.6913  -39.3987 O.2       6 UNK        -0.5089 
     44 N          24.5687  -29.8438  -39.1206 N.am      7 UNK        -0.4243 
     45 CA         23.6122  -28.9338  -38.4796 C.3       7 UNK         0.0196 
     46 CB         23.2022  -29.4497  -37.0806 C.3       7 UNK        -0.2007 
     47 C          22.4344  -28.6465  -39.4268 C.2       7 UNK         0.5020 
     48 O          22.6635  -28.1015  -40.5076 O.2       7 UNK        -0.5147 
     49 N          21.2123  -29.0503  -39.0512 N.am      8 UNK        -0.4734 
     50 CA         20.0136  -28.9571  -39.8931 C.3       8 UNK         0.0238 
     51 CB         18.7928  -29.4961  -39.1310 C.3       8 UNK        -0.1912 
     52 C          20.1766  -29.6814  -41.2407 C.2       8 UNK         0.5038 
     53 O          19.8297  -29.1156  -42.2766 O.2       8 UNK        -0.5046 
     54 N          20.7735  -30.8797  -41.1953 N.am      9 UNK        -0.4200 
     55 CA         21.1281  -31.6966  -42.3636 C.3       9 UNK         0.0839 
     56 C          22.4600  -31.2802  -43.0541 C.2       9 UNK         0.5513 
     57 N          23.0576  -30.1457  -42.7120 N.am      9 UNK        -0.7519 
     58 O          22.9513  -31.9604  -43.9480 O.2       9 UNK        -0.4960 
     59 C59        21.0022  -33.2112  -42.0282 C.3       10 UNK        -0.0876 
     60 S60        20.7610  -34.3083  -43.4734 S.3       10 UNK        -0.2414 
     61 C61        18.9596  -34.2246  -43.7658 C.3       10 UNK         0.0169 
     62 H62        14.9899  -22.0724  -41.5732 H         1 UNK         0.0903 
     63 H63        13.6643  -22.2849  -42.7201 H         1 UNK         0.0903 
     64 H64        13.6795  -23.1976  -41.2098 H         1 UNK         0.0903 
     65 H65        14.3245  -25.3253  -41.4824 H         1 UNK         0.3096 
     66 H66        15.7347  -26.2054  -43.8702 H         1 UNK         0.1121 
     67 H67        15.0290  -28.0018  -41.4871 H         1 UNK         0.0849 
     68 H68        13.7990  -27.4449  -42.5773 H         1 UNK         0.0849 
     69 H69        17.1474  -29.2441  -42.2778 H         1 UNK         0.0865 
     70 H70        15.9785  -30.5293  -42.0929 H         1 UNK         0.0865 
     71 H71        17.2684  -32.4990  -42.4959 H         1 UNK         0.1346 
     72 H72        19.7212  -32.8626  -45.9920 H         1 UNK         0.1412 
     73 H73        17.6866  -29.1805  -45.1743 H         1 UNK         0.1426 
     74 H74        18.6427  -30.3982  -47.7896 H         1 UNK         0.0716 
     75 H75        20.2341  -30.9499  -47.3227 H         1 UNK         0.0716 
     76 H76        22.2190  -29.1446  -46.3622 H         1 UNK         0.0695 
     77 H77        21.2208  -29.5536  -44.9841 H         1 UNK         0.0695 
     78 H78        21.6905  -26.6677  -45.8460 H         1 UNK         0.0983 
     79 H79        20.4069  -27.8567  -43.4632 H         1 UNK         0.3095 
     80 H80        19.7059  -26.4700  -41.8119 H         1 UNK         0.0454 
     81 H81        20.6470  -24.1618  -41.5245 H         1 UNK         0.0851 
     82 H82        19.0120  -24.2897  -40.8974 H         1 UNK         0.0851 
     83 H83        19.3017  -23.5007  -42.4459 H         1 UNK         0.0851 
     84 H84        17.8557  -25.5521  -43.9014 H         1 UNK         0.2976 
     85 H85        22.6105  -26.9029  -42.7050 H         1 UNK         0.3116 
     86 H86        24.3868  -26.3145  -41.6162 H         1 UNK         0.0646 
     87 H87        25.7182  -25.6895  -44.2988 H         1 UNK         0.0847 
     88 H88        24.7033  -24.5912  -43.3646 H         1 UNK         0.0847 
     89 H89        26.2487  -25.1240  -42.7238 H         1 UNK         0.0847 
     90 H90        25.2793  -28.5342  -44.2055 H         1 UNK         0.3040 
     91 H91        27.7738  -29.3405  -43.4673 H         1 UNK         0.1015 
     92 H92        26.6482  -30.0097  -45.5702 H         1 UNK         0.0786 
     93 H93        25.5777  -31.0990  -44.6884 H         1 UNK         0.0786 
     94 H94        27.3026  -31.4278  -44.7687 H         1 UNK         0.0786 
     95 H95        24.8312  -30.5273  -41.9011 H         1 UNK         0.3172 
     96 H96        26.3736  -31.6972  -39.7048 H         1 UNK         0.0595 
     97 H97        24.3497  -33.3237  -41.3531 H         1 UNK         0.0839 
     98 H98        25.0133  -33.8158  -39.7993 H         1 UNK         0.0839 
     99 H99        26.0698  -33.6671  -41.1951 H         1 UNK         0.0839 
    100 H100       25.4575  -29.4277  -39.3672 H         1 UNK         0.2998 
    101 H101       24.1300  -27.9829  -38.3444 H         1 UNK         0.0822 
    102 H102       22.5421  -28.7415  -36.5778 H         1 UNK         0.0787 
    103 H103       24.0771  -29.5744  -36.4424 H         1 UNK         0.0787 
    104 H104       22.6900  -30.4115  -37.1214 H         1 UNK         0.0787 
    105 H105       21.1130  -29.5065  -38.1557 H         1 UNK         0.3055 
    106 H106       19.8402  -27.9005  -40.0994 H         1 UNK         0.1106 
    107 H107       18.6201  -28.9358  -38.2120 H         1 UNK         0.0828 
    108 H108       17.8889  -29.4050  -39.7353 H         1 UNK         0.0828 
    109 H109       18.9069  -30.5485  -38.8687 H         1 UNK         0.0828 
    110 H110       21.1301  -31.2064  -40.3068 H         1 UNK         0.2931 
    111 H111       20.3845  -31.4640  -43.1184 H         1 UNK         0.0412 
    112 H112       23.8385  -29.8410  -43.2685 H         1 UNK         0.3472 
    113 H113       22.6634  -29.5405  -42.0003 H         1 UNK         0.3472 
    114 H114       20.1564  -33.3748  -41.3584 H         1 UNK         0.0970 
    115 H115       21.8808  -33.5475  -41.4756 H         1 UNK         0.0970 
    116 H116       18.4338  -34.5344  -42.8614 H         1 UNK         0.0612 
    117 H117       18.6941  -34.9443  -44.5411 H         1 UNK         0.0612 
@<TRIPOS>BOND
     1    1    2 1    
     2    1   62 1    
     3    1   63 1    
     4    1   64 1    
     5    2    3 2    
     6    2    4 am   BACKBONE|DICT|INTERRES
     7    4    5 1    
     8    4   65 1    
     9    5    6 1    
    10    5   25 1    
    11    5   66 1    
    12    6    7 1    
    13    6   67 1    
    14    6   68 1    
    15    7    8 1    
    16    8    9 1    
    17    8   69 1    
    18    8   70 1    
    19    9   10 ar   
    20    9   14 ar   
    21   10   11 ar   
    22   10   71 1    
    23   11   12 ar   
    24   11   61 1    
    25   12   13 ar   
    26   12   72 1    
    27   13   14 ar   
    28   13   15 1    
    29   14   73 1    
    30   15   16 1    
    31   15   74 1    
    32   15   75 1    
    33   16   17 1    
    34   17   18 1    
    35   17   76 1    
    36   17   77 1    
    37   18   19 1    
    38   18   27 1    
    39   18   78 1    
    40   19   20 am   BACKBONE|DICT|INTERRES
    41   19   79 1    
    42   20   21 2    
    43   20   22 1    
    44   22   23 1    
    45   22   24 1    
    46   22   80 1    
    47   23   81 1    
    48   23   82 1    
    49   23   83 1    
    50   24   25 am   BACKBONE|DICT|INTERRES
    51   24   84 1    
    52   25   26 2    
    53   27   28 2    
    54   27   29 am   BACKBONE|DICT|INTERRES
    55   29   30 1    
    56   29   85 1    
    57   30   31 1    
    58   30   32 1    
    59   30   86 1    
    60   31   87 1    
    61   31   88 1    
    62   31   89 1    
    63   32   33 2    
    64   32   34 am   BACKBONE|DICT|INTERRES
    65   34   35 1    
    66   34   90 1    
    67   35   36 1    
    68   35   37 1    
    69   35   91 1    
    70   36   92 1    
    71   36   93 1    
    72   36   94 1    
    73   37   38 2    
    74   37   39 am   BACKBONE|DICT|INTERRES
    75   39   40 1    
    76   39   95 1    
    77   40   41 1    
    78   40   42 1    
    79   40   96 1    
    80   41   97 1    
    81   41   98 1    
    82   41   99 1    
    83   42   43 2    
    84   42   44 am   BACKBONE|DICT|INTERRES
    85   44   45 1    
    86   44  100 1    
    87   45   46 1    
    88   45   47 1    
    89   45  101 1    
    90   46  102 1    
    91   46  103 1    
    92   46  104 1    
    93   47   48 2    
    94   47   49 am   BACKBONE|DICT|INTERRES
    95   49   50 1    
    96   49  105 1    
    97   50   51 1    
    98   50   52 1    
    99   50  106 1    
   100   51  107 1    
   101   51  108 1    
   102   51  109 1    
   103   52   53 2    
   104   52   54 am   BACKBONE|DICT|INTERRES
   105   54   55 1    
   106   54  110 1    
   107   55   56 1    
   108   55   59 1    
   109   55  111 1    
   110   56   57 am   BACKBONE|DICT|INTERRES
   111   56   58 2    
   112   57  112 1    
   113   57  113 1    
   114   59   60 1    
   115   59  114 1    
   116   59  115 1    
   117   60   61 1    
   118   61  116 1    
   119   61  117 1    
@<TRIPOS>SUBSTRUCTURE
     1 UNK         1 GROUP             0       ****    0 ROOT    
