@<TRIPOS>MOLECULE
3R8
117   119    1
SMALL
USER_CHARGES


@<TRIPOS>ATOM
      1 CA         19.1364  -22.5270  -43.4579 C.3       0 UNK        -0.2013 
      2 C          18.0035  -23.1948  -42.6828 C.2       0 UNK         0.4866 
      3 O          17.4994  -22.6076  -41.7274 O.2       0 UNK        -0.5176 
      4 N          17.5555  -24.4027  -43.0538 N.am      1 UNK        -0.4884 
      5 CA         18.0886  -25.2598  -44.1205 C.3       1 UNK         0.0853 
      6 C6         16.9861  -26.2059  -44.6697 C.3       10 UNK        -0.0849 
      7 S7         17.3120  -26.7499  -46.3846 S.3       10 UNK        -0.2776 
      8 C8         16.2634  -28.2304  -46.5178 C.3       10 UNK         0.0316 
      9 C9         16.8553  -29.4468  -45.8151 C.ar      10 UNK        -0.0863 
     10 C10        17.7832  -30.2621  -46.4748 C.ar      10 UNK        -0.1009 
     11 C11        18.2401  -31.4455  -45.8825 C.ar      10 UNK        -0.0712 
     12 C12        17.7653  -31.8018  -44.6178 C.ar      10 UNK        -0.0894 
     13 C13        16.8673  -30.9796  -43.9326 C.ar      10 UNK        -0.0745 
     14 C14        16.4138  -29.8040  -44.5369 C.ar      10 UNK        -0.0972 
     15 C15        16.3377  -31.4023  -42.5698 C.3       10 UNK         0.0209 
     16 S16        17.6665  -31.6269  -41.3458 S.3       10 UNK        -0.2568 
     17 C17        18.1076  -29.9087  -40.9332 C.3       10 UNK        -0.0983 
     18 CA         19.5992  -29.6144  -41.2427 C.3       3 UNK         0.0876 
     19 N          19.7912  -28.9806  -42.5526 N.am      3 UNK        -0.4424 
     20 C          20.9882  -28.6806  -43.0776 C.2       2 UNK         0.4918 
     21 O          22.0533  -29.0374  -42.5741 O.2       2 UNK        -0.4875 
     22 CA         21.0271  -27.7671  -44.3162 C.3       2 UNK         0.0481 
     23 CB         21.2657  -28.5785  -45.5936 C.3       2 UNK        -0.1831 
     24 N          19.8413  -26.9284  -44.5059 N.am      2 UNK        -0.4498 
     25 C          19.3444  -26.0293  -43.6478 C.2       1 UNK         0.5027 
     26 O          19.8296  -25.8197  -42.5324 O.2       1 UNK        -0.4969 
     27 C          20.2597  -28.8165  -40.0954 C.2       3 UNK         0.5005 
     28 O          20.8374  -29.4306  -39.1968 O.2       3 UNK        -0.5279 
     29 N          20.2065  -27.4804  -40.1683 N.am      4 UNK        -0.4463 
     30 CA         20.8967  -26.5810  -39.2479 C.3       4 UNK         0.0283 
     31 CB         20.0190  -25.3456  -38.9829 C.3       4 UNK        -0.1875 
     32 C          22.2613  -26.1661  -39.8145 C.2       4 UNK         0.4949 
     33 O          23.2671  -26.2782  -39.1149 O.2       4 UNK        -0.5039 
     34 N          22.2713  -25.6849  -41.0658 N.am      5 UNK        -0.4663 
     35 CA         23.4217  -25.0223  -41.6881 C.3       5 UNK         0.0242 
     36 CB         22.9569  -24.2623  -42.9407 C.3       5 UNK        -0.1982 
     37 C          24.6078  -25.9437  -42.0164 C.2       5 UNK         0.5017 
     38 O          25.7441  -25.4695  -41.9936 O.2       5 UNK        -0.5012 
     39 N          24.3384  -27.2219  -42.3127 N.am      6 UNK        -0.4439 
     40 CA         25.3515  -28.2331  -42.6334 C.3       6 UNK         0.0297 
     41 CB         25.0692  -28.8075  -44.0341 C.3       6 UNK        -0.2006 
     42 C          25.4186  -29.3484  -41.5745 C.2       6 UNK         0.4892 
     43 O          26.1685  -30.3018  -41.7812 O.2       6 UNK        -0.5089 
     44 N          24.6610  -29.2040  -40.4731 N.am      7 UNK        -0.4243 
     45 CA         24.5054  -30.1336  -39.3474 C.3       7 UNK         0.0196 
     46 CB         25.8313  -30.3047  -38.5773 C.3       7 UNK        -0.2007 
     47 C          23.9113  -31.4814  -39.7935 C.2       7 UNK         0.5020 
     48 O          24.6481  -32.3890  -40.1826 O.2       7 UNK        -0.5147 
     49 N          22.5749  -31.5744  -39.7513 N.am      8 UNK        -0.4734 
     50 CA         21.7578  -32.7322  -40.1461 C.3       8 UNK         0.0238 
     51 CB         22.0116  -33.9315  -39.2071 C.3       8 UNK        -0.1912 
     52 C          21.9011  -33.1016  -41.6374 C.2       8 UNK         0.5038 
     53 O          21.7491  -34.2714  -41.9927 O.2       8 UNK        -0.5046 
     54 N          22.1856  -32.0977  -42.4807 N.am      9 UNK        -0.4200 
     55 CA         22.4387  -32.2303  -43.9232 C.3       9 UNK         0.0839 
     56 C          23.7898  -32.9266  -44.2753 C.2       9 UNK         0.5513 
     57 N          24.7298  -33.0585  -43.3459 N.am      9 UNK        -0.7519 
     58 O          24.0069  -33.3338  -45.4133 O.2       9 UNK        -0.4960 
     59 C59        21.2103  -32.8072  -44.6895 C.3       10 UNK        -0.0876 
     60 S60        20.9442  -32.0238  -46.3165 S.3       10 UNK        -0.2414 
     61 C61        19.1849  -32.3764  -46.6353 C.3       10 UNK         0.0169 
     62 H62        18.8022  -22.2419  -44.4549 H         1 UNK         0.0903 
     63 H63        19.4669  -21.6232  -42.9464 H         1 UNK         0.0903 
     64 H64        19.9993  -23.1837  -43.5501 H         1 UNK         0.0903 
     65 H65        16.8220  -24.8196  -42.4988 H         1 UNK         0.3096 
     66 H66        18.4077  -24.6139  -44.9408 H         1 UNK         0.1121 
     67 H67        16.0256  -25.6875  -44.6895 H         1 UNK         0.0849 
     68 H68        16.8441  -27.0646  -44.0124 H         1 UNK         0.0849 
     69 H69        15.2681  -28.0074  -46.1296 H         1 UNK         0.0865 
     70 H70        16.1232  -28.4606  -47.5751 H         1 UNK         0.0865 
     71 H71        18.1226  -29.9941  -47.4663 H         1 UNK         0.1346 
     72 H72        18.0794  -32.7316  -44.1649 H         1 UNK         0.1412 
     73 H73        15.6847  -29.1877  -44.0286 H         1 UNK         0.1426 
     74 H74        15.8060  -32.3481  -42.6823 H         1 UNK         0.0716 
     75 H75        15.6088  -30.6868  -42.1861 H         1 UNK         0.0716 
     76 H76        17.8793  -29.7914  -39.8714 H         1 UNK         0.0695 
     77 H77        17.4498  -29.2070  -41.4487 H         1 UNK         0.0695 
     78 H78        20.1403  -30.5582  -41.2856 H         1 UNK         0.0983 
     79 H79        18.9608  -28.6925  -43.0470 H         1 UNK         0.3095 
     80 H80        21.8792  -27.0995  -44.1853 H         1 UNK         0.0454 
     81 H81        21.4337  -27.9280  -46.4519 H         1 UNK         0.0851 
     82 H82        22.1433  -29.2179  -45.5019 H         1 UNK         0.0851 
     83 H83        20.4124  -29.2162  -45.8213 H         1 UNK         0.0851 
     84 H84        19.3446  -27.0513  -45.3806 H         1 UNK         0.2976 
     85 H85        19.7750  -27.0479  -40.9788 H         1 UNK         0.3116 
     86 H86        21.0658  -27.0789  -38.2905 H         1 UNK         0.0646 
     87 H87        19.7863  -24.8012  -39.8993 H         1 UNK         0.0847 
     88 H88        20.5190  -24.6494  -38.3082 H         1 UNK         0.0847 
     89 H89        19.0752  -25.6263  -38.5154 H         1 UNK         0.0847 
     90 H90        21.3933  -25.6500  -41.5791 H         1 UNK         0.3040 
     91 H91        23.7941  -24.2831  -40.9749 H         1 UNK         0.1015 
     92 H92        23.7938  -23.7580  -43.4263 H         1 UNK         0.0786 
     93 H93        22.2271  -23.4950  -42.6839 H         1 UNK         0.0786 
     94 H94        22.5041  -24.9245  -43.6776 H         1 UNK         0.0786 
     95 H95        23.3778  -27.5485  -42.3032 H         1 UNK         0.3172 
     96 H96        26.3448  -27.7812  -42.6600 H         1 UNK         0.0595 
     97 H97        24.1428  -29.3781  -44.0600 H         1 UNK         0.0839 
     98 H98        25.8680  -29.4807  -44.3479 H         1 UNK         0.0839 
     99 H99        24.9999  -28.0180  -44.7824 H         1 UNK         0.0839 
    100 H100       24.1073  -28.3612  -40.4091 H         1 UNK         0.2998 
    101 H101       23.7937  -29.6678  -38.6630 H         1 UNK         0.0822 
    102 H102       26.2097  -29.3458  -38.2235 H         1 UNK         0.0787 
    103 H103       25.6910  -30.9420  -37.7034 H         1 UNK         0.0787 
    104 H104       26.6070  -30.7651  -39.1900 H         1 UNK         0.0787 
    105 H105       22.0442  -30.7625  -39.4336 H         1 UNK         0.3055 
    106 H106       20.7166  -32.4374  -40.0088 H         1 UNK         0.1106 
    107 H107       21.9000  -33.6472  -38.1609 H         1 UNK         0.0828 
    108 H108       21.3007  -34.7361  -39.3992 H         1 UNK         0.0828 
    109 H109       23.0115  -34.3461  -39.3381 H         1 UNK         0.0828 
    110 H110       22.3167  -31.1661  -42.1070 H         1 UNK         0.2931 
    111 H111       22.5749  -31.2009  -44.2505 H         1 UNK         0.0412 
    112 H112       24.5889  -32.7202  -42.4021 H         1 UNK         0.3472 
    113 H113       25.6030  -33.4969  -43.5910 H         1 UNK         0.3472 
    114 H114       21.2884  -33.8891  -44.8118 H         1 UNK         0.0970 
    115 H115       20.3117  -32.6440  -44.0985 H         1 UNK         0.0970 
    116 H116       18.9728  -33.4169  -46.3846 H         1 UNK         0.0612 
    117 H117       19.0060  -32.2848  -47.7076 H         1 UNK         0.0612 
@<TRIPOS>BOND
     1    1    2 1    
     2    1   62 1    
     3    1   63 1    
     4    1   64 1    
     5    2    3 2    
     6    2    4 am   BACKBONE|DICT|INTERRES
     7    4    5 1    
     8    4   65 1    
     9    5    6 1    
    10    5   25 1    
    11    5   66 1    
    12    6    7 1    
    13    6   67 1    
    14    6   68 1    
    15    7    8 1    
    16    8    9 1    
    17    8   69 1    
    18    8   70 1    
    19    9   10 ar   
    20    9   14 ar   
    21   10   11 ar   
    22   10   71 1    
    23   11   12 ar   
    24   11   61 1    
    25   12   13 ar   
    26   12   72 1    
    27   13   14 ar   
    28   13   15 1    
    29   14   73 1    
    30   15   16 1    
    31   15   74 1    
    32   15   75 1    
    33   16   17 1    
    34   17   18 1    
    35   17   76 1    
    36   17   77 1    
    37   18   19 1    
    38   18   27 1    
    39   18   78 1    
    40   19   20 am   BACKBONE|DICT|INTERRES
    41   19   79 1    
    42   20   21 2    
    43   20   22 1    
    44   22   23 1    
    45   22   24 1    
    46   22   80 1    
    47   23   81 1    
    48   23   82 1    
    49   23   83 1    
    50   24   25 am   BACKBONE|DICT|INTERRES
    51   24   84 1    
    52   25   26 2    
    53   27   28 2    
    54   27   29 am   BACKBONE|DICT|INTERRES
    55   29   30 1    
    56   29   85 1    
    57   30   31 1    
    58   30   32 1    
    59   30   86 1    
    60   31   87 1    
    61   31   88 1    
    62   31   89 1    
    63   32   33 2    
    64   32   34 am   BACKBONE|DICT|INTERRES
    65   34   35 1    
    66   34   90 1    
    67   35   36 1    
    68   35   37 1    
    69   35   91 1    
    70   36   92 1    
    71   36   93 1    
    72   36   94 1    
    73   37   38 2    
    74   37   39 am   BACKBONE|DICT|INTERRES
    75   39   40 1    
    76   39   95 1    
    77   40   41 1    
    78   40   42 1    
    79   40   96 1    
    80   41   97 1    
    81   41   98 1    
    82   41   99 1    
    83   42   43 2    
    84   42   44 am   BACKBONE|DICT|INTERRES
    85   44   45 1    
    86   44  100 1    
    87   45   46 1    
    88   45   47 1    
    89   45  101 1    
    90   46  102 1    
    91   46  103 1    
    92   46  104 1    
    93   47   48 2    
    94   47   49 am   BACKBONE|DICT|INTERRES
    95   49   50 1    
    96   49  105 1    
    97   50   51 1    
    98   50   52 1    
    99   50  106 1    
   100   51  107 1    
   101   51  108 1    
   102   51  109 1    
   103   52   53 2    
   104   52   54 am   BACKBONE|DICT|INTERRES
   105   54   55 1    
   106   54  110 1    
   107   55   56 1    
   108   55   59 1    
   109   55  111 1    
   110   56   57 am   BACKBONE|DICT|INTERRES
   111   56   58 2    
   112   57  112 1    
   113   57  113 1    
   114   59   60 1    
   115   59  114 1    
   116   59  115 1    
   117   60   61 1    
   118   61  116 1    
   119   61  117 1    
@<TRIPOS>SUBSTRUCTURE
     1 UNK         1 GROUP             0       ****    0 ROOT    
