@<TRIPOS>MOLECULE
3R8
117   119    1
SMALL
USER_CHARGES


@<TRIPOS>ATOM
      1 CA         19.5139  -29.1255  -42.1380 C.3       0 UNK        -0.2013 
      2 C          18.2644  -28.2903  -42.3702 C.2       0 UNK         0.4866 
      3 O          17.8845  -27.5073  -41.5008 O.2       0 UNK        -0.5176 
      4 N          17.6354  -28.4284  -43.5474 N.am      1 UNK        -0.4884 
      5 CA         16.4735  -27.6275  -43.9819 C.3       1 UNK         0.0853 
      6 C6         15.8236  -28.1968  -45.2673 C.3       10 UNK        -0.0849 
      7 S7         15.3072  -29.9368  -45.0965 S.3       10 UNK        -0.2776 
      8 C8         16.3075  -30.7447  -46.3896 C.3       10 UNK         0.0316 
      9 C9         17.7806  -30.8525  -46.0139 C.ar      10 UNK        -0.0863 
     10 C10        18.1613  -31.6366  -44.9211 C.ar      10 UNK        -0.1009 
     11 C11        19.5121  -31.8044  -44.5915 C.ar      10 UNK        -0.0712 
     12 C12        20.4803  -31.1767  -45.3823 C.ar      10 UNK        -0.0894 
     13 C13        20.1184  -30.3901  -46.4799 C.ar      10 UNK        -0.0745 
     14 C14        18.7637  -30.2233  -46.7857 C.ar      10 UNK        -0.0972 
     15 C15        21.1959  -29.7822  -47.3727 C.3       10 UNK         0.0209 
     16 S16        21.4525  -28.0013  -47.0867 S.3       10 UNK        -0.2568 
     17 C17        22.2441  -27.9891  -45.4386 C.3       10 UNK        -0.0983 
     18 CA         22.1421  -26.6242  -44.6957 C.3       3 UNK         0.0876 
     19 N          20.7826  -26.0832  -44.8177 N.am      3 UNK        -0.4424 
     20 C          20.3124  -24.8631  -44.5163 C.2       2 UNK         0.4918 
     21 O          21.0004  -23.9556  -44.0508 O.2       2 UNK        -0.4875 
     22 CA         18.8038  -24.6490  -44.7148 C.3       2 UNK         0.0481 
     23 CB         18.5005  -24.0633  -46.1044 C.3       2 UNK        -0.1831 
     24 N          18.1168  -25.9238  -44.5287 N.am      2 UNK        -0.4498 
     25 C          16.8394  -26.1435  -44.2129 C.2       1 UNK         0.5027 
     26 O          15.9849  -25.2631  -44.1066 O.2       1 UNK        -0.4969 
     27 C          22.6458  -26.7579  -43.2327 C.2       3 UNK         0.5005 
     28 O          23.3531  -27.7172  -42.9222 O.2       3 UNK        -0.5279 
     29 N          22.2568  -25.8316  -42.3469 N.am      4 UNK        -0.4463 
     30 CA         22.5581  -25.8284  -40.9141 C.3       4 UNK         0.0283 
     31 CB         21.8388  -24.6416  -40.2542 C.3       4 UNK        -0.1875 
     32 C          24.0664  -25.7738  -40.6241 C.2       4 UNK         0.4949 
     33 O          24.8178  -25.1589  -41.3844 O.2       4 UNK        -0.5039 
     34 N          24.4766  -26.4370  -39.5353 N.am      5 UNK        -0.4663 
     35 CA         25.8491  -26.6413  -39.0426 C.3       5 UNK         0.0242 
     36 CB         26.5735  -25.3075  -38.7723 C.3       5 UNK        -0.1982 
     37 C          26.6994  -27.5763  -39.9230 C.2       5 UNK         0.5017 
     38 O          27.4426  -28.3932  -39.3783 O.2       5 UNK        -0.5012 
     39 N          26.5590  -27.4730  -41.2511 N.am      6 UNK        -0.4439 
     40 CA         27.1233  -28.4013  -42.2333 C.3       6 UNK         0.0297 
     41 CB         26.9942  -27.7982  -43.6414 C.3       6 UNK        -0.2006 
     42 C          26.4538  -29.7861  -42.1720 C.2       6 UNK         0.4892 
     43 O          27.1376  -30.7975  -42.3354 O.2       6 UNK        -0.5089 
     44 N          25.1415  -29.8015  -41.9168 N.am      7 UNK        -0.4243 
     45 CA         24.3149  -30.9830  -41.7110 C.3       7 UNK         0.0196 
     46 CB         23.6523  -31.3665  -43.0461 C.3       7 UNK        -0.2007 
     47 C          23.2611  -30.6761  -40.6374 C.2       7 UNK         0.5020 
     48 O          23.0905  -29.5201  -40.2398 O.2       7 UNK        -0.5147 
     49 N          22.5558  -31.7216  -40.1988 N.am      8 UNK        -0.4734 
     50 CA         21.4187  -31.6417  -39.2879 C.3       8 UNK         0.0238 
     51 CB         21.8887  -31.8342  -37.8357 C.3       8 UNK        -0.1912 
     52 C          20.4161  -32.7232  -39.7008 C.2       8 UNK         0.5038 
     53 O          20.8274  -33.8625  -39.9326 O.2       8 UNK        -0.5046 
     54 N          19.1394  -32.3408  -39.7950 N.am      9 UNK        -0.4200 
     55 CA         18.0110  -33.1886  -40.2147 C.3       9 UNK         0.0839 
     56 C          16.7619  -33.0033  -39.3021 C.2       9 UNK         0.5513 
     57 N          16.8699  -32.3608  -38.1440 N.am      9 UNK        -0.7519 
     58 O          15.6740  -33.4670  -39.6338 O.2       9 UNK        -0.4960 
     59 C59        17.6871  -32.9997  -41.7275 C.3       10 UNK        -0.0876 
     60 S60        18.8216  -33.9283  -42.8177 S.3       10 UNK        -0.2414 
     61 C61        19.9796  -32.6415  -43.3982 C.3       10 UNK         0.0169 
     62 H62        19.2709  -30.0074  -41.5495 H         1 UNK         0.0903 
     63 H63        19.9645  -29.4429  -43.0768 H         1 UNK         0.0903 
     64 H64        20.2620  -28.5483  -41.5938 H         1 UNK         0.0903 
     65 H65        17.9397  -29.1393  -44.2008 H         1 UNK         0.3096 
     66 H66        15.7321  -27.6528  -43.1799 H         1 UNK         0.1121 
     67 H67        14.9349  -27.6187  -45.5291 H         1 UNK         0.0849 
     68 H68        16.5035  -28.0995  -46.1161 H         1 UNK         0.0849 
     69 H69        15.9163  -31.7498  -46.5538 H         1 UNK         0.0865 
     70 H70        16.1783  -30.2149  -47.3348 H         1 UNK         0.0865 
     71 H71        17.3894  -32.1224  -44.3428 H         1 UNK         0.1346 
     72 H72        21.5275  -31.3144  -45.1525 H         1 UNK         0.1412 
     73 H73        18.4810  -29.6298  -47.6448 H         1 UNK         0.1426 
     74 H74        20.9164  -29.9280  -48.4171 H         1 UNK         0.0716 
     75 H75        22.1452  -30.3042  -47.2415 H         1 UNK         0.0716 
     76 H76        23.2893  -28.2802  -45.5601 H         1 UNK         0.0695 
     77 H77        21.7793  -28.7710  -44.8371 H         1 UNK         0.0695 
     78 H78        22.8141  -25.9192  -45.1890 H         1 UNK         0.0983 
     79 H79        20.1672  -26.7050  -45.3182 H         1 UNK         0.3095 
     80 H80        18.4610  -23.9516  -43.9479 H         1 UNK         0.0454 
     81 H81        19.0291  -23.1208  -46.2533 H         1 UNK         0.0851 
     82 H82        17.4368  -23.8592  -46.2263 H         1 UNK         0.0851 
     83 H83        18.8054  -24.7399  -46.9036 H         1 UNK         0.0851 
     84 H84        18.7092  -26.7383  -44.4898 H         1 UNK         0.2976 
     85 H85        21.7448  -25.0341  -42.7123 H         1 UNK         0.3116 
     86 H86        22.1579  -26.7555  -40.4979 H         1 UNK         0.0646 
     87 H87        22.0194  -24.6219  -39.1786 H         1 UNK         0.0847 
     88 H88        20.7599  -24.7003  -40.3991 H         1 UNK         0.0847 
     89 H89        22.1814  -23.6885  -40.6597 H         1 UNK         0.0847 
     90 H90        23.7711  -26.9504  -39.0228 H         1 UNK         0.3040 
     91 H91        25.7378  -27.1477  -38.0820 H         1 UNK         0.1015 
     92 H92        27.5337  -25.4819  -38.2850 H         1 UNK         0.0786 
     93 H93        25.9886  -24.6643  -38.1149 H         1 UNK         0.0786 
     94 H94        26.7763  -24.7550  -39.6900 H         1 UNK         0.0786 
     95 H95        25.9384  -26.7452  -41.5944 H         1 UNK         0.3172 
     96 H96        28.1846  -28.5294  -42.0105 H         1 UNK         0.0595 
     97 H97        25.9517  -27.6323  -43.9164 H         1 UNK         0.0839 
     98 H98        27.4267  -28.4628  -44.3905 H         1 UNK         0.0839 
     99 H99        27.5165  -26.8442  -43.7144 H         1 UNK         0.0839 
    100 H100       24.6380  -28.9231  -41.8246 H         1 UNK         0.2998 
    101 H101       24.9331  -31.8091  -41.3529 H         1 UNK         0.0822 
    102 H102       24.3972  -31.5461  -43.8215 H         1 UNK         0.0787 
    103 H103       22.9887  -30.5754  -43.3976 H         1 UNK         0.0787 
    104 H104       23.0628  -32.2778  -42.9486 H         1 UNK         0.0787 
    105 H105       22.7235  -32.6430  -40.5838 H         1 UNK         0.3055 
    106 H106       20.9439  -30.6619  -39.3809 H         1 UNK         0.1106 
    107 H107       22.3757  -32.7999  -37.6940 H         1 UNK         0.0828 
    108 H108       22.5953  -31.0574  -37.5429 H         1 UNK         0.0828 
    109 H109       21.0480  -31.7863  -37.1425 H         1 UNK         0.0828 
    110 H110       18.8908  -31.3914  -39.5578 H         1 UNK         0.2931 
    111 H111       18.2841  -34.2338  -40.0574 H         1 UNK         0.0412 
    112 H112       17.7599  -32.0301  -37.8088 H         1 UNK         0.3472 
    113 H113       16.0496  -32.2587  -37.5662 H         1 UNK         0.3472 
    114 H114       16.6871  -33.3658  -41.9664 H         1 UNK         0.0970 
    115 H115       17.6805  -31.9413  -41.9911 H         1 UNK         0.0970 
    116 H116       20.9012  -33.1559  -43.6731 H         1 UNK         0.0612 
    117 H117       20.2378  -31.9806  -42.5721 H         1 UNK         0.0612 
@<TRIPOS>BOND
     1    1    2 1    
     2    1   62 1    
     3    1   63 1    
     4    1   64 1    
     5    2    3 2    
     6    2    4 am   BACKBONE|DICT|INTERRES
     7    4    5 1    
     8    4   65 1    
     9    5    6 1    
    10    5   25 1    
    11    5   66 1    
    12    6    7 1    
    13    6   67 1    
    14    6   68 1    
    15    7    8 1    
    16    8    9 1    
    17    8   69 1    
    18    8   70 1    
    19    9   10 ar   
    20    9   14 ar   
    21   10   11 ar   
    22   10   71 1    
    23   11   12 ar   
    24   11   61 1    
    25   12   13 ar   
    26   12   72 1    
    27   13   14 ar   
    28   13   15 1    
    29   14   73 1    
    30   15   16 1    
    31   15   74 1    
    32   15   75 1    
    33   16   17 1    
    34   17   18 1    
    35   17   76 1    
    36   17   77 1    
    37   18   19 1    
    38   18   27 1    
    39   18   78 1    
    40   19   20 am   BACKBONE|DICT|INTERRES
    41   19   79 1    
    42   20   21 2    
    43   20   22 1    
    44   22   23 1    
    45   22   24 1    
    46   22   80 1    
    47   23   81 1    
    48   23   82 1    
    49   23   83 1    
    50   24   25 am   BACKBONE|DICT|INTERRES
    51   24   84 1    
    52   25   26 2    
    53   27   28 2    
    54   27   29 am   BACKBONE|DICT|INTERRES
    55   29   30 1    
    56   29   85 1    
    57   30   31 1    
    58   30   32 1    
    59   30   86 1    
    60   31   87 1    
    61   31   88 1    
    62   31   89 1    
    63   32   33 2    
    64   32   34 am   BACKBONE|DICT|INTERRES
    65   34   35 1    
    66   34   90 1    
    67   35   36 1    
    68   35   37 1    
    69   35   91 1    
    70   36   92 1    
    71   36   93 1    
    72   36   94 1    
    73   37   38 2    
    74   37   39 am   BACKBONE|DICT|INTERRES
    75   39   40 1    
    76   39   95 1    
    77   40   41 1    
    78   40   42 1    
    79   40   96 1    
    80   41   97 1    
    81   41   98 1    
    82   41   99 1    
    83   42   43 2    
    84   42   44 am   BACKBONE|DICT|INTERRES
    85   44   45 1    
    86   44  100 1    
    87   45   46 1    
    88   45   47 1    
    89   45  101 1    
    90   46  102 1    
    91   46  103 1    
    92   46  104 1    
    93   47   48 2    
    94   47   49 am   BACKBONE|DICT|INTERRES
    95   49   50 1    
    96   49  105 1    
    97   50   51 1    
    98   50   52 1    
    99   50  106 1    
   100   51  107 1    
   101   51  108 1    
   102   51  109 1    
   103   52   53 2    
   104   52   54 am   BACKBONE|DICT|INTERRES
   105   54   55 1    
   106   54  110 1    
   107   55   56 1    
   108   55   59 1    
   109   55  111 1    
   110   56   57 am   BACKBONE|DICT|INTERRES
   111   56   58 2    
   112   57  112 1    
   113   57  113 1    
   114   59   60 1    
   115   59  114 1    
   116   59  115 1    
   117   60   61 1    
   118   61  116 1    
   119   61  117 1    
@<TRIPOS>SUBSTRUCTURE
     1 UNK         1 GROUP             0       ****    0 ROOT    
