@<TRIPOS>MOLECULE
3R8
117   119    1
SMALL
USER_CHARGES


@<TRIPOS>ATOM
      1 CA         13.3115  -23.8085  -42.5725 C.3       0 UNK        -0.2013 
      2 C          13.9889  -24.9469  -43.3199 C.2       0 UNK         0.4866 
      3 O          13.7997  -26.1096  -42.9618 O.2       0 UNK        -0.5176 
      4 N          14.7864  -24.6210  -44.3472 N.am      1 UNK        -0.4884 
      5 CA         15.5461  -25.5233  -45.2288 C.3       1 UNK         0.0853 
      6 C6         14.6605  -26.5795  -45.9436 C.3       10 UNK        -0.0849 
      7 S7         15.4031  -27.1870  -47.4963 S.3       10 UNK        -0.2776 
      8 C8         15.5413  -28.9831  -47.1925 C.3       10 UNK         0.0316 
      9 C9         16.8216  -29.4144  -46.4771 C.ar      10 UNK        -0.0863 
     10 C10        16.7591  -30.3604  -45.4476 C.ar      10 UNK        -0.1009 
     11 C11        17.9285  -30.8787  -44.8802 C.ar      10 UNK        -0.0712 
     12 C12        19.1716  -30.4269  -45.3329 C.ar      10 UNK        -0.0894 
     13 C13        19.2515  -29.4665  -46.3451 C.ar      10 UNK        -0.0745 
     14 C14        18.0745  -28.9666  -46.9129 C.ar      10 UNK        -0.0972 
     15 C15        20.6062  -29.0252  -46.8832 C.3       10 UNK         0.0209 
     16 S16        21.2009  -27.4879  -46.1106 S.3       10 UNK        -0.2568 
     17 C17        21.8626  -28.0787  -44.5164 C.3       10 UNK        -0.0983 
     18 CA         21.1762  -27.3952  -43.3091 C.3       3 UNK         0.0876 
     19 N          19.7533  -27.7161  -43.2439 N.am      3 UNK        -0.4424 
     20 C          18.8507  -27.1244  -42.4544 C.2       2 UNK         0.4918 
     21 O          19.1026  -26.2061  -41.6720 O.2       2 UNK        -0.4875 
     22 CA         17.4115  -27.6486  -42.5866 C.3       2 UNK         0.0481 
     23 CB         16.7754  -27.8771  -41.2049 C.3       2 UNK        -0.1831 
     24 N          16.5203  -26.7994  -43.3786 N.am      2 UNK        -0.4498 
     25 C          16.7613  -26.1775  -44.5418 C.2       1 UNK         0.5027 
     26 O          17.8612  -26.1031  -45.0881 O.2       1 UNK        -0.4969 
     27 C          21.8874  -27.7613  -41.9916 C.2       3 UNK         0.5005 
     28 O          22.1404  -28.9416  -41.7375 O.2       3 UNK        -0.5279 
     29 N          22.2105  -26.7407  -41.1867 N.am      4 UNK        -0.4463 
     30 CA         23.0184  -26.8691  -39.9705 C.3       4 UNK         0.0283 
     31 CB         22.7542  -25.6611  -39.0579 C.3       4 UNK        -0.1875 
     32 C          24.5236  -26.9984  -40.2684 C.2       4 UNK         0.4949 
     33 O          25.2712  -27.4388  -39.3944 O.2       4 UNK        -0.5039 
     34 N          24.9445  -26.6182  -41.4854 N.am      5 UNK        -0.4663 
     35 CA         26.3122  -26.7304  -41.9975 C.3       5 UNK         0.0242 
     36 CB         26.3626  -26.1778  -43.4315 C.3       5 UNK        -0.1982 
     37 C          26.8033  -28.1858  -41.9547 C.2       5 UNK         0.5017 
     38 O          26.1773  -29.0519  -42.5693 O.2       5 UNK        -0.5012 
     39 N          27.8643  -28.4282  -41.1706 N.am      6 UNK        -0.4439 
     40 CA         28.4461  -29.7400  -40.8468 C.3       6 UNK         0.0297 
     41 CB         29.1013  -30.3636  -42.0979 C.3       6 UNK        -0.2006 
     42 C          27.4641  -30.7153  -40.1569 C.2       6 UNK         0.4892 
     43 O          27.7099  -31.9226  -40.1691 O.2       6 UNK        -0.5089 
     44 N          26.3725  -30.1810  -39.5823 N.am      7 UNK        -0.4243 
     45 CA         25.2280  -30.8916  -39.0024 C.3       7 UNK         0.0196 
     46 CB         25.6319  -31.5993  -37.6916 C.3       7 UNK        -0.2007 
     47 C          24.5257  -31.8323  -40.0038 C.2       7 UNK         0.5020 
     48 O          24.0411  -32.8911  -39.6018 O.2       7 UNK        -0.5147 
     49 N          24.4771  -31.4389  -41.2873 N.am      8 UNK        -0.4734 
     50 CA         23.9305  -32.2320  -42.3967 C.3       8 UNK         0.0238 
     51 CB         24.1034  -31.4570  -43.7125 C.3       8 UNK        -0.1912 
     52 C          22.4661  -32.6672  -42.2092 C.2       8 UNK         0.5038 
     53 O          22.1324  -33.8076  -42.5338 O.2       8 UNK        -0.5046 
     54 N          21.6400  -31.7660  -41.6673 N.am      9 UNK        -0.4200 
     55 CA         20.2477  -32.0168  -41.2676 C.3       9 UNK         0.0839 
     56 C          20.0886  -32.3704  -39.7573 C.2       9 UNK         0.5513 
     57 N          21.1550  -32.6465  -39.0159 N.am      9 UNK        -0.7519 
     58 O          18.9759  -32.4101  -39.2396 O.2       9 UNK        -0.4960 
     59 C59        19.3386  -30.8442  -41.7251 C.3       10 UNK        -0.0876 
     60 S60        17.6405  -31.3653  -42.1446 S.3       10 UNK        -0.2414 
     61 C61        17.8465  -31.9899  -43.8416 C.3       10 UNK         0.0169 
     62 H62        13.5646  -22.8351  -42.9924 H         1 UNK         0.0903 
     63 H63        12.2289  -23.9247  -42.6152 H         1 UNK         0.0903 
     64 H64        13.6137  -23.8154  -41.5256 H         1 UNK         0.0903 
     65 H65        14.9125  -23.6393  -44.5562 H         1 UNK         0.3096 
     66 H66        15.9539  -24.8653  -45.9987 H         1 UNK         0.1121 
     67 H67        14.4224  -27.4129  -45.2801 H         1 UNK         0.0849 
     68 H68        13.7007  -26.1340  -46.2096 H         1 UNK         0.0849 
     69 H69        14.6561  -29.3291  -46.6565 H         1 UNK         0.0865 
     70 H70        15.5176  -29.4891  -48.1586 H         1 UNK         0.0865 
     71 H71        15.7994  -30.7341  -45.1170 H         1 UNK         0.1346 
     72 H72        20.0779  -30.8498  -44.9213 H         1 UNK         0.1412 
     73 H73        18.1357  -28.2480  -47.7188 H         1 UNK         0.1426 
     74 H74        20.5298  -28.8613  -47.9592 H         1 UNK         0.0716 
     75 H75        21.3494  -29.8140  -46.7557 H         1 UNK         0.0716 
     76 H76        22.9349  -27.8725  -44.5137 H         1 UNK         0.0695 
     77 H77        21.7641  -29.1630  -44.4517 H         1 UNK         0.0695 
     78 H78        21.2576  -26.3153  -43.4526 H         1 UNK         0.0983 
     79 H79        19.4284  -28.3960  -43.9166 H         1 UNK         0.3095 
     80 H80        17.4481  -28.6098  -43.0986 H         1 UNK         0.0454 
     81 H81        17.4134  -28.4973  -40.5746 H         1 UNK         0.0851 
     82 H82        15.8156  -28.3867  -41.2901 H         1 UNK         0.0851 
     83 H83        16.6111  -26.9370  -40.6769 H         1 UNK         0.0851 
     84 H84        15.5609  -26.7359  -43.0468 H         1 UNK         0.2976 
     85 H85        21.9046  -25.8090  -41.4323 H         1 UNK         0.3116 
     86 H86        22.7106  -27.7719  -39.4382 H         1 UNK         0.0646 
     87 H87        23.0485  -24.7231  -39.5304 H         1 UNK         0.0847 
     88 H88        21.6994  -25.5879  -38.7919 H         1 UNK         0.0847 
     89 H89        23.3159  -25.7462  -38.1265 H         1 UNK         0.0847 
     90 H90        24.2512  -26.2819  -42.1356 H         1 UNK         0.3040 
     91 H91        26.9554  -26.1125  -41.3672 H         1 UNK         0.1015 
     92 H92        27.3734  -26.2391  -43.8371 H         1 UNK         0.0786 
     93 H93        26.0643  -25.1297  -43.4654 H         1 UNK         0.0786 
     94 H94        25.7084  -26.7359  -44.1031 H         1 UNK         0.0786 
     95 H95        28.2799  -27.6449  -40.6841 H         1 UNK         0.3172 
     96 H96        29.2371  -29.5490  -40.1202 H         1 UNK         0.0595 
     97 H97        28.3582  -30.6519  -42.8422 H         1 UNK         0.0839 
     98 H98        29.6659  -31.2606  -41.8404 H         1 UNK         0.0839 
     99 H99        29.7978  -29.6707  -42.5697 H         1 UNK         0.0839 
    100 H100       26.2641  -29.1716  -39.6186 H         1 UNK         0.2998 
    101 H101       24.4933  -30.1257  -38.7493 H         1 UNK         0.0822 
    102 H102       24.7593  -32.0136  -37.1851 H         1 UNK         0.0787 
    103 H103       26.1083  -30.9067  -36.9977 H         1 UNK         0.0787 
    104 H104       26.3236  -32.4225  -37.8729 H         1 UNK         0.0787 
    105 H105       24.9115  -30.5582  -41.5408 H         1 UNK         0.3055 
    106 H106       24.5259  -33.1453  -42.4603 H         1 UNK         0.1106 
    107 H107       25.1575  -31.2985  -43.9411 H         1 UNK         0.0828 
    108 H108       23.6681  -32.0000  -44.5526 H         1 UNK         0.0828 
    109 H109       23.6244  -30.4790  -43.6671 H         1 UNK         0.0828 
    110 H110       21.9958  -30.8321  -41.4762 H         1 UNK         0.2931 
    111 H111       19.9115  -32.9113  -41.7938 H         1 UNK         0.0412 
    112 H112       22.0864  -32.6787  -39.4164 H         1 UNK         0.3472 
    113 H113       21.0245  -32.8778  -38.0440 H         1 UNK         0.3472 
    114 H114       19.2999  -30.0624  -40.9649 H         1 UNK         0.0970 
    115 H115       19.7618  -30.3653  -42.6056 H         1 UNK         0.0970 
    116 H116       18.7308  -32.6268  -43.8940 H         1 UNK         0.0612 
    117 H117       16.9998  -32.6377  -44.0730 H         1 UNK         0.0612 
@<TRIPOS>BOND
     1    1    2 1    
     2    1   62 1    
     3    1   63 1    
     4    1   64 1    
     5    2    3 2    
     6    2    4 am   BACKBONE|DICT|INTERRES
     7    4    5 1    
     8    4   65 1    
     9    5    6 1    
    10    5   25 1    
    11    5   66 1    
    12    6    7 1    
    13    6   67 1    
    14    6   68 1    
    15    7    8 1    
    16    8    9 1    
    17    8   69 1    
    18    8   70 1    
    19    9   10 ar   
    20    9   14 ar   
    21   10   11 ar   
    22   10   71 1    
    23   11   12 ar   
    24   11   61 1    
    25   12   13 ar   
    26   12   72 1    
    27   13   14 ar   
    28   13   15 1    
    29   14   73 1    
    30   15   16 1    
    31   15   74 1    
    32   15   75 1    
    33   16   17 1    
    34   17   18 1    
    35   17   76 1    
    36   17   77 1    
    37   18   19 1    
    38   18   27 1    
    39   18   78 1    
    40   19   20 am   BACKBONE|DICT|INTERRES
    41   19   79 1    
    42   20   21 2    
    43   20   22 1    
    44   22   23 1    
    45   22   24 1    
    46   22   80 1    
    47   23   81 1    
    48   23   82 1    
    49   23   83 1    
    50   24   25 am   BACKBONE|DICT|INTERRES
    51   24   84 1    
    52   25   26 2    
    53   27   28 2    
    54   27   29 am   BACKBONE|DICT|INTERRES
    55   29   30 1    
    56   29   85 1    
    57   30   31 1    
    58   30   32 1    
    59   30   86 1    
    60   31   87 1    
    61   31   88 1    
    62   31   89 1    
    63   32   33 2    
    64   32   34 am   BACKBONE|DICT|INTERRES
    65   34   35 1    
    66   34   90 1    
    67   35   36 1    
    68   35   37 1    
    69   35   91 1    
    70   36   92 1    
    71   36   93 1    
    72   36   94 1    
    73   37   38 2    
    74   37   39 am   BACKBONE|DICT|INTERRES
    75   39   40 1    
    76   39   95 1    
    77   40   41 1    
    78   40   42 1    
    79   40   96 1    
    80   41   97 1    
    81   41   98 1    
    82   41   99 1    
    83   42   43 2    
    84   42   44 am   BACKBONE|DICT|INTERRES
    85   44   45 1    
    86   44  100 1    
    87   45   46 1    
    88   45   47 1    
    89   45  101 1    
    90   46  102 1    
    91   46  103 1    
    92   46  104 1    
    93   47   48 2    
    94   47   49 am   BACKBONE|DICT|INTERRES
    95   49   50 1    
    96   49  105 1    
    97   50   51 1    
    98   50   52 1    
    99   50  106 1    
   100   51  107 1    
   101   51  108 1    
   102   51  109 1    
   103   52   53 2    
   104   52   54 am   BACKBONE|DICT|INTERRES
   105   54   55 1    
   106   54  110 1    
   107   55   56 1    
   108   55   59 1    
   109   55  111 1    
   110   56   57 am   BACKBONE|DICT|INTERRES
   111   56   58 2    
   112   57  112 1    
   113   57  113 1    
   114   59   60 1    
   115   59  114 1    
   116   59  115 1    
   117   60   61 1    
   118   61  116 1    
   119   61  117 1    
@<TRIPOS>SUBSTRUCTURE
     1 UNK         1 GROUP             0       ****    0 ROOT    
