@<TRIPOS>MOLECULE
3R8
117   119    1
SMALL
USER_CHARGES


@<TRIPOS>ATOM
      1 CA         15.4044  -25.3435  -47.0204 C.3       0 UNK        -0.2013 
      2 C          16.7638  -24.6881  -47.2123 C.2       0 UNK         0.4866 
      3 O          16.8377  -23.4742  -47.4031 O.2       0 UNK        -0.5176 
      4 N          17.8398  -25.4848  -47.1647 N.am      1 UNK        -0.4884 
      5 CA         19.2334  -25.0347  -47.2915 C.3       1 UNK         0.0853 
      6 C6         20.1991  -26.2259  -47.5418 C.3       10 UNK        -0.0849 
      7 S7         20.2219  -27.4757  -46.2021 S.3       10 UNK        -0.2776 
      8 C8         19.1473  -28.7705  -46.8896 C.3       10 UNK         0.0316 
      9 C9         18.7378  -29.7641  -45.8143 C.ar      10 UNK        -0.0863 
     10 C10        19.2962  -31.0456  -45.7867 C.ar      10 UNK        -0.1009 
     11 C11        18.8990  -31.9761  -44.8213 C.ar      10 UNK        -0.0712 
     12 C12        17.9360  -31.6072  -43.8747 C.ar      10 UNK        -0.0894 
     13 C13        17.3862  -30.3225  -43.8781 C.ar      10 UNK        -0.0745 
     14 C14        17.7838  -29.4067  -44.8557 C.ar      10 UNK        -0.0972 
     15 C15        16.3548  -29.9384  -42.8287 C.3       10 UNK         0.0209 
     16 S16        17.1455  -29.4562  -41.2610 S.3       10 UNK        -0.2568 
     17 C17        17.6461  -27.7320  -41.5892 C.3       10 UNK        -0.0983 
     18 CA         19.1477  -27.5625  -41.9687 C.3       3 UNK         0.0876 
     19 N          19.3669  -26.3910  -42.8304 N.am      3 UNK        -0.4424 
     20 C          19.0960  -25.1103  -42.5193 C.2       2 UNK         0.4918 
     21 O          18.5383  -24.7487  -41.4829 O.2       2 UNK        -0.4875 
     22 CA         19.4932  -24.0497  -43.5568 C.3       2 UNK         0.0481 
     23 CB         20.9682  -23.6511  -43.3329 C.3       2 UNK        -0.1831 
     24 N          19.2308  -24.5797  -44.8971 N.am      2 UNK        -0.4498 
     25 C          19.6883  -24.1770  -46.0900 C.2       1 UNK         0.5027 
     26 O          20.4188  -23.2032  -46.2764 O.2       1 UNK        -0.4969 
     27 C          20.1076  -27.5513  -40.7502 C.2       3 UNK         0.5005 
     28 O          21.0547  -26.7584  -40.7207 O.2       3 UNK        -0.5279 
     29 N          19.8586  -28.4399  -39.7779 N.am      4 UNK        -0.4463 
     30 CA         20.5342  -28.5942  -38.4840 C.3       4 UNK         0.0283 
     31 CB         20.1869  -27.4153  -37.5490 C.3       4 UNK        -0.1875 
     32 C          22.0500  -28.8318  -38.6090 C.2       4 UNK         0.4949 
     33 O          22.4880  -29.9807  -38.6386 O.2       4 UNK        -0.5039 
     34 N          22.8253  -27.7425  -38.6703 N.am      5 UNK        -0.4663 
     35 CA         24.2710  -27.7599  -38.8849 C.3       5 UNK         0.0242 
     36 CB         24.8545  -26.3911  -38.5011 C.3       5 UNK        -0.1982 
     37 C          24.6573  -28.1235  -40.3282 C.2       5 UNK         0.5017 
     38 O          25.7505  -28.6549  -40.5277 O.2       5 UNK        -0.5012 
     39 N          23.7727  -27.8444  -41.3005 N.am      6 UNK        -0.4439 
     40 CA         23.9628  -28.1280  -42.7274 C.3       6 UNK         0.0297 
     41 CB         22.7682  -27.5849  -43.5260 C.3       6 UNK        -0.2006 
     42 C          24.1535  -29.6320  -42.9776 C.2       6 UNK         0.4892 
     43 O          23.1980  -30.3965  -42.8352 O.2       6 UNK        -0.5089 
     44 N          25.4055  -30.0257  -43.2592 N.am      7 UNK        -0.4243 
     45 CA         25.8973  -31.4063  -43.3942 C.3       7 UNK         0.0196 
     46 CB         25.3190  -32.0566  -44.6696 C.3       7 UNK        -0.2007 
     47 C          25.6650  -32.2796  -42.1397 C.2       7 UNK         0.5020 
     48 O          25.6458  -33.5059  -42.2518 O.2       7 UNK        -0.5147 
     49 N          25.4560  -31.6349  -40.9791 N.am      8 UNK        -0.4734 
     50 CA         24.9800  -32.2056  -39.7108 C.3       8 UNK         0.0238 
     51 CB         26.0710  -33.0897  -39.0703 C.3       8 UNK        -0.1912 
     52 C          23.6169  -32.9289  -39.8265 C.2       8 UNK         0.5038 
     53 O          23.3468  -33.8397  -39.0407 O.2       8 UNK        -0.5046 
     54 N          22.7968  -32.5380  -40.8124 N.am      9 UNK        -0.4200 
     55 CA         21.4951  -33.1367  -41.1123 C.3       9 UNK         0.0839 
     56 C          20.4088  -32.6394  -40.1224 C.2       9 UNK         0.5513 
     57 N          19.9709  -33.4839  -39.1981 N.am      9 UNK        -0.7519 
     58 O          19.9387  -31.5086  -40.2066 O.2       9 UNK        -0.4960 
     59 C59        21.1169  -32.8894  -42.5947 C.3       10 UNK        -0.0876 
     60 S60        19.8571  -34.0645  -43.1880 S.3       10 UNK        -0.2414 
     61 C61        19.4966  -33.3817  -44.8403 C.3       10 UNK         0.0169 
     62 H62        15.4860  -26.4193  -46.8658 H         1 UNK         0.0903 
     63 H63        14.9002  -24.9142  -46.1550 H         1 UNK         0.0903 
     64 H64        14.7796  -25.1740  -47.8969 H         1 UNK         0.0903 
     65 H65        17.7145  -26.4750  -47.0199 H         1 UNK         0.3096 
     66 H66        19.2830  -24.3844  -48.1682 H         1 UNK         0.1121 
     67 H67        21.2182  -25.8583  -47.6772 H         1 UNK         0.0849 
     68 H68        19.9450  -26.7135  -48.4843 H         1 UNK         0.0849 
     69 H69        18.2520  -28.3293  -47.3279 H         1 UNK         0.0865 
     70 H70        19.6702  -29.2728  -47.7052 H         1 UNK         0.0865 
     71 H71        20.0336  -31.3237  -46.5275 H         1 UNK         0.1346 
     72 H72        17.6175  -32.3173  -43.1241 H         1 UNK         0.1412 
     73 H73        17.3543  -28.4146  -44.8680 H         1 UNK         0.1426 
     74 H74        15.6991  -30.7896  -42.6389 H         1 UNK         0.0716 
     75 H75        15.7083  -29.1368  -43.1889 H         1 UNK         0.0716 
     76 H76        17.3943  -27.1261  -40.7167 H         1 UNK         0.0695 
     77 H77        17.0137  -27.3502  -42.3920 H         1 UNK         0.0695 
     78 H78        19.4447  -28.4217  -42.5728 H         1 UNK         0.0983 
     79 H79        19.8779  -26.5736  -43.6827 H         1 UNK         0.3095 
     80 H80        18.8590  -23.1740  -43.4094 H         1 UNK         0.0454 
     81 H81        21.6545  -24.4271  -43.6691 H         1 UNK         0.0851 
     82 H82        21.1726  -23.4701  -42.2764 H         1 UNK         0.0851 
     83 H83        21.2191  -22.7309  -43.8595 H         1 UNK         0.0851 
     84 H84        18.5944  -25.3646  -44.9147 H         1 UNK         0.2976 
     85 H85        19.1227  -29.1150  -39.9544 H         1 UNK         0.3116 
     86 H86        20.1204  -29.4982  -38.0341 H         1 UNK         0.0646 
     87 H87        20.4562  -26.4494  -37.9771 H         1 UNK         0.0847 
     88 H88        20.7037  -27.5076  -36.5927 H         1 UNK         0.0847 
     89 H89        19.1185  -27.3905  -37.3346 H         1 UNK         0.0847 
     90 H90        22.3664  -26.8424  -38.7080 H         1 UNK         0.3040 
     91 H91        24.7077  -28.5163  -38.2286 H         1 UNK         0.1015 
     92 H92        24.4463  -25.5899  -39.1186 H         1 UNK         0.0786 
     93 H93        25.9383  -26.3802  -38.6269 H         1 UNK         0.0786 
     94 H94        24.6486  -26.1503  -37.4580 H         1 UNK         0.0786 
     95 H95        22.8801  -27.4373  -41.0324 H         1 UNK         0.3172 
     96 H96        24.8568  -27.5934  -43.0548 H         1 UNK         0.0595 
     97 H97        22.9306  -27.7059  -44.5977 H         1 UNK         0.0839 
     98 H98        22.6142  -26.5239  -43.3368 H         1 UNK         0.0839 
     99 H99        21.8456  -28.1099  -43.2789 H         1 UNK         0.0839 
    100 H100       26.1205  -29.3114  -43.2957 H         1 UNK         0.2998 
    101 H101       26.9792  -31.3369  -43.5160 H         1 UNK         0.0822 
    102 H102       25.7809  -33.0258  -44.8615 H         1 UNK         0.0787 
    103 H103       24.2438  -32.2199  -44.5876 H         1 UNK         0.0787 
    104 H104       25.4976  -31.4361  -45.5476 H         1 UNK         0.0787 
    105 H105       25.5296  -30.6215  -40.9918 H         1 UNK         0.3055 
    106 H106       24.8079  -31.3597  -39.0434 H         1 UNK         0.1106 
    107 H107       25.7845  -33.3991  -38.0644 H         1 UNK         0.0828 
    108 H108       26.2492  -33.9958  -39.6500 H         1 UNK         0.0828 
    109 H109       27.0163  -32.5540  -38.9846 H         1 UNK         0.0828 
    110 H110       23.0671  -31.7562  -41.4013 H         1 UNK         0.2931 
    111 H111       21.6094  -34.2158  -40.9864 H         1 UNK         0.0412 
    112 H112       20.3684  -34.4068  -39.1137 H         1 UNK         0.3472 
    113 H113       19.2558  -33.1815  -38.5558 H         1 UNK         0.3472 
    114 H114       21.9952  -33.0104  -43.2313 H         1 UNK         0.0970 
    115 H115       20.7786  -31.8621  -42.7465 H         1 UNK         0.0970 
    116 H116       20.4177  -33.3983  -45.4252 H         1 UNK         0.0612 
    117 H117       18.7965  -34.0478  -45.3458 H         1 UNK         0.0612 
@<TRIPOS>BOND
     1    1    2 1    
     2    1   62 1    
     3    1   63 1    
     4    1   64 1    
     5    2    3 2    
     6    2    4 am   BACKBONE|DICT|INTERRES
     7    4    5 1    
     8    4   65 1    
     9    5    6 1    
    10    5   25 1    
    11    5   66 1    
    12    6    7 1    
    13    6   67 1    
    14    6   68 1    
    15    7    8 1    
    16    8    9 1    
    17    8   69 1    
    18    8   70 1    
    19    9   10 ar   
    20    9   14 ar   
    21   10   11 ar   
    22   10   71 1    
    23   11   12 ar   
    24   11   61 1    
    25   12   13 ar   
    26   12   72 1    
    27   13   14 ar   
    28   13   15 1    
    29   14   73 1    
    30   15   16 1    
    31   15   74 1    
    32   15   75 1    
    33   16   17 1    
    34   17   18 1    
    35   17   76 1    
    36   17   77 1    
    37   18   19 1    
    38   18   27 1    
    39   18   78 1    
    40   19   20 am   BACKBONE|DICT|INTERRES
    41   19   79 1    
    42   20   21 2    
    43   20   22 1    
    44   22   23 1    
    45   22   24 1    
    46   22   80 1    
    47   23   81 1    
    48   23   82 1    
    49   23   83 1    
    50   24   25 am   BACKBONE|DICT|INTERRES
    51   24   84 1    
    52   25   26 2    
    53   27   28 2    
    54   27   29 am   BACKBONE|DICT|INTERRES
    55   29   30 1    
    56   29   85 1    
    57   30   31 1    
    58   30   32 1    
    59   30   86 1    
    60   31   87 1    
    61   31   88 1    
    62   31   89 1    
    63   32   33 2    
    64   32   34 am   BACKBONE|DICT|INTERRES
    65   34   35 1    
    66   34   90 1    
    67   35   36 1    
    68   35   37 1    
    69   35   91 1    
    70   36   92 1    
    71   36   93 1    
    72   36   94 1    
    73   37   38 2    
    74   37   39 am   BACKBONE|DICT|INTERRES
    75   39   40 1    
    76   39   95 1    
    77   40   41 1    
    78   40   42 1    
    79   40   96 1    
    80   41   97 1    
    81   41   98 1    
    82   41   99 1    
    83   42   43 2    
    84   42   44 am   BACKBONE|DICT|INTERRES
    85   44   45 1    
    86   44  100 1    
    87   45   46 1    
    88   45   47 1    
    89   45  101 1    
    90   46  102 1    
    91   46  103 1    
    92   46  104 1    
    93   47   48 2    
    94   47   49 am   BACKBONE|DICT|INTERRES
    95   49   50 1    
    96   49  105 1    
    97   50   51 1    
    98   50   52 1    
    99   50  106 1    
   100   51  107 1    
   101   51  108 1    
   102   51  109 1    
   103   52   53 2    
   104   52   54 am   BACKBONE|DICT|INTERRES
   105   54   55 1    
   106   54  110 1    
   107   55   56 1    
   108   55   59 1    
   109   55  111 1    
   110   56   57 am   BACKBONE|DICT|INTERRES
   111   56   58 2    
   112   57  112 1    
   113   57  113 1    
   114   59   60 1    
   115   59  114 1    
   116   59  115 1    
   117   60   61 1    
   118   61  116 1    
   119   61  117 1    
@<TRIPOS>SUBSTRUCTURE
     1 UNK         1 GROUP             0       ****    0 ROOT    
