@<TRIPOS>MOLECULE
3R8
117   119    1
SMALL
USER_CHARGES


@<TRIPOS>ATOM
      1 CA         15.0376  -23.0782  -44.2620 C.3       0 UNK        -0.2013 
      2 C          15.4723  -24.3285  -43.5119 C.2       0 UNK         0.4866 
      3 O          15.4261  -24.3450  -42.2820 O.2       0 UNK        -0.5176 
      4 N          15.8901  -25.3677  -44.2488 N.am      1 UNK        -0.4884 
      5 CA         16.3645  -26.6668  -43.7495 C.3       1 UNK         0.0853 
      6 C6         15.2397  -27.5394  -43.1211 C.3       10 UNK        -0.0849 
      7 S7         14.2460  -28.3430  -44.4233 S.3       10 UNK        -0.2776 
      8 C8         15.0425  -29.9855  -44.5245 C.3       10 UNK         0.0316 
      9 C9         16.5412  -29.8854  -44.7877 C.ar      10 UNK        -0.0863 
     10 C10        17.4568  -30.1277  -43.7565 C.ar      10 UNK        -0.1009 
     11 C11        18.8283  -29.9907  -43.9840 C.ar      10 UNK        -0.0712 
     12 C12        19.2832  -29.6346  -45.2530 C.ar      10 UNK        -0.0894 
     13 C13        18.3833  -29.3696  -46.2884 C.ar      10 UNK        -0.0745 
     14 C14        17.0113  -29.5110  -46.0520 C.ar      10 UNK        -0.0972 
     15 C15        18.8891  -28.9365  -47.6593 C.3       10 UNK         0.0209 
     16 S16        19.6232  -27.2631  -47.6369 S.3       10 UNK        -0.2568 
     17 C17        21.3561  -27.6183  -47.1712 C.3       10 UNK        -0.0983 
     18 CA         21.8990  -26.7929  -45.9700 C.3       3 UNK         0.0876 
     19 N          20.9389  -26.6356  -44.8718 N.am      3 UNK        -0.4424 
     20 C          21.0617  -25.7245  -43.8956 C.2       2 UNK         0.4918 
     21 O          21.9759  -24.9004  -43.8474 O.2       2 UNK        -0.4875 
     22 CA         19.9652  -25.7116  -42.8186 C.3       2 UNK         0.0481 
     23 CB         19.9627  -24.4275  -41.9650 C.3       2 UNK        -0.1831 
     24 N          18.6542  -25.9001  -43.4345 N.am      2 UNK        -0.4498 
     25 C          17.6212  -26.5316  -42.8647 C.2       1 UNK         0.5027 
     26 O          17.6427  -26.9877  -41.7197 O.2       1 UNK        -0.4969 
     27 C          23.2081  -27.4236  -45.4508 C.2       3 UNK         0.5005 
     28 O          23.1574  -28.2952  -44.5760 O.2       3 UNK        -0.5279 
     29 N          24.3427  -27.0103  -46.0354 N.am      4 UNK        -0.4463 
     30 CA         25.6989  -27.5045  -45.7694 C.3       4 UNK         0.0283 
     31 CB         25.8731  -28.9284  -46.3480 C.3       4 UNK        -0.1875 
     32 C          26.0782  -27.3766  -44.2802 C.2       4 UNK         0.4949 
     33 O          26.2104  -26.2542  -43.7911 O.2       4 UNK        -0.5039 
     34 N          26.2412  -28.5131  -43.5900 N.am      5 UNK        -0.4663 
     35 CA         26.5678  -28.5898  -42.1644 C.3       5 UNK         0.0242 
     36 CB         27.0765  -30.0056  -41.8465 C.3       5 UNK        -0.1982 
     37 C          25.3975  -28.2247  -41.2336 C.2       5 UNK         0.5017 
     38 O          25.6508  -27.9156  -40.0684 O.2       5 UNK        -0.5012 
     39 N          24.1543  -28.2862  -41.7393 N.am      6 UNK        -0.4439 
     40 CA         22.8751  -28.0245  -41.0635 C.3       6 UNK         0.0297 
     41 CB         22.7858  -26.5681  -40.5657 C.3       6 UNK        -0.2006 
     42 C          22.5340  -29.0207  -39.9394 C.2       6 UNK         0.4892 
     43 O          21.5130  -29.7024  -40.0185 O.2       6 UNK        -0.5089 
     44 N          23.3943  -29.0934  -38.9172 N.am      7 UNK        -0.4243 
     45 CA         23.2365  -29.9176  -37.7152 C.3       7 UNK         0.0196 
     46 CB         24.2468  -29.4433  -36.6578 C.3       7 UNK        -0.2007 
     47 C          23.3844  -31.4303  -37.9600 C.2       7 UNK         0.5020 
     48 O          22.9964  -32.2175  -37.0969 O.2       7 UNK        -0.5147 
     49 N          23.9465  -31.8164  -39.1133 N.am      8 UNK        -0.4734 
     50 CA         24.1326  -33.2100  -39.5267 C.3       8 UNK         0.0238 
     51 CB         25.1292  -33.2538  -40.6969 C.3       8 UNK        -0.1912 
     52 C          22.8237  -33.9259  -39.9110 C.2       8 UNK         0.5038 
     53 O          22.7955  -35.1575  -39.8991 O.2       8 UNK        -0.5046 
     54 N          21.7838  -33.1603  -40.2667 N.am      9 UNK        -0.4200 
     55 CA         20.4641  -33.6695  -40.6661 C.3       9 UNK         0.0839 
     56 C          19.6869  -34.2956  -39.4776 C.2       9 UNK         0.5513 
     57 N          18.9493  -35.3711  -39.7174 N.am      9 UNK        -0.7519 
     58 O          19.7087  -33.7906  -38.3572 O.2       9 UNK        -0.4960 
     59 C59        19.6160  -32.5731  -41.3583 C.3       10 UNK        -0.0876 
     60 S60        20.4530  -31.9000  -42.8338 S.3       10 UNK        -0.2414 
     61 C61        19.8342  -30.1917  -42.8644 C.3       10 UNK         0.0169 
     62 H62        13.9994  -22.8433  -44.0288 H         1 UNK         0.0903 
     63 H63        15.1231  -23.1977  -45.3420 H         1 UNK         0.0903 
     64 H64        15.6536  -22.2297  -43.9652 H         1 UNK         0.0903 
     65 H65        15.8864  -25.2768  -45.2557 H         1 UNK         0.3096 
     66 H66        16.7330  -27.1859  -44.6332 H         1 UNK         0.1121 
     67 H67        14.5859  -26.9413  -42.4851 H         1 UNK         0.0849 
     68 H68        15.6369  -28.3222  -42.4734 H         1 UNK         0.0849 
     69 H69        14.8492  -30.5348  -43.6016 H         1 UNK         0.0865 
     70 H70        14.5715  -30.5605  -45.3231 H         1 UNK         0.0865 
     71 H71        17.1047  -30.4018  -42.7713 H         1 UNK         0.1346 
     72 H72        20.3468  -29.5577  -45.4164 H         1 UNK         0.1412 
     73 H73        16.3029  -29.3083  -46.8441 H         1 UNK         0.1426 
     74 H74        19.6106  -29.6626  -48.0363 H         1 UNK         0.0716 
     75 H75        18.0677  -28.9340  -48.3774 H         1 UNK         0.0716 
     76 H76        21.9697  -27.4119  -48.0500 H         1 UNK         0.0695 
     77 H77        21.4743  -28.6887  -47.0042 H         1 UNK         0.0695 
     78 H78        22.1255  -25.7893  -46.3379 H         1 UNK         0.0983 
     79 H79        20.1720  -27.2906  -44.8495 H         1 UNK         0.3095 
     80 H80        20.1776  -26.5591  -42.1641 H         1 UNK         0.0454 
     81 H81        19.2100  -24.4760  -41.1781 H         1 UNK         0.0851 
     82 H82        19.7566  -23.5448  -42.5711 H         1 UNK         0.0851 
     83 H83        20.9260  -24.2721  -41.4784 H         1 UNK         0.0851 
     84 H84        18.5475  -25.5345  -44.3715 H         1 UNK         0.2976 
     85 H85        24.2836  -26.2696  -46.7209 H         1 UNK         0.3116 
     86 H86        26.3807  -26.8471  -46.3112 H         1 UNK         0.0646 
     87 H87        25.6923  -28.9351  -47.4229 H         1 UNK         0.0847 
     88 H88        26.8895  -29.2953  -46.1975 H         1 UNK         0.0847 
     89 H89        25.1870  -29.6479  -45.8996 H         1 UNK         0.0847 
     90 H90        26.0966  -29.3885  -44.0725 H         1 UNK         0.3040 
     91 H91        27.3735  -27.8813  -41.9582 H         1 UNK         0.1015 
     92 H92        27.9723  -30.2431  -42.4208 H         1 UNK         0.0786 
     93 H93        26.3248  -30.7633  -42.0689 H         1 UNK         0.0786 
     94 H94        27.3367  -30.1027  -40.7913 H         1 UNK         0.0786 
     95 H95        24.0630  -28.5242  -42.7234 H         1 UNK         0.3172 
     96 H96        22.1141  -28.1455  -41.8340 H         1 UNK         0.0595 
     97 H97        22.9637  -25.8627  -41.3771 H         1 UNK         0.0839 
     98 H98        23.5086  -26.3529  -39.7785 H         1 UNK         0.0839 
     99 H99        21.7962  -26.3570  -40.1586 H         1 UNK         0.0839 
    100 H100       24.2448  -28.5401  -38.9931 H         1 UNK         0.2998 
    101 H101       22.2290  -29.7533  -37.3269 H         1 UNK         0.0822 
    102 H102       24.0971  -28.3924  -36.4093 H         1 UNK         0.0787 
    103 H103       24.1425  -30.0113  -35.7322 H         1 UNK         0.0787 
    104 H104       25.2751  -29.5641  -37.0015 H         1 UNK         0.0787 
    105 H105       24.2424  -31.0994  -39.7588 H         1 UNK         0.3055 
    106 H106       24.5644  -33.7596  -38.6869 H         1 UNK         0.1106 
    107 H107       26.0887  -32.8169  -40.4196 H         1 UNK         0.0828 
    108 H108       25.3224  -34.2822  -41.0059 H         1 UNK         0.0828 
    109 H109       24.7514  -32.7188  -41.5691 H         1 UNK         0.0828 
    110 H110       21.8786  -32.1551  -40.2248 H         1 UNK         0.2931 
    111 H111       20.6392  -34.4595  -41.4000 H         1 UNK         0.0412 
    112 H112       18.9170  -35.7870  -40.6358 H         1 UNK         0.3472 
    113 H113       18.4228  -35.7835  -38.9627 H         1 UNK         0.3472 
    114 H114       18.6489  -32.9706  -41.6720 H         1 UNK         0.0970 
    115 H115       19.4049  -31.7688  -40.6510 H         1 UNK         0.0970 
    116 H116       19.3997  -29.9039  -41.9063 H         1 UNK         0.0612 
    117 H117       20.6841  -29.5261  -43.0173 H         1 UNK         0.0612 
@<TRIPOS>BOND
     1    1    2 1    
     2    1   62 1    
     3    1   63 1    
     4    1   64 1    
     5    2    3 2    
     6    2    4 am   BACKBONE|DICT|INTERRES
     7    4    5 1    
     8    4   65 1    
     9    5    6 1    
    10    5   25 1    
    11    5   66 1    
    12    6    7 1    
    13    6   67 1    
    14    6   68 1    
    15    7    8 1    
    16    8    9 1    
    17    8   69 1    
    18    8   70 1    
    19    9   10 ar   
    20    9   14 ar   
    21   10   11 ar   
    22   10   71 1    
    23   11   12 ar   
    24   11   61 1    
    25   12   13 ar   
    26   12   72 1    
    27   13   14 ar   
    28   13   15 1    
    29   14   73 1    
    30   15   16 1    
    31   15   74 1    
    32   15   75 1    
    33   16   17 1    
    34   17   18 1    
    35   17   76 1    
    36   17   77 1    
    37   18   19 1    
    38   18   27 1    
    39   18   78 1    
    40   19   20 am   BACKBONE|DICT|INTERRES
    41   19   79 1    
    42   20   21 2    
    43   20   22 1    
    44   22   23 1    
    45   22   24 1    
    46   22   80 1    
    47   23   81 1    
    48   23   82 1    
    49   23   83 1    
    50   24   25 am   BACKBONE|DICT|INTERRES
    51   24   84 1    
    52   25   26 2    
    53   27   28 2    
    54   27   29 am   BACKBONE|DICT|INTERRES
    55   29   30 1    
    56   29   85 1    
    57   30   31 1    
    58   30   32 1    
    59   30   86 1    
    60   31   87 1    
    61   31   88 1    
    62   31   89 1    
    63   32   33 2    
    64   32   34 am   BACKBONE|DICT|INTERRES
    65   34   35 1    
    66   34   90 1    
    67   35   36 1    
    68   35   37 1    
    69   35   91 1    
    70   36   92 1    
    71   36   93 1    
    72   36   94 1    
    73   37   38 2    
    74   37   39 am   BACKBONE|DICT|INTERRES
    75   39   40 1    
    76   39   95 1    
    77   40   41 1    
    78   40   42 1    
    79   40   96 1    
    80   41   97 1    
    81   41   98 1    
    82   41   99 1    
    83   42   43 2    
    84   42   44 am   BACKBONE|DICT|INTERRES
    85   44   45 1    
    86   44  100 1    
    87   45   46 1    
    88   45   47 1    
    89   45  101 1    
    90   46  102 1    
    91   46  103 1    
    92   46  104 1    
    93   47   48 2    
    94   47   49 am   BACKBONE|DICT|INTERRES
    95   49   50 1    
    96   49  105 1    
    97   50   51 1    
    98   50   52 1    
    99   50  106 1    
   100   51  107 1    
   101   51  108 1    
   102   51  109 1    
   103   52   53 2    
   104   52   54 am   BACKBONE|DICT|INTERRES
   105   54   55 1    
   106   54  110 1    
   107   55   56 1    
   108   55   59 1    
   109   55  111 1    
   110   56   57 am   BACKBONE|DICT|INTERRES
   111   56   58 2    
   112   57  112 1    
   113   57  113 1    
   114   59   60 1    
   115   59  114 1    
   116   59  115 1    
   117   60   61 1    
   118   61  116 1    
   119   61  117 1    
@<TRIPOS>SUBSTRUCTURE
     1 UNK         1 GROUP             0       ****    0 ROOT    
