@<TRIPOS>MOLECULE
3R8
117   119    1
SMALL
USER_CHARGES


@<TRIPOS>ATOM
      1 CA         14.0656  -24.2972  -42.3975 C.3       0 UNK        -0.2013 
      2 C          14.2185  -24.7705  -43.8352 C.2       0 UNK         0.4866 
      3 O          13.2182  -24.9966  -44.5164 O.2       0 UNK        -0.5176 
      4 N          15.4617  -24.9201  -44.3008 N.am      1 UNK        -0.4884 
      5 CA         15.8285  -25.3250  -45.6572 C.3       1 UNK         0.0853 
      6 C6         15.5414  -26.8353  -45.9405 C.3       10 UNK        -0.0849 
      7 S7         16.8200  -28.0206  -45.3880 S.3       10 UNK        -0.2776 
      8 C8         16.3256  -28.3548  -43.6732 C.3       10 UNK         0.0316 
      9 C9         17.5395  -28.7866  -42.8678 C.ar      10 UNK        -0.0863 
     10 C10        17.9787  -30.1127  -42.9107 C.ar      10 UNK        -0.1009 
     11 C11        19.1235  -30.5039  -42.2101 C.ar      10 UNK        -0.0712 
     12 C12        19.8254  -29.5583  -41.4560 C.ar      10 UNK        -0.0894 
     13 C13        19.3840  -28.2329  -41.3916 C.ar      10 UNK        -0.0745 
     14 C14        18.2419  -27.8522  -42.1018 C.ar      10 UNK        -0.0972 
     15 C15        20.1320  -27.2154  -40.5432 C.3       10 UNK         0.0209 
     16 S16        21.6407  -26.6156  -41.3620 S.3       10 UNK        -0.2568 
     17 C17        20.9822  -25.6895  -42.7947 C.3       10 UNK        -0.0983 
     18 CA         21.0982  -26.4404  -44.1493 C.3       3 UNK         0.0876 
     19 N          20.3490  -25.7259  -45.1854 N.am      3 UNK        -0.4424 
     20 C          20.1333  -26.1377  -46.4405 C.2       2 UNK         0.4918 
     21 O          20.5153  -27.2205  -46.8882 O.2       2 UNK        -0.4875 
     22 CA         19.3036  -25.1829  -47.3247 C.3       2 UNK         0.0481 
     23 CB         19.5262  -25.4371  -48.8267 C.3       2 UNK        -0.1831 
     24 N          17.8755  -25.3094  -47.0257 N.am      2 UNK        -0.4498 
     25 C          17.2838  -24.8717  -45.9056 C.2       1 UNK         0.5027 
     26 O          17.8573  -24.1649  -45.0684 O.2       1 UNK        -0.4969 
     27 C          22.5747  -26.6562  -44.5533 C.2       3 UNK         0.5005 
     28 O          23.1644  -25.8119  -45.2327 O.2       3 UNK        -0.5279 
     29 N          23.1622  -27.7527  -44.0569 N.am      4 UNK        -0.4463 
     30 CA         24.5823  -28.0976  -44.1820 C.3       4 UNK         0.0283 
     31 CB         24.7199  -29.6242  -44.0333 C.3       4 UNK        -0.1875 
     32 C          25.4860  -27.3645  -43.1647 C.2       4 UNK         0.4949 
     33 O          26.6581  -27.7207  -43.0451 O.2       4 UNK        -0.5039 
     34 N          24.9244  -26.3934  -42.4259 N.am      5 UNK        -0.4663 
     35 CA         25.5016  -25.6664  -41.2838 C.3       5 UNK         0.0242 
     36 CB         26.7800  -24.8975  -41.6808 C.3       5 UNK        -0.1982 
     37 C          25.6954  -26.5551  -40.0374 C.2       5 UNK         0.5017 
     38 O          26.4747  -26.2080  -39.1484 O.2       5 UNK        -0.5012 
     39 N          24.9625  -27.6716  -39.9895 N.am      6 UNK        -0.4439 
     40 CA         24.9257  -28.6836  -38.9436 C.3       6 UNK         0.0297 
     41 CB         26.2445  -29.4812  -38.9142 C.3       6 UNK        -0.2006 
     42 C          23.7486  -29.6099  -39.2648 C.2       6 UNK         0.4892 
     43 O          23.3199  -29.6726  -40.4217 O.2       6 UNK        -0.5089 
     44 N          23.2795  -30.3580  -38.2594 N.am      7 UNK        -0.4243 
     45 CA         22.2051  -31.3532  -38.3693 C.3       7 UNK         0.0196 
     46 CB         21.5992  -31.5902  -36.9736 C.3       7 UNK        -0.2007 
     47 C          22.6635  -32.6643  -39.0457 C.2       7 UNK         0.5020 
     48 O          22.3348  -33.7547  -38.5756 O.2       7 UNK        -0.5147 
     49 N          23.4097  -32.5483  -40.1503 N.am      8 UNK        -0.4734 
     50 CA         23.9479  -33.6488  -40.9541 C.3       8 UNK         0.0238 
     51 CB         25.2206  -33.1578  -41.6701 C.3       8 UNK        -0.1912 
     52 C          22.8907  -34.2007  -41.9299 C.2       8 UNK         0.5038 
     53 O          23.1401  -34.2843  -43.1338 O.2       8 UNK        -0.5046 
     54 N          21.7125  -34.5304  -41.3911 N.am      9 UNK        -0.4200 
     55 CA         20.5300  -34.9788  -42.1391 C.3       9 UNK         0.0839 
     56 C          20.5596  -36.4770  -42.5591 C.2       9 UNK         0.5513 
     57 N          21.5235  -37.2766  -42.1184 N.am      9 UNK        -0.7519 
     58 O          19.6918  -36.9205  -43.3067 O.2       9 UNK        -0.4960 
     59 C59        19.2168  -34.6346  -41.3831 C.3       10 UNK        -0.0876 
     60 S60        19.0370  -32.8959  -40.8359 S.3       10 UNK        -0.2414 
     61 C61        19.6026  -31.9450  -42.2807 C.3       10 UNK         0.0169 
     62 H62        15.0301  -24.1442  -41.9137 H         1 UNK         0.0903 
     63 H63        13.5182  -23.3554  -42.3685 H         1 UNK         0.0903 
     64 H64        13.5090  -25.0332  -41.8178 H         1 UNK         0.0903 
     65 H65        16.2609  -24.6463  -43.7408 H         1 UNK         0.3096 
     66 H66        15.2159  -24.7329  -46.3412 H         1 UNK         0.1121 
     67 H67        14.5775  -27.1333  -45.5258 H         1 UNK         0.0849 
     68 H68        15.4317  -26.9757  -47.0168 H         1 UNK         0.0849 
     69 H69        15.8773  -27.4658  -43.2287 H         1 UNK         0.0865 
     70 H70        15.5584  -29.1303  -43.6564 H         1 UNK         0.0865 
     71 H71        17.4372  -30.8364  -43.5048 H         1 UNK         0.1346 
     72 H72        20.7153  -29.8524  -40.9184 H         1 UNK         0.1412 
     73 H73        17.9040  -26.8255  -42.0664 H         1 UNK         0.1426 
     74 H74        20.4107  -27.6741  -39.5933 H         1 UNK         0.0716 
     75 H75        19.4912  -26.3678  -40.2952 H         1 UNK         0.0716 
     76 H76        21.5028  -24.7311  -42.8460 H         1 UNK         0.0695 
     77 H77        19.9387  -25.4420  -42.5945 H         1 UNK         0.0695 
     78 H78        20.6255  -27.4202  -44.0465 H         1 UNK         0.0983 
     79 H79        19.9303  -24.8470  -44.9091 H         1 UNK         0.3095 
     80 H80        19.6210  -24.1599  -47.1112 H         1 UNK         0.0454 
     81 H81        19.1951  -26.4326  -49.1250 H         1 UNK         0.0851 
     82 H82        20.5837  -25.3561  -49.0818 H         1 UNK         0.0851 
     83 H83        18.9906  -24.7091  -49.4360 H         1 UNK         0.0851 
     84 H84        17.3491  -25.9170  -47.6368 H         1 UNK         0.2976 
     85 H85        22.6112  -28.3630  -43.4680 H         1 UNK         0.3116 
     86 H86        24.9261  -27.8185  -45.1801 H         1 UNK         0.0646 
     87 H87        24.4226  -29.9591  -43.0386 H         1 UNK         0.0847 
     88 H88        25.7505  -29.9456  -44.1898 H         1 UNK         0.0847 
     89 H89        24.1068  -30.1531  -44.7632 H         1 UNK         0.0847 
     90 H90        23.9514  -26.1910  -42.6108 H         1 UNK         0.3040 
     91 H91        24.7542  -24.9246  -40.9974 H         1 UNK         0.1015 
     92 H92        27.6153  -25.5694  -41.8791 H         1 UNK         0.0786 
     93 H93        27.0929  -24.2237  -40.8823 H         1 UNK         0.0786 
     94 H94        26.6178  -24.2894  -42.5707 H         1 UNK         0.0786 
     95 H95        24.3223  -27.8691  -40.7504 H         1 UNK         0.3172 
     96 H96        24.7516  -28.1989  -37.9811 H         1 UNK         0.0595 
     97 H97        26.2122  -30.2712  -38.1629 H         1 UNK         0.0839 
     98 H98        27.0943  -28.8440  -38.6699 H         1 UNK         0.0839 
     99 H99        26.4484  -29.9537  -39.8763 H         1 UNK         0.0839 
    100 H100       23.7176  -30.2749  -37.3530 H         1 UNK         0.2998 
    101 H101       21.4154  -30.9400  -38.9989 H         1 UNK         0.0822 
    102 H102       20.7458  -32.2678  -37.0270 H         1 UNK         0.0787 
    103 H103       22.3246  -32.0308  -36.2885 H         1 UNK         0.0787 
    104 H104       21.2409  -30.6596  -36.5329 H         1 UNK         0.0787 
    105 H105       23.5670  -31.6068  -40.4980 H         1 UNK         0.3055 
    106 H106       24.2318  -34.4688  -40.2905 H         1 UNK         0.1106 
    107 H107       25.6856  -33.9639  -42.2392 H         1 UNK         0.0828 
    108 H108       25.0044  -32.3482  -42.3679 H         1 UNK         0.0828 
    109 H109       25.9628  -32.7969  -40.9578 H         1 UNK         0.0828 
    110 H110       21.6033  -34.4265  -40.3886 H         1 UNK         0.2931 
    111 H111       20.5159  -34.4288  -43.0812 H         1 UNK         0.0412 
    112 H112       22.2404  -36.9231  -41.5054 H         1 UNK         0.3472 
    113 H113       21.5324  -38.2442  -42.4020 H         1 UNK         0.3472 
    114 H114       18.3538  -34.8688  -42.0094 H         1 UNK         0.0970 
    115 H115       19.1202  -35.2662  -40.4980 H         1 UNK         0.0970 
    116 H116       19.2322  -32.4142  -43.1934 H         1 UNK         0.0612 
    117 H117       20.6919  -31.9707  -42.3333 H         1 UNK         0.0612 
@<TRIPOS>BOND
     1    1    2 1    
     2    1   62 1    
     3    1   63 1    
     4    1   64 1    
     5    2    3 2    
     6    2    4 am   BACKBONE|DICT|INTERRES
     7    4    5 1    
     8    4   65 1    
     9    5    6 1    
    10    5   25 1    
    11    5   66 1    
    12    6    7 1    
    13    6   67 1    
    14    6   68 1    
    15    7    8 1    
    16    8    9 1    
    17    8   69 1    
    18    8   70 1    
    19    9   10 ar   
    20    9   14 ar   
    21   10   11 ar   
    22   10   71 1    
    23   11   12 ar   
    24   11   61 1    
    25   12   13 ar   
    26   12   72 1    
    27   13   14 ar   
    28   13   15 1    
    29   14   73 1    
    30   15   16 1    
    31   15   74 1    
    32   15   75 1    
    33   16   17 1    
    34   17   18 1    
    35   17   76 1    
    36   17   77 1    
    37   18   19 1    
    38   18   27 1    
    39   18   78 1    
    40   19   20 am   BACKBONE|DICT|INTERRES
    41   19   79 1    
    42   20   21 2    
    43   20   22 1    
    44   22   23 1    
    45   22   24 1    
    46   22   80 1    
    47   23   81 1    
    48   23   82 1    
    49   23   83 1    
    50   24   25 am   BACKBONE|DICT|INTERRES
    51   24   84 1    
    52   25   26 2    
    53   27   28 2    
    54   27   29 am   BACKBONE|DICT|INTERRES
    55   29   30 1    
    56   29   85 1    
    57   30   31 1    
    58   30   32 1    
    59   30   86 1    
    60   31   87 1    
    61   31   88 1    
    62   31   89 1    
    63   32   33 2    
    64   32   34 am   BACKBONE|DICT|INTERRES
    65   34   35 1    
    66   34   90 1    
    67   35   36 1    
    68   35   37 1    
    69   35   91 1    
    70   36   92 1    
    71   36   93 1    
    72   36   94 1    
    73   37   38 2    
    74   37   39 am   BACKBONE|DICT|INTERRES
    75   39   40 1    
    76   39   95 1    
    77   40   41 1    
    78   40   42 1    
    79   40   96 1    
    80   41   97 1    
    81   41   98 1    
    82   41   99 1    
    83   42   43 2    
    84   42   44 am   BACKBONE|DICT|INTERRES
    85   44   45 1    
    86   44  100 1    
    87   45   46 1    
    88   45   47 1    
    89   45  101 1    
    90   46  102 1    
    91   46  103 1    
    92   46  104 1    
    93   47   48 2    
    94   47   49 am   BACKBONE|DICT|INTERRES
    95   49   50 1    
    96   49  105 1    
    97   50   51 1    
    98   50   52 1    
    99   50  106 1    
   100   51  107 1    
   101   51  108 1    
   102   51  109 1    
   103   52   53 2    
   104   52   54 am   BACKBONE|DICT|INTERRES
   105   54   55 1    
   106   54  110 1    
   107   55   56 1    
   108   55   59 1    
   109   55  111 1    
   110   56   57 am   BACKBONE|DICT|INTERRES
   111   56   58 2    
   112   57  112 1    
   113   57  113 1    
   114   59   60 1    
   115   59  114 1    
   116   59  115 1    
   117   60   61 1    
   118   61  116 1    
   119   61  117 1    
@<TRIPOS>SUBSTRUCTURE
     1 UNK         1 GROUP             0       ****    0 ROOT    
