@<TRIPOS>MOLECULE
3R8
117   119    1
SMALL
USER_CHARGES


@<TRIPOS>ATOM
      1 CA         16.5498  -24.0984  -47.1053 C.3       0 UNK        -0.2013 
      2 C          17.9557  -24.6786  -47.1373 C.2       0 UNK         0.4866 
      3 O          18.8633  -24.0572  -47.6901 O.2       0 UNK        -0.5176 
      4 N          18.1442  -25.8643  -46.5443 N.am      1 UNK        -0.4884 
      5 CA         19.4278  -26.5793  -46.4975 C.3       1 UNK         0.0853 
      6 C6         19.2327  -28.0995  -46.2740 C.3       10 UNK        -0.0849 
      7 S7         18.2995  -28.9274  -47.6114 S.3       10 UNK        -0.2776 
      8 C8         16.6500  -29.2166  -46.8809 C.3       10 UNK         0.0316 
      9 C9         16.7148  -29.8610  -45.5020 C.ar      10 UNK        -0.0863 
     10 C10        17.2338  -31.1489  -45.3383 C.ar      10 UNK        -0.1009 
     11 C11        17.3409  -31.7120  -44.0625 C.ar      10 UNK        -0.0712 
     12 C12        16.9214  -30.9810  -42.9459 C.ar      10 UNK        -0.0894 
     13 C13        16.3809  -29.7018  -43.1009 C.ar      10 UNK        -0.0745 
     14 C14        16.2729  -29.1522  -44.3815 C.ar      10 UNK        -0.0972 
     15 C15        15.8789  -28.9179  -41.8979 C.3       10 UNK         0.0209 
     16 S16        16.7872  -27.3551  -41.6776 S.3       10 UNK        -0.2568 
     17 C17        18.0900  -27.7851  -40.4676 C.3       10 UNK        -0.0983 
     18 CA         19.5495  -27.5921  -40.9734 C.3       3 UNK         0.0876 
     19 N          19.6853  -26.3980  -41.8133 N.am      3 UNK        -0.4424 
     20 C          20.8011  -25.8574  -42.3210 C.2       2 UNK         0.4918 
     21 O          21.9463  -26.2639  -42.1062 O.2       2 UNK        -0.4875 
     22 CA         20.5470  -24.6876  -43.2895 C.3       2 UNK         0.0481 
     23 CB         21.8078  -23.8543  -43.5978 C.3       2 UNK        -0.1831 
     24 N          19.8919  -25.1695  -44.5143 N.am      2 UNK        -0.4498 
     25 C          20.3912  -26.0251  -45.4241 C.2       1 UNK         0.5027 
     26 O          21.5575  -26.4170  -45.4311 O.2       1 UNK        -0.4969 
     27 C          20.5118  -27.5587  -39.7684 C.2       3 UNK         0.5005 
     28 O          20.4723  -26.5982  -38.9955 O.2       3 UNK        -0.5279 
     29 N          21.3710  -28.5787  -39.6459 N.am      4 UNK        -0.4463 
     30 CA         22.4124  -28.7904  -38.6277 C.3       4 UNK         0.0283 
     31 CB         21.8232  -28.8377  -37.2049 C.3       4 UNK        -0.1875 
     32 C          23.6032  -27.8171  -38.7097 C.2       4 UNK         0.4949 
     33 O          24.7229  -28.2261  -38.4040 O.2       4 UNK        -0.5039 
     34 N          23.3601  -26.5680  -39.1253 N.am      5 UNK        -0.4663 
     35 CA         24.3679  -25.5282  -39.3301 C.3       5 UNK         0.0242 
     36 CB         23.6728  -24.1759  -39.5587 C.3       5 UNK        -0.1982 
     37 C          25.3263  -25.8615  -40.4837 C.2       5 UNK         0.5017 
     38 O          26.5413  -25.7938  -40.2924 O.2       5 UNK        -0.5012 
     39 N          24.7664  -26.2288  -41.6444 N.am      6 UNK        -0.4439 
     40 CA         25.5264  -26.6800  -42.8112 C.3       6 UNK         0.0297 
     41 CB         24.8836  -26.1442  -44.0975 C.3       6 UNK        -0.2006 
     42 C          25.6241  -28.2101  -42.8558 C.2       6 UNK         0.4892 
     43 O          26.7076  -28.7311  -43.1239 O.2       6 UNK        -0.5089 
     44 N          24.5087  -28.9039  -42.5922 N.am      7 UNK        -0.4243 
     45 CA         24.4254  -30.3619  -42.5890 C.3       7 UNK         0.0196 
     46 CB         24.2542  -30.8893  -44.0258 C.3       7 UNK        -0.2007 
     47 C          23.2515  -30.8010  -41.7130 C.2       7 UNK         0.5020 
     48 O          22.1836  -30.1882  -41.7730 O.2       7 UNK        -0.5147 
     49 N          23.4617  -31.8669  -40.9326 N.am      8 UNK        -0.4734 
     50 CA         22.4414  -32.4964  -40.0842 C.3       8 UNK         0.0238 
     51 CB         23.1134  -33.0058  -38.7972 C.3       8 UNK        -0.1912 
     52 C          21.6885  -33.6370  -40.7961 C.2       8 UNK         0.5038 
     53 O          20.7521  -34.1855  -40.2141 O.2       8 UNK        -0.5046 
     54 N          22.1111  -33.9762  -42.0227 N.am      9 UNK        -0.4200 
     55 CA         21.5429  -35.0174  -42.8991 C.3       9 UNK         0.0839 
     56 C          21.8101  -36.4799  -42.4295 C.2       9 UNK         0.5513 
     57 N          22.7259  -36.7202  -41.4988 N.am      9 UNK        -0.7519 
     58 O          21.2017  -37.4187  -42.9376 O.2       9 UNK        -0.4960 
     59 C59        20.0486  -34.7768  -43.2635 C.3       10 UNK        -0.0876 
     60 S60        19.7201  -33.0962  -43.8936 S.3       10 UNK        -0.2414 
     61 C61        17.9039  -33.1123  -43.8885 C.3       10 UNK         0.0169 
     62 H62        15.8502  -24.7494  -46.5813 H         1 UNK         0.0903 
     63 H63        16.5540  -23.1311  -46.6034 H         1 UNK         0.0903 
     64 H64        16.1815  -23.9534  -48.1206 H         1 UNK         0.0903 
     65 H65        17.3631  -26.3368  -46.1132 H         1 UNK         0.3096 
     66 H66        19.9299  -26.4450  -47.4587 H         1 UNK         0.1121 
     67 H67        18.7734  -28.2822  -45.3026 H         1 UNK         0.0849 
     68 H68        20.2019  -28.6010  -46.2290 H         1 UNK         0.0849 
     69 H69        16.1116  -28.2686  -46.8425 H         1 UNK         0.0865 
     70 H70        16.0769  -29.8610  -47.5490 H         1 UNK         0.0865 
     71 H71        17.5750  -31.7041  -46.2016 H         1 UNK         0.1346 
     72 H72        17.0058  -31.4142  -41.9585 H         1 UNK         0.1412 
     73 H73        15.8577  -28.1603  -44.4978 H         1 UNK         0.1426 
     74 H74        15.9195  -29.5139  -40.9852 H         1 UNK         0.0716 
     75 H75        14.8253  -28.6832  -42.0557 H         1 UNK         0.0716 
     76 H76        17.9543  -28.8124  -40.1257 H         1 UNK         0.0695 
     77 H77        17.8965  -27.1569  -39.5953 H         1 UNK         0.0695 
     78 H78        19.8068  -28.4431  -41.6080 H         1 UNK         0.0983 
     79 H79        18.8019  -25.9791  -42.0650 H         1 UNK         0.3095 
     80 H80        19.8364  -24.0202  -42.7993 H         1 UNK         0.0454 
     81 H81        22.5730  -24.4361  -44.1069 H         1 UNK         0.0851 
     82 H82        22.2530  -23.4680  -42.6808 H         1 UNK         0.0851 
     83 H83        21.5690  -22.9982  -44.2282 H         1 UNK         0.0851 
     84 H84        18.9215  -24.9109  -44.6233 H         1 UNK         0.2976 
     85 H85        21.4110  -29.2469  -40.4153 H         1 UNK         0.3116 
     86 H86        22.8215  -29.7791  -38.8352 H         1 UNK         0.0646 
     87 H87        21.4244  -27.8721  -36.8933 H         1 UNK         0.0847 
     88 H88        22.5877  -29.1181  -36.4792 H         1 UNK         0.0847 
     89 H89        21.0221  -29.5729  -37.1310 H         1 UNK         0.0847 
     90 H90        22.3918  -26.3223  -39.3079 H         1 UNK         0.3040 
     91 H91        24.9634  -25.4553  -38.4172 H         1 UNK         0.1015 
     92 H92        23.0149  -24.1996  -40.4276 H         1 UNK         0.0786 
     93 H93        24.4040  -23.3831  -39.7225 H         1 UNK         0.0786 
     94 H94        23.0728  -23.8895  -38.6947 H         1 UNK         0.0786 
     95 H95        23.7500  -26.2469  -41.7173 H         1 UNK         0.3172 
     96 H96        26.5430  -26.2832  -42.7684 H         1 UNK         0.0595 
     97 H97        23.8570  -26.4926  -44.2075 H         1 UNK         0.0839 
     98 H98        25.4352  -26.4758  -44.9782 H         1 UNK         0.0839 
     99 H99        24.8777  -25.0547  -44.1114 H         1 UNK         0.0839 
    100 H100       23.6480  -28.4192  -42.3706 H         1 UNK         0.2998 
    101 H101       25.3471  -30.7674  -42.1652 H         1 UNK         0.0822 
    102 H102       25.1014  -30.6157  -44.6549 H         1 UNK         0.0787 
    103 H103       24.1807  -31.9773  -44.0402 H         1 UNK         0.0787 
    104 H104       23.3506  -30.4940  -44.4923 H         1 UNK         0.0787 
    105 H105       24.3746  -32.3018  -40.9345 H         1 UNK         0.3055 
    106 H106       21.6884  -31.7571  -39.8025 H         1 UNK         0.1106 
    107 H107       22.3798  -33.4436  -38.1187 H         1 UNK         0.0828 
    108 H108       23.8612  -33.7718  -39.0056 H         1 UNK         0.0828 
    109 H109       23.6040  -32.1954  -38.2579 H         1 UNK         0.0828 
    110 H110       22.8912  -33.4660  -42.4066 H         1 UNK         0.2931 
    111 H111       22.1064  -34.9286  -43.8286 H         1 UNK         0.0412 
    112 H112       23.2413  -35.9631  -41.0800 H         1 UNK         0.3472 
    113 H113       22.8990  -37.6706  -41.2100 H         1 UNK         0.3472 
    114 H114       19.4161  -34.9600  -42.3934 H         1 UNK         0.0970 
    115 H115       19.7248  -35.4864  -44.0272 H         1 UNK         0.0970 
    116 H116       17.5461  -33.7626  -44.6882 H         1 UNK         0.0612 
    117 H117       17.5437  -33.5442  -42.9534 H         1 UNK         0.0612 
@<TRIPOS>BOND
     1    1    2 1    
     2    1   62 1    
     3    1   63 1    
     4    1   64 1    
     5    2    3 2    
     6    2    4 am   BACKBONE|DICT|INTERRES
     7    4    5 1    
     8    4   65 1    
     9    5    6 1    
    10    5   25 1    
    11    5   66 1    
    12    6    7 1    
    13    6   67 1    
    14    6   68 1    
    15    7    8 1    
    16    8    9 1    
    17    8   69 1    
    18    8   70 1    
    19    9   10 ar   
    20    9   14 ar   
    21   10   11 ar   
    22   10   71 1    
    23   11   12 ar   
    24   11   61 1    
    25   12   13 ar   
    26   12   72 1    
    27   13   14 ar   
    28   13   15 1    
    29   14   73 1    
    30   15   16 1    
    31   15   74 1    
    32   15   75 1    
    33   16   17 1    
    34   17   18 1    
    35   17   76 1    
    36   17   77 1    
    37   18   19 1    
    38   18   27 1    
    39   18   78 1    
    40   19   20 am   BACKBONE|DICT|INTERRES
    41   19   79 1    
    42   20   21 2    
    43   20   22 1    
    44   22   23 1    
    45   22   24 1    
    46   22   80 1    
    47   23   81 1    
    48   23   82 1    
    49   23   83 1    
    50   24   25 am   BACKBONE|DICT|INTERRES
    51   24   84 1    
    52   25   26 2    
    53   27   28 2    
    54   27   29 am   BACKBONE|DICT|INTERRES
    55   29   30 1    
    56   29   85 1    
    57   30   31 1    
    58   30   32 1    
    59   30   86 1    
    60   31   87 1    
    61   31   88 1    
    62   31   89 1    
    63   32   33 2    
    64   32   34 am   BACKBONE|DICT|INTERRES
    65   34   35 1    
    66   34   90 1    
    67   35   36 1    
    68   35   37 1    
    69   35   91 1    
    70   36   92 1    
    71   36   93 1    
    72   36   94 1    
    73   37   38 2    
    74   37   39 am   BACKBONE|DICT|INTERRES
    75   39   40 1    
    76   39   95 1    
    77   40   41 1    
    78   40   42 1    
    79   40   96 1    
    80   41   97 1    
    81   41   98 1    
    82   41   99 1    
    83   42   43 2    
    84   42   44 am   BACKBONE|DICT|INTERRES
    85   44   45 1    
    86   44  100 1    
    87   45   46 1    
    88   45   47 1    
    89   45  101 1    
    90   46  102 1    
    91   46  103 1    
    92   46  104 1    
    93   47   48 2    
    94   47   49 am   BACKBONE|DICT|INTERRES
    95   49   50 1    
    96   49  105 1    
    97   50   51 1    
    98   50   52 1    
    99   50  106 1    
   100   51  107 1    
   101   51  108 1    
   102   51  109 1    
   103   52   53 2    
   104   52   54 am   BACKBONE|DICT|INTERRES
   105   54   55 1    
   106   54  110 1    
   107   55   56 1    
   108   55   59 1    
   109   55  111 1    
   110   56   57 am   BACKBONE|DICT|INTERRES
   111   56   58 2    
   112   57  112 1    
   113   57  113 1    
   114   59   60 1    
   115   59  114 1    
   116   59  115 1    
   117   60   61 1    
   118   61  116 1    
   119   61  117 1    
@<TRIPOS>SUBSTRUCTURE
     1 UNK         1 GROUP             0       ****    0 ROOT    
