@<TRIPOS>MOLECULE
3R8
117   119    1
SMALL
USER_CHARGES


@<TRIPOS>ATOM
      1 CA         13.6355  -27.6400  -47.5846 C.3       0 UNK        -0.2013 
      2 C          14.8215  -27.5263  -46.6395 C.2       0 UNK         0.4866 
      3 O          15.8066  -28.2480  -46.8002 O.2       0 UNK        -0.5176 
      4 N          14.7435  -26.6214  -45.6558 N.am      1 UNK        -0.4884 
      5 CA         15.7785  -26.3698  -44.6467 C.3       1 UNK         0.0853 
      6 C6         15.1780  -25.7649  -43.3505 C.3       10 UNK        -0.0849 
      7 S7         14.1245  -26.8876  -42.3567 S.3       10 UNK        -0.2776 
      8 C8         14.9002  -28.5477  -42.4767 C.3       10 UNK         0.0316 
      9 C9         16.3861  -28.6426  -42.1076 C.ar      10 UNK        -0.0863 
     10 C10        17.1122  -29.7582  -42.5414 C.ar      10 UNK        -0.1009 
     11 C11        18.4753  -29.8881  -42.2529 C.ar      10 UNK        -0.0712 
     12 C12        19.1217  -28.8772  -41.5363 C.ar      10 UNK        -0.0894 
     13 C13        18.4191  -27.7492  -41.1128 C.ar      10 UNK        -0.0745 
     14 C14        17.0484  -27.6559  -41.3662 C.ar      10 UNK        -0.0972 
     15 C15        19.1363  -26.6117  -40.4068 C.3       10 UNK         0.0209 
     16 S16        19.4830  -25.2564  -41.5747 S.3       10 UNK        -0.2568 
     17 C17        21.1288  -25.6932  -42.2359 C.3       10 UNK        -0.0983 
     18 CA         21.1175  -26.4792  -43.5751 C.3       3 UNK         0.0876 
     19 N          20.2549  -25.8651  -44.5911 N.am      3 UNK        -0.4424 
     20 C          19.9971  -26.3836  -45.8001 C.2       2 UNK         0.4918 
     21 O          20.4721  -27.4423  -46.2149 O.2       2 UNK        -0.4875 
     22 CA         18.9570  -25.6366  -46.6495 C.3       2 UNK         0.0481 
     23 CB         19.1046  -25.9252  -48.1543 C.3       2 UNK        -0.1831 
     24 N          17.6384  -26.0767  -46.2065 N.am      2 UNK        -0.4498 
     25 C          16.9443  -25.5265  -45.2052 C.2       1 UNK         0.5027 
     26 O          17.2185  -24.4298  -44.7137 O.2       1 UNK        -0.4969 
     27 C          22.5654  -26.6477  -44.0834 C.2       3 UNK         0.5005 
     28 O          23.0994  -25.7314  -44.7163 O.2       3 UNK        -0.5279 
     29 N          23.1788  -27.7950  -43.7704 N.am      4 UNK        -0.4463 
     30 CA         24.5868  -28.0858  -44.0448 C.3       4 UNK         0.0283 
     31 CB         24.7362  -29.6013  -44.2760 C.3       4 UNK        -0.1875 
     32 C          25.4818  -27.5907  -42.8911 C.2       4 UNK         0.4949 
     33 O          25.0302  -26.8360  -42.0267 O.2       4 UNK        -0.5039 
     34 N          26.7404  -28.0532  -42.8766 N.am      5 UNK        -0.4663 
     35 CA         27.7192  -27.7988  -41.8103 C.3       5 UNK         0.0242 
     36 CB         29.0987  -28.3020  -42.2662 C.3       5 UNK        -0.1982 
     37 C          27.3410  -28.4211  -40.4499 C.2       5 UNK         0.5017 
     38 O          27.8549  -27.9764  -39.4227 O.2       5 UNK        -0.5012 
     39 N          26.4487  -29.4178  -40.4674 N.am      6 UNK        -0.4439 
     40 CA         25.7921  -30.0036  -39.3062 C.3       6 UNK         0.0297 
     41 CB         26.3091  -31.4358  -39.0925 C.3       6 UNK        -0.2006 
     42 C          24.2862  -30.0101  -39.5858 C.2       6 UNK         0.4892 
     43 O          23.8816  -30.2450  -40.7282 O.2       6 UNK        -0.5089 
     44 N          23.4838  -29.7994  -38.5346 N.am      7 UNK        -0.4243 
     45 CA         22.0175  -29.7318  -38.5911 C.3       7 UNK         0.0196 
     46 CB         21.4870  -29.2002  -37.2495 C.3       7 UNK        -0.2007 
     47 C          21.3239  -31.0573  -38.9617 C.2       7 UNK         0.5020 
     48 O          20.1360  -31.0431  -39.2770 O.2       7 UNK        -0.5147 
     49 N          22.0611  -32.1745  -38.9249 N.am      8 UNK        -0.4734 
     50 CA         21.6047  -33.4822  -39.3997 C.3       8 UNK         0.0238 
     51 CB         22.4640  -34.5768  -38.7449 C.3       8 UNK        -0.1912 
     52 C          21.6423  -33.6180  -40.9346 C.2       8 UNK         0.5038 
     53 O          20.9889  -34.5192  -41.4612 O.2       8 UNK        -0.5046 
     54 N          22.4102  -32.7535  -41.6176 N.am      9 UNK        -0.4200 
     55 CA         22.6620  -32.7755  -43.0708 C.3       9 UNK         0.0839 
     56 C          23.4073  -34.0473  -43.5830 C.2       9 UNK         0.5513 
     57 N          24.1275  -34.7728  -42.7353 N.am      9 UNK        -0.7519 
     58 O          23.3637  -34.3682  -44.7680 O.2       9 UNK        -0.4960 
     59 C59        21.4093  -32.4170  -43.9219 C.3       10 UNK        -0.0876 
     60 S60        20.7779  -30.7390  -43.5796 S.3       10 UNK        -0.2414 
     61 C61        19.2382  -31.1329  -42.6897 C.3       10 UNK         0.0169 
     62 H62        13.2304  -28.6512  -47.5570 H         1 UNK         0.0903 
     63 H63        12.8362  -26.9473  -47.3219 H         1 UNK         0.0903 
     64 H64        13.9484  -27.4260  -48.6062 H         1 UNK         0.0903 
     65 H65        13.9174  -26.0441  -45.5815 H         1 UNK         0.3096 
     66 H66        16.2469  -27.3206  -44.3965 H         1 UNK         0.1121 
     67 H67        14.5933  -24.8749  -43.5898 H         1 UNK         0.0849 
     68 H68        15.9706  -25.4110  -42.6896 H         1 UNK         0.0849 
     69 H69        14.3468  -29.2242  -41.8241 H         1 UNK         0.0865 
     70 H70        14.7487  -28.9223  -43.4905 H         1 UNK         0.0865 
     71 H71        16.6104  -30.5347  -43.1029 H         1 UNK         0.1346 
     72 H72        20.1760  -28.9691  -41.3170 H         1 UNK         0.1412 
     73 H73        16.5134  -26.7916  -41.0016 H         1 UNK         0.1426 
     74 H74        20.0559  -26.9571  -39.9321 H         1 UNK         0.0716 
     75 H75        18.5053  -26.2296  -39.6030 H         1 UNK         0.0716 
     76 H76        21.6815  -26.2495  -41.4763 H         1 UNK         0.0695 
     77 H77        21.6698  -24.7528  -42.3608 H         1 UNK         0.0695 
     78 H78        20.7062  -27.4724  -43.3867 H         1 UNK         0.0983 
     79 H79        19.7878  -25.0127  -44.3154 H         1 UNK         0.3095 
     80 H80        19.0786  -24.5623  -46.4956 H         1 UNK         0.0454 
     81 H81        18.3790  -25.3581  -48.7375 H         1 UNK         0.0851 
     82 H82        18.9631  -26.9821  -48.3842 H         1 UNK         0.0851 
     83 H83        20.0971  -25.6437  -48.5082 H         1 UNK         0.0851 
     84 H84        17.3176  -26.9775  -46.5513 H         1 UNK         0.2976 
     85 H85        22.6858  -28.4814  -43.2165 H         1 UNK         0.3116 
     86 H86        24.8944  -27.5683  -44.9559 H         1 UNK         0.0646 
     87 H87        24.6570  -30.1536  -43.3405 H         1 UNK         0.0847 
     88 H88        23.9728  -29.9805  -44.9562 H         1 UNK         0.0847 
     89 H89        25.7020  -29.8449  -44.7194 H         1 UNK         0.0847 
     90 H90        27.0430  -28.6553  -43.6292 H         1 UNK         0.3040 
     91 H91        27.7786  -26.7182  -41.6614 H         1 UNK         0.1015 
     92 H92        29.8580  -28.0996  -41.5093 H         1 UNK         0.0786 
     93 H93        29.4198  -27.8071  -43.1830 H         1 UNK         0.0786 
     94 H94        29.0974  -29.3780  -42.4458 H         1 UNK         0.0786 
     95 H95        26.0294  -29.6651  -41.3535 H         1 UNK         0.3172 
     96 H96        25.9866  -29.4074  -38.4120 H         1 UNK         0.0595 
     97 H97        26.1052  -32.0734  -39.9540 H         1 UNK         0.0839 
     98 H98        25.8389  -31.8978  -38.2235 H         1 UNK         0.0839 
     99 H99        27.3854  -31.4440  -38.9197 H         1 UNK         0.0839 
    100 H100       23.9042  -29.6387  -37.6299 H         1 UNK         0.2998 
    101 H101       21.7535  -29.0121  -39.3687 H         1 UNK         0.0822 
    102 H102       20.4010  -29.0973  -37.2716 H         1 UNK         0.0787 
    103 H103       21.8972  -28.2163  -37.0210 H         1 UNK         0.0787 
    104 H104       21.7341  -29.8695  -36.4244 H         1 UNK         0.0787 
    105 H105       23.0227  -32.1017  -38.6270 H         1 UNK         0.3055 
    106 H106       20.5676  -33.6280  -39.0881 H         1 UNK         0.1106 
    107 H107       22.3879  -34.5431  -37.6579 H         1 UNK         0.0828 
    108 H108       22.1378  -35.5695  -39.0588 H         1 UNK         0.0828 
    109 H109       23.5171  -34.4807  -39.0115 H         1 UNK         0.0828 
    110 H110       22.8867  -32.0150  -41.1125 H         1 UNK         0.2931 
    111 H111       23.3840  -31.9790  -43.2333 H         1 UNK         0.0412 
    112 H112       24.1879  -34.5158  -41.7638 H         1 UNK         0.3472 
    113 H113       24.6151  -35.5873  -43.0744 H         1 UNK         0.3472 
    114 H114       20.6214  -33.1582  -43.7808 H         1 UNK         0.0970 
    115 H115       21.6511  -32.4420  -44.9858 H         1 UNK         0.0970 
    116 H116       18.6152  -31.7575  -43.3317 H         1 UNK         0.0612 
    117 H117       19.4730  -31.7284  -41.8078 H         1 UNK         0.0612 
@<TRIPOS>BOND
     1    1    2 1    
     2    1   62 1    
     3    1   63 1    
     4    1   64 1    
     5    2    3 2    
     6    2    4 am   BACKBONE|DICT|INTERRES
     7    4    5 1    
     8    4   65 1    
     9    5    6 1    
    10    5   25 1    
    11    5   66 1    
    12    6    7 1    
    13    6   67 1    
    14    6   68 1    
    15    7    8 1    
    16    8    9 1    
    17    8   69 1    
    18    8   70 1    
    19    9   10 ar   
    20    9   14 ar   
    21   10   11 ar   
    22   10   71 1    
    23   11   12 ar   
    24   11   61 1    
    25   12   13 ar   
    26   12   72 1    
    27   13   14 ar   
    28   13   15 1    
    29   14   73 1    
    30   15   16 1    
    31   15   74 1    
    32   15   75 1    
    33   16   17 1    
    34   17   18 1    
    35   17   76 1    
    36   17   77 1    
    37   18   19 1    
    38   18   27 1    
    39   18   78 1    
    40   19   20 am   BACKBONE|DICT|INTERRES
    41   19   79 1    
    42   20   21 2    
    43   20   22 1    
    44   22   23 1    
    45   22   24 1    
    46   22   80 1    
    47   23   81 1    
    48   23   82 1    
    49   23   83 1    
    50   24   25 am   BACKBONE|DICT|INTERRES
    51   24   84 1    
    52   25   26 2    
    53   27   28 2    
    54   27   29 am   BACKBONE|DICT|INTERRES
    55   29   30 1    
    56   29   85 1    
    57   30   31 1    
    58   30   32 1    
    59   30   86 1    
    60   31   87 1    
    61   31   88 1    
    62   31   89 1    
    63   32   33 2    
    64   32   34 am   BACKBONE|DICT|INTERRES
    65   34   35 1    
    66   34   90 1    
    67   35   36 1    
    68   35   37 1    
    69   35   91 1    
    70   36   92 1    
    71   36   93 1    
    72   36   94 1    
    73   37   38 2    
    74   37   39 am   BACKBONE|DICT|INTERRES
    75   39   40 1    
    76   39   95 1    
    77   40   41 1    
    78   40   42 1    
    79   40   96 1    
    80   41   97 1    
    81   41   98 1    
    82   41   99 1    
    83   42   43 2    
    84   42   44 am   BACKBONE|DICT|INTERRES
    85   44   45 1    
    86   44  100 1    
    87   45   46 1    
    88   45   47 1    
    89   45  101 1    
    90   46  102 1    
    91   46  103 1    
    92   46  104 1    
    93   47   48 2    
    94   47   49 am   BACKBONE|DICT|INTERRES
    95   49   50 1    
    96   49  105 1    
    97   50   51 1    
    98   50   52 1    
    99   50  106 1    
   100   51  107 1    
   101   51  108 1    
   102   51  109 1    
   103   52   53 2    
   104   52   54 am   BACKBONE|DICT|INTERRES
   105   54   55 1    
   106   54  110 1    
   107   55   56 1    
   108   55   59 1    
   109   55  111 1    
   110   56   57 am   BACKBONE|DICT|INTERRES
   111   56   58 2    
   112   57  112 1    
   113   57  113 1    
   114   59   60 1    
   115   59  114 1    
   116   59  115 1    
   117   60   61 1    
   118   61  116 1    
   119   61  117 1    
@<TRIPOS>SUBSTRUCTURE
     1 UNK         1 GROUP             0       ****    0 ROOT    
