@<TRIPOS>MOLECULE
3R8
117   119    1
SMALL
USER_CHARGES


@<TRIPOS>ATOM
      1 CA         19.5953  -28.2435  -42.2921 C.3       0 UNK        -0.2013 
      2 C          18.7100  -27.0837  -42.7107 C.2       0 UNK         0.4866 
      3 O          18.9970  -25.9494  -42.3308 O.2       0 UNK        -0.5176 
      4 N          17.6524  -27.3613  -43.4894 N.am      1 UNK        -0.4884 
      5 CA         16.5729  -26.4270  -43.8483 C.3       1 UNK         0.0853 
      6 C6         15.4518  -27.1201  -44.6695 C.3       10 UNK        -0.0849 
      7 S7         15.9368  -27.6777  -46.3460 S.3       10 UNK        -0.2776 
      8 C8         15.9219  -29.4919  -46.2095 C.3       10 UNK         0.0316 
      9 C9         17.1807  -30.0572  -45.5624 C.ar      10 UNK        -0.0863 
     10 C10        17.0752  -30.8976  -44.4517 C.ar      10 UNK        -0.1009 
     11 C11        18.2068  -31.5246  -43.9239 C.ar      10 UNK        -0.0712 
     12 C12        19.4599  -31.2797  -44.4962 C.ar      10 UNK        -0.0894 
     13 C13        19.5899  -30.4142  -45.5885 C.ar      10 UNK        -0.0745 
     14 C14        18.4404  -29.8186  -46.1244 C.ar      10 UNK        -0.0972 
     15 C15        20.9628  -30.2163  -46.2314 C.3       10 UNK         0.0209 
     16 S16        21.2972  -28.5151  -46.8050 S.3       10 UNK        -0.2568 
     17 C17        21.9517  -27.7123  -45.3031 C.3       10 UNK        -0.0983 
     18 CA         21.8859  -26.1674  -45.4096 C.3       3 UNK         0.0876 
     19 N          20.5123  -25.6932  -45.5863 N.am      3 UNK        -0.4424 
     20 C          20.1553  -24.4875  -46.0528 C.2       2 UNK         0.4918 
     21 O          20.9594  -23.6086  -46.3630 O.2       2 UNK        -0.4875 
     22 CA         18.6485  -24.2186  -46.2132 C.3       2 UNK         0.0481 
     23 CB         18.2695  -24.1569  -47.7020 C.3       2 UNK        -0.1831 
     24 N          17.8589  -25.2673  -45.5669 N.am      2 UNK        -0.4498 
     25 C          17.0749  -25.1162  -44.4948 C.2       1 UNK         0.5027 
     26 O          16.7906  -24.0294  -43.9884 O.2       1 UNK        -0.4969 
     27 C          22.5949  -25.4807  -44.2236 C.2       3 UNK         0.5005 
     28 O          23.8173  -25.3355  -44.2688 O.2       3 UNK        -0.5279 
     29 N          21.8291  -25.0561  -43.2024 N.am      4 UNK        -0.4463 
     30 CA         22.2029  -24.2440  -42.0315 C.3       4 UNK         0.0283 
     31 CB         22.7102  -22.8541  -42.4613 C.3       4 UNK        -0.1875 
     32 C          23.1821  -24.8988  -41.0384 C.2       4 UNK         0.4949 
     33 O          22.9684  -24.7961  -39.8308 O.2       4 UNK        -0.5039 
     34 N          24.2257  -25.5639  -41.5470 N.am      5 UNK        -0.4663 
     35 CA         25.2418  -26.2839  -40.7708 C.3       5 UNK         0.0242 
     36 CB         26.4506  -26.5669  -41.6773 C.3       5 UNK        -0.1982 
     37 C          24.7238  -27.5928  -40.1481 C.2       5 UNK         0.5017 
     38 O          25.3561  -28.1129  -39.2276 O.2       5 UNK        -0.5012 
     39 N          23.5964  -28.0983  -40.6689 N.am      6 UNK        -0.4439 
     40 CA         22.8655  -29.3120  -40.2936 C.3       6 UNK         0.0297 
     41 CB         22.4024  -29.2756  -38.8235 C.3       6 UNK        -0.2006 
     42 C          23.6111  -30.6111  -40.6302 C.2       6 UNK         0.4892 
     43 O          23.0895  -31.4075  -41.4109 O.2       6 UNK        -0.5089 
     44 N          24.8019  -30.8018  -40.0466 N.am      7 UNK        -0.4243 
     45 CA         25.6590  -31.9881  -40.1434 C.3       7 UNK         0.0196 
     46 CB         26.2810  -32.0989  -41.5542 C.3       7 UNK        -0.2007 
     47 C          24.9123  -33.2572  -39.6886 C.2       7 UNK         0.5020 
     48 O          24.7940  -33.4857  -38.4848 O.2       7 UNK        -0.5147 
     49 N          24.4073  -34.0427  -40.6483 N.am      8 UNK        -0.4734 
     50 CA         23.5815  -35.2288  -40.4098 C.3       8 UNK         0.0238 
     51 CB         23.6268  -36.1261  -41.6579 C.3       8 UNK        -0.1912 
     52 C          22.1222  -34.9010  -40.0374 C.2       8 UNK         0.5038 
     53 O          21.4472  -35.7700  -39.4835 O.2       8 UNK        -0.5046 
     54 N          21.6503  -33.6873  -40.3595 N.am      9 UNK        -0.4200 
     55 CA         20.3015  -33.1988  -40.0365 C.3       9 UNK         0.0839 
     56 C          20.0787  -33.0245  -38.5080 C.2       9 UNK         0.5513 
     57 N          18.8723  -33.2815  -38.0221 N.am      9 UNK        -0.7519 
     58 O          20.9761  -32.6258  -37.7692 O.2       9 UNK        -0.4960 
     59 C59        19.9757  -31.8982  -40.8215 C.3       10 UNK        -0.0876 
     60 S60        18.1936  -31.7083  -41.1525 S.3       10 UNK        -0.2414 
     61 C61        18.0523  -32.5132  -42.7770 C.3       10 UNK         0.0169 
     62 H62        19.2917  -28.6104  -41.3120 H         1 UNK         0.0903 
     63 H63        19.5385  -29.0671  -42.9979 H         1 UNK         0.0903 
     64 H64        20.6319  -27.9187  -42.2262 H         1 UNK         0.0903 
     65 H65        17.5135  -28.3133  -43.8027 H         1 UNK         0.3096 
     66 H66        16.1227  -26.1280  -42.8988 H         1 UNK         0.1121 
     67 H67        15.0597  -27.9686  -44.1066 H         1 UNK         0.0849 
     68 H68        14.6061  -26.4388  -44.7811 H         1 UNK         0.0849 
     69 H69        15.0226  -29.8098  -45.6794 H         1 UNK         0.0865 
     70 H70        15.8394  -29.9100  -47.2137 H         1 UNK         0.0865 
     71 H71        16.1040  -31.1041  -44.0221 H         1 UNK         0.1346 
     72 H72        20.3342  -31.7795  -44.1030 H         1 UNK         0.1412 
     73 H73        18.5193  -29.1898  -47.0007 H         1 UNK         0.1426 
     74 H74        21.0282  -30.8834  -47.0917 H         1 UNK         0.0716 
     75 H75        21.7584  -30.5200  -45.5489 H         1 UNK         0.0716 
     76 H76        22.9824  -28.0461  -45.1676 H         1 UNK         0.0695 
     77 H77        21.3940  -28.0701  -44.4391 H         1 UNK         0.0695 
     78 H78        22.4446  -25.8760  -46.3024 H         1 UNK         0.0983 
     79 H79        19.7862  -26.3539  -45.3622 H         1 UNK         0.3095 
     80 H80        18.4405  -23.2472  -45.7605 H         1 UNK         0.0454 
     81 H81        18.4828  -25.0962  -48.2139 H         1 UNK         0.0851 
     82 H82        18.8254  -23.3712  -48.2154 H         1 UNK         0.0851 
     83 H83        17.2092  -23.9392  -47.8309 H         1 UNK         0.0851 
     84 H84        17.9311  -26.1990  -45.9530 H         1 UNK         0.2976 
     85 H85        20.8391  -25.2738  -43.2428 H         1 UNK         0.3116 
     86 H86        21.2707  -24.0917  -41.4846 H         1 UNK         0.0646 
     87 H87        22.8907  -22.2195  -41.5927 H         1 UNK         0.0847 
     88 H88        21.9806  -22.3431  -43.0896 H         1 UNK         0.0847 
     89 H89        23.6463  -22.9147  -43.0173 H         1 UNK         0.0847 
     90 H90        24.3194  -25.5645  -42.5625 H         1 UNK         0.3040 
     91 H91        25.5663  -25.6410  -39.9494 H         1 UNK         0.1015 
     92 H92        26.8774  -25.6430  -42.0683 H         1 UNK         0.0786 
     93 H93        26.1799  -27.1967  -42.5260 H         1 UNK         0.0786 
     94 H94        27.2412  -27.0804  -41.1280 H         1 UNK         0.0786 
     95 H95        23.2043  -27.5807  -41.4418 H         1 UNK         0.3172 
     96 H96        21.9665  -29.3110  -40.9088 H         1 UNK         0.0595 
     97 H97        23.2382  -29.2501  -38.1244 H         1 UNK         0.0839 
     98 H98        21.8108  -30.1572  -38.5771 H         1 UNK         0.0839 
     99 H99        21.7788  -28.4031  -38.6285 H         1 UNK         0.0839 
    100 H100       25.1407  -30.0507  -39.4517 H         1 UNK         0.2998 
    101 H101       26.4758  -31.8410  -39.4350 H         1 UNK         0.0822 
    102 H102       25.5297  -32.1568  -42.3422 H         1 UNK         0.0787 
    103 H103       26.9096  -31.2344  -41.7685 H         1 UNK         0.0787 
    104 H104       26.9153  -32.9828  -41.6349 H         1 UNK         0.0787 
    105 H105       24.5236  -33.7507  -41.6086 H         1 UNK         0.3055 
    106 H106       24.0088  -35.7862  -39.5728 H         1 UNK         0.1106 
    107 H107       23.2140  -35.6229  -42.5331 H         1 UNK         0.0828 
    108 H108       24.6474  -36.4285  -41.8931 H         1 UNK         0.0828 
    109 H109       23.0485  -37.0384  -41.5042 H         1 UNK         0.0828 
    110 H110       22.2809  -33.0121  -40.7822 H         1 UNK         0.2931 
    111 H111       19.6208  -33.9797  -40.3829 H         1 UNK         0.0412 
    112 H112       18.7028  -33.1621  -37.0356 H         1 UNK         0.3472 
    113 H113       18.1229  -33.5767  -38.6290 H         1 UNK         0.3472 
    114 H114       20.3275  -31.0150  -40.2883 H         1 UNK         0.0970 
    115 H115       20.4983  -31.8855  -41.7776 H         1 UNK         0.0970 
    116 H116       18.7845  -33.3176  -42.8635 H         1 UNK         0.0612 
    117 H117       17.0748  -32.9941  -42.8373 H         1 UNK         0.0612 
@<TRIPOS>BOND
     1    1    2 1    
     2    1   62 1    
     3    1   63 1    
     4    1   64 1    
     5    2    3 2    
     6    2    4 am   BACKBONE|DICT|INTERRES
     7    4    5 1    
     8    4   65 1    
     9    5    6 1    
    10    5   25 1    
    11    5   66 1    
    12    6    7 1    
    13    6   67 1    
    14    6   68 1    
    15    7    8 1    
    16    8    9 1    
    17    8   69 1    
    18    8   70 1    
    19    9   10 ar   
    20    9   14 ar   
    21   10   11 ar   
    22   10   71 1    
    23   11   12 ar   
    24   11   61 1    
    25   12   13 ar   
    26   12   72 1    
    27   13   14 ar   
    28   13   15 1    
    29   14   73 1    
    30   15   16 1    
    31   15   74 1    
    32   15   75 1    
    33   16   17 1    
    34   17   18 1    
    35   17   76 1    
    36   17   77 1    
    37   18   19 1    
    38   18   27 1    
    39   18   78 1    
    40   19   20 am   BACKBONE|DICT|INTERRES
    41   19   79 1    
    42   20   21 2    
    43   20   22 1    
    44   22   23 1    
    45   22   24 1    
    46   22   80 1    
    47   23   81 1    
    48   23   82 1    
    49   23   83 1    
    50   24   25 am   BACKBONE|DICT|INTERRES
    51   24   84 1    
    52   25   26 2    
    53   27   28 2    
    54   27   29 am   BACKBONE|DICT|INTERRES
    55   29   30 1    
    56   29   85 1    
    57   30   31 1    
    58   30   32 1    
    59   30   86 1    
    60   31   87 1    
    61   31   88 1    
    62   31   89 1    
    63   32   33 2    
    64   32   34 am   BACKBONE|DICT|INTERRES
    65   34   35 1    
    66   34   90 1    
    67   35   36 1    
    68   35   37 1    
    69   35   91 1    
    70   36   92 1    
    71   36   93 1    
    72   36   94 1    
    73   37   38 2    
    74   37   39 am   BACKBONE|DICT|INTERRES
    75   39   40 1    
    76   39   95 1    
    77   40   41 1    
    78   40   42 1    
    79   40   96 1    
    80   41   97 1    
    81   41   98 1    
    82   41   99 1    
    83   42   43 2    
    84   42   44 am   BACKBONE|DICT|INTERRES
    85   44   45 1    
    86   44  100 1    
    87   45   46 1    
    88   45   47 1    
    89   45  101 1    
    90   46  102 1    
    91   46  103 1    
    92   46  104 1    
    93   47   48 2    
    94   47   49 am   BACKBONE|DICT|INTERRES
    95   49   50 1    
    96   49  105 1    
    97   50   51 1    
    98   50   52 1    
    99   50  106 1    
   100   51  107 1    
   101   51  108 1    
   102   51  109 1    
   103   52   53 2    
   104   52   54 am   BACKBONE|DICT|INTERRES
   105   54   55 1    
   106   54  110 1    
   107   55   56 1    
   108   55   59 1    
   109   55  111 1    
   110   56   57 am   BACKBONE|DICT|INTERRES
   111   56   58 2    
   112   57  112 1    
   113   57  113 1    
   114   59   60 1    
   115   59  114 1    
   116   59  115 1    
   117   60   61 1    
   118   61  116 1    
   119   61  117 1    
@<TRIPOS>SUBSTRUCTURE
     1 UNK         1 GROUP             0       ****    0 ROOT    
