@<TRIPOS>MOLECULE
3R8
117   119    1
SMALL
USER_CHARGES


@<TRIPOS>ATOM
      1 CA         18.7234  -21.4102  -47.7180 C.3       0 UNK        -0.2013 
      2 C          19.2334  -22.5104  -46.7988 C.2       0 UNK         0.4866 
      3 O          20.2307  -22.3139  -46.1033 O.2       0 UNK        -0.5176 
      4 N          18.5641  -23.6696  -46.7975 N.am      1 UNK        -0.4884 
      5 CA         18.8847  -24.8145  -45.9400 C.3       1 UNK         0.0853 
      6 C6         18.1767  -26.1068  -46.4130 C.3       10 UNK        -0.0849 
      7 S7         18.8059  -26.7603  -47.9958 S.3       10 UNK        -0.2776 
      8 C8         20.1227  -27.9192  -47.4588 C.3       10 UNK         0.0316 
      9 C9         19.7064  -29.0751  -46.5398 C.ar      10 UNK        -0.0863 
     10 C10        20.7132  -29.8194  -45.9146 C.ar      10 UNK        -0.1009 
     11 C11        20.3996  -30.8603  -45.0341 C.ar      10 UNK        -0.0712 
     12 C12        19.0613  -31.1561  -44.7690 C.ar      10 UNK        -0.0894 
     13 C13        18.0447  -30.4072  -45.3630 C.ar      10 UNK        -0.0745 
     14 C14        18.3694  -29.4050  -46.2801 C.ar      10 UNK        -0.0972 
     15 C15        16.5947  -30.6288  -44.9704 C.3       10 UNK         0.0209 
     16 S16        16.0712  -29.3789  -43.7502 S.3       10 UNK        -0.2568 
     17 C17        16.8204  -29.9981  -42.2015 C.3       10 UNK        -0.0983 
     18 CA         18.1702  -29.3294  -41.8077 C.3       3 UNK         0.0876 
     19 N          18.0934  -27.8577  -41.8516 N.am      3 UNK        -0.4424 
     20 C          19.1213  -26.9992  -41.8978 C.2       2 UNK         0.4918 
     21 O          20.3056  -27.3284  -41.7814 O.2       2 UNK        -0.4875 
     22 CA         18.7918  -25.5346  -42.1898 C.3       2 UNK         0.0481 
     23 CB         19.5958  -24.5676  -41.3043 C.3       2 UNK        -0.1831 
     24 N          19.1457  -25.3417  -43.5869 N.am      2 UNK        -0.4498 
     25 C          18.5093  -24.5619  -44.4651 C.2       1 UNK         0.5027 
     26 O          17.6196  -23.7605  -44.1663 O.2       1 UNK        -0.4969 
     27 C          18.7150  -29.8951  -40.4684 C.2       3 UNK         0.5005 
     28 O          18.1501  -30.8427  -39.9186 O.2       3 UNK        -0.5279 
     29 N          19.8040  -29.3042  -39.9716 N.am      4 UNK        -0.4463 
     30 CA         20.5101  -29.6069  -38.7264 C.3       4 UNK         0.0283 
     31 CB         19.6135  -29.3228  -37.5030 C.3       4 UNK        -0.1875 
     32 C          21.8221  -28.8103  -38.6042 C.2       4 UNK         0.4949 
     33 O          22.6682  -29.2016  -37.8003 O.2       4 UNK        -0.5039 
     34 N          21.9660  -27.7047  -39.3550 N.am      5 UNK        -0.4663 
     35 CA         23.1367  -26.8209  -39.3148 C.3       5 UNK         0.0242 
     36 CB         22.6980  -25.4289  -38.8296 C.3       5 UNK        -0.1982 
     37 C          23.8620  -26.7172  -40.6671 C.2       5 UNK         0.5017 
     38 O          25.0345  -26.3407  -40.6757 O.2       5 UNK        -0.5012 
     39 N          23.1855  -27.0467  -41.7799 N.am      6 UNK        -0.4439 
     40 CA         23.7631  -27.0657  -43.1314 C.3       6 UNK         0.0297 
     41 CB         22.6315  -27.2250  -44.1593 C.3       6 UNK        -0.2006 
     42 C          24.8297  -28.1615  -43.3277 C.2       6 UNK         0.4892 
     43 O          25.7344  -27.9931  -44.1460 O.2       6 UNK        -0.5089 
     44 N          24.7052  -29.2440  -42.5574 N.am      7 UNK        -0.4243 
     45 CA         25.6191  -30.3715  -42.4230 C.3       7 UNK         0.0196 
     46 CB         25.5471  -31.2867  -43.6651 C.3       7 UNK        -0.2007 
     47 C          25.2229  -31.0841  -41.1191 C.2       7 UNK         0.5020 
     48 O          24.5808  -30.4662  -40.2660 O.2       7 UNK        -0.5147 
     49 N          25.5677  -32.3717  -40.9825 N.am      8 UNK        -0.4734 
     50 CA         25.0579  -33.2284  -39.9031 C.3       8 UNK         0.0238 
     51 CB         25.8455  -34.5485  -39.8691 C.3       8 UNK        -0.1912 
     52 C          23.5458  -33.4936  -40.0415 C.2       8 UNK         0.5038 
     53 O          22.8324  -33.4759  -39.0377 O.2       8 UNK        -0.5046 
     54 N          23.1024  -33.6953  -41.2911 N.am      9 UNK        -0.4200 
     55 CA         21.7070  -33.8717  -41.7223 C.3       9 UNK         0.0839 
     56 C          20.9877  -35.0654  -41.0205 C.2       9 UNK         0.5513 
     57 N          19.6838  -34.9976  -40.7818 N.am      9 UNK        -0.7519 
     58 O          21.6013  -36.0942  -40.7432 O.2       9 UNK        -0.4960 
     59 C59        20.9062  -32.5328  -41.7247 C.3       10 UNK        -0.0876 
     60 S60        21.7402  -31.1751  -42.6236 S.3       10 UNK        -0.2414 
     61 C61        21.5068  -31.6582  -44.3655 C.3       10 UNK         0.0169 
     62 H62        17.8469  -21.7250  -48.2842 H         1 UNK         0.0903 
     63 H63        18.4523  -20.5305  -47.1349 H         1 UNK         0.0903 
     64 H64        19.4997  -21.1235  -48.4269 H         1 UNK         0.0903 
     65 H65        17.7464  -23.7750  -47.3811 H         1 UNK         0.3096 
     66 H66        19.9654  -24.9708  -45.9830 H         1 UNK         0.1121 
     67 H67        17.1042  -25.9331  -46.5217 H         1 UNK         0.0849 
     68 H68        18.2632  -26.8857  -45.6559 H         1 UNK         0.0849 
     69 H69        20.5824  -28.3437  -48.3523 H         1 UNK         0.0865 
     70 H70        20.9016  -27.3363  -46.9650 H         1 UNK         0.0865 
     71 H71        21.7505  -29.5821  -46.1086 H         1 UNK         0.1346 
     72 H72        18.8109  -31.9428  -44.0722 H         1 UNK         0.1412 
     73 H73        17.5660  -28.8519  -46.7447 H         1 UNK         0.1426 
     74 H74        16.4405  -31.6332  -44.5732 H         1 UNK         0.0716 
     75 H75        15.9604  -30.5483  -45.8545 H         1 UNK         0.0716 
     76 H76        16.9420  -31.0797  -42.2832 H         1 UNK         0.0695 
     77 H77        16.0847  -29.8416  -41.4103 H         1 UNK         0.0695 
     78 H78        18.9069  -29.6168  -42.5588 H         1 UNK         0.0983 
     79 H79        17.1600  -27.4889  -41.9633 H         1 UNK         0.3095 
     80 H80        17.7237  -25.3664  -42.0358 H         1 UNK         0.0454 
     81 H81        20.6682  -24.6550  -41.4816 H         1 UNK         0.0851 
     82 H82        19.4163  -24.7623  -40.2463 H         1 UNK         0.0851 
     83 H83        19.3131  -23.5327  -41.4971 H         1 UNK         0.0851 
     84 H84        19.8441  -25.9894  -43.9254 H         1 UNK         0.2976 
     85 H85        20.2095  -28.5856  -40.5638 H         1 UNK         0.3116 
     86 H86        20.7740  -30.6662  -38.7359 H         1 UNK         0.0646 
     87 H87        19.2651  -28.2896  -37.4930 H         1 UNK         0.0847 
     88 H88        20.1555  -29.4933  -36.5718 H         1 UNK         0.0847 
     89 H89        18.7388  -29.9722  -37.4810 H         1 UNK         0.0847 
     90 H90        21.2192  -27.4149  -39.9707 H         1 UNK         0.3040 
     91 H91        23.8754  -27.2028  -38.6065 H         1 UNK         0.1015 
     92 H92        21.9678  -24.9763  -39.4993 H         1 UNK         0.0786 
     93 H93        23.5495  -24.7494  -38.7687 H         1 UNK         0.0786 
     94 H94        22.2544  -25.4795  -37.8351 H         1 UNK         0.0786 
     95 H95        22.2057  -27.3005  -41.7104 H         1 UNK         0.3172 
     96 H96        24.2483  -26.1030  -43.3050 H         1 UNK         0.0595 
     97 H97        22.0494  -28.1292  -43.9766 H         1 UNK         0.0839 
     98 H98        23.0273  -27.2873  -45.1740 H         1 UNK         0.0839 
     99 H99        21.9522  -26.3743  -44.1294 H         1 UNK         0.0839 
    100 H100       23.9574  -29.2623  -41.8734 H         1 UNK         0.2998 
    101 H101       26.6342  -29.9878  -42.3052 H         1 UNK         0.0822 
    102 H102       25.7105  -30.7267  -44.5858 H         1 UNK         0.0787 
    103 H103       26.3118  -32.0629  -43.6318 H         1 UNK         0.0787 
    104 H104       24.5782  -31.7791  -43.7461 H         1 UNK         0.0787 
    105 H105       26.1169  -32.8131  -41.7060 H         1 UNK         0.3055 
    106 H106       25.2144  -32.7122  -38.9527 H         1 UNK         0.1106 
    107 H107       25.4895  -35.1920  -39.0633 H         1 UNK         0.0828 
    108 H108       25.7447  -35.1078  -40.8000 H         1 UNK         0.0828 
    109 H109       26.9073  -34.3725  -39.6954 H         1 UNK         0.0828 
    110 H110       23.7850  -33.7043  -42.0326 H         1 UNK         0.2931 
    111 H111       21.7844  -34.1972  -42.7592 H         1 UNK         0.0412 
    112 H112       19.2286  -35.7865  -40.3492 H         1 UNK         0.3472 
    113 H113       19.1486  -34.1731  -41.0005 H         1 UNK         0.3472 
    114 H114       20.7433  -32.2024  -40.6978 H         1 UNK         0.0970 
    115 H115       19.9172  -32.6699  -42.1610 H         1 UNK         0.0970 
    116 H116       21.2889  -32.7229  -44.4475 H         1 UNK         0.0612 
    117 H117       22.4487  -31.5032  -44.8931 H         1 UNK         0.0612 
@<TRIPOS>BOND
     1    1    2 1    
     2    1   62 1    
     3    1   63 1    
     4    1   64 1    
     5    2    3 2    
     6    2    4 am   BACKBONE|DICT|INTERRES
     7    4    5 1    
     8    4   65 1    
     9    5    6 1    
    10    5   25 1    
    11    5   66 1    
    12    6    7 1    
    13    6   67 1    
    14    6   68 1    
    15    7    8 1    
    16    8    9 1    
    17    8   69 1    
    18    8   70 1    
    19    9   10 ar   
    20    9   14 ar   
    21   10   11 ar   
    22   10   71 1    
    23   11   12 ar   
    24   11   61 1    
    25   12   13 ar   
    26   12   72 1    
    27   13   14 ar   
    28   13   15 1    
    29   14   73 1    
    30   15   16 1    
    31   15   74 1    
    32   15   75 1    
    33   16   17 1    
    34   17   18 1    
    35   17   76 1    
    36   17   77 1    
    37   18   19 1    
    38   18   27 1    
    39   18   78 1    
    40   19   20 am   BACKBONE|DICT|INTERRES
    41   19   79 1    
    42   20   21 2    
    43   20   22 1    
    44   22   23 1    
    45   22   24 1    
    46   22   80 1    
    47   23   81 1    
    48   23   82 1    
    49   23   83 1    
    50   24   25 am   BACKBONE|DICT|INTERRES
    51   24   84 1    
    52   25   26 2    
    53   27   28 2    
    54   27   29 am   BACKBONE|DICT|INTERRES
    55   29   30 1    
    56   29   85 1    
    57   30   31 1    
    58   30   32 1    
    59   30   86 1    
    60   31   87 1    
    61   31   88 1    
    62   31   89 1    
    63   32   33 2    
    64   32   34 am   BACKBONE|DICT|INTERRES
    65   34   35 1    
    66   34   90 1    
    67   35   36 1    
    68   35   37 1    
    69   35   91 1    
    70   36   92 1    
    71   36   93 1    
    72   36   94 1    
    73   37   38 2    
    74   37   39 am   BACKBONE|DICT|INTERRES
    75   39   40 1    
    76   39   95 1    
    77   40   41 1    
    78   40   42 1    
    79   40   96 1    
    80   41   97 1    
    81   41   98 1    
    82   41   99 1    
    83   42   43 2    
    84   42   44 am   BACKBONE|DICT|INTERRES
    85   44   45 1    
    86   44  100 1    
    87   45   46 1    
    88   45   47 1    
    89   45  101 1    
    90   46  102 1    
    91   46  103 1    
    92   46  104 1    
    93   47   48 2    
    94   47   49 am   BACKBONE|DICT|INTERRES
    95   49   50 1    
    96   49  105 1    
    97   50   51 1    
    98   50   52 1    
    99   50  106 1    
   100   51  107 1    
   101   51  108 1    
   102   51  109 1    
   103   52   53 2    
   104   52   54 am   BACKBONE|DICT|INTERRES
   105   54   55 1    
   106   54  110 1    
   107   55   56 1    
   108   55   59 1    
   109   55  111 1    
   110   56   57 am   BACKBONE|DICT|INTERRES
   111   56   58 2    
   112   57  112 1    
   113   57  113 1    
   114   59   60 1    
   115   59  114 1    
   116   59  115 1    
   117   60   61 1    
   118   61  116 1    
   119   61  117 1    
@<TRIPOS>SUBSTRUCTURE
     1 UNK         1 GROUP             0       ****    0 ROOT    
