@<TRIPOS>MOLECULE
3R8
117   119    1
SMALL
USER_CHARGES


@<TRIPOS>ATOM
      1 CA         12.1945  -25.4294  -41.4515 C.3       0 UNK        -0.2013 
      2 C          13.3893  -25.4146  -42.3932 C.2       0 UNK         0.4866 
      3 O          14.2831  -24.5824  -42.2355 O.2       0 UNK        -0.5176 
      4 N          13.4095  -26.3228  -43.3768 N.am      1 UNK        -0.4884 
      5 CA         14.5107  -26.4976  -44.3264 C.3       1 UNK         0.0853 
      6 C6         14.0491  -27.2989  -45.5680 C.3       10 UNK        -0.0849 
      7 S7         15.2923  -27.3328  -46.9077 S.3       10 UNK        -0.2776 
      8 C8         15.8795  -29.0639  -46.8634 C.3       10 UNK         0.0316 
      9 C9         17.3714  -29.1749  -46.5676 C.ar      10 UNK        -0.0863 
     10 C10        17.8302  -29.9400  -45.4877 C.ar      10 UNK        -0.1009 
     11 C11        19.2027  -30.0972  -45.2624 C.ar      10 UNK        -0.0712 
     12 C12        20.1161  -29.4849  -46.1234 C.ar      10 UNK        -0.0894 
     13 C13        19.6716  -28.6913  -47.1824 C.ar      10 UNK        -0.0745 
     14 C14        18.2998  -28.5504  -47.4071 C.ar      10 UNK        -0.0972 
     15 C15        20.6706  -27.9855  -48.0848 C.3       10 UNK         0.0209 
     16 S16        20.9860  -26.2812  -47.5261 S.3       10 UNK        -0.2568 
     17 C17        22.0569  -26.5378  -46.0703 C.3       10 UNK        -0.0983 
     18 CA         21.4383  -25.9767  -44.7654 C.3       3 UNK         0.0876 
     19 N          20.1799  -26.6402  -44.3950 N.am      3 UNK        -0.4424 
     20 C          19.2509  -26.0862  -43.6061 C.2       2 UNK         0.4918 
     21 O          19.2718  -24.9107  -43.2374 O.2       2 UNK        -0.4875 
     22 CA         18.1256  -26.9994  -43.1148 C.3       2 UNK         0.0481 
     23 CB         18.1338  -27.1013  -41.5760 C.3       2 UNK        -0.1831 
     24 N          16.8540  -26.4864  -43.6064 N.am      2 UNK        -0.4498 
     25 C          15.7053  -27.1714  -43.6237 C.2       1 UNK         0.5027 
     26 O          15.5594  -28.2958  -43.1370 O.2       1 UNK        -0.4969 
     27 C          22.4678  -26.0385  -43.6142 C.2       3 UNK         0.5005 
     28 O          23.3748  -25.2074  -43.5764 O.2       3 UNK        -0.5279 
     29 N          22.3210  -27.0249  -42.7123 N.am      4 UNK        -0.4463 
     30 CA         23.0987  -27.2841  -41.4899 C.3       4 UNK         0.0283 
     31 CB         23.0369  -26.0840  -40.5241 C.3       4 UNK        -0.1875 
     32 C          24.5488  -27.7615  -41.7043 C.2       4 UNK         0.4949 
     33 O          25.2024  -28.1292  -40.7280 O.2       4 UNK        -0.5039 
     34 N          25.0256  -27.7975  -42.9564 N.am      5 UNK        -0.4663 
     35 CA         26.3956  -28.1626  -43.3416 C.3       5 UNK         0.0242 
     36 CB         26.5666  -27.9352  -44.8522 C.3       5 UNK        -0.1982 
     37 C          26.8086  -29.5974  -42.9640 C.2       5 UNK         0.5017 
     38 O          27.9936  -29.8453  -42.7410 O.2       5 UNK        -0.5012 
     39 N          25.8268  -30.5052  -42.8803 N.am      6 UNK        -0.4439 
     40 CA         26.0036  -31.8985  -42.4619 C.3       6 UNK         0.0297 
     41 CB         24.8803  -32.7499  -43.0782 C.3       6 UNK        -0.2006 
     42 C          26.0545  -32.0885  -40.9317 C.2       6 UNK         0.4892 
     43 O          26.2143  -33.2262  -40.4884 O.2       6 UNK        -0.5089 
     44 N          25.8786  -31.0094  -40.1503 N.am      7 UNK        -0.4243 
     45 CA         25.8660  -30.9214  -38.6798 C.3       7 UNK         0.0196 
     46 CB         27.1934  -31.4069  -38.0651 C.3       7 UNK        -0.2007 
     47 C          24.6574  -31.5955  -38.0039 C.2       7 UNK         0.5020 
     48 O          24.0741  -31.0074  -37.0938 O.2       7 UNK        -0.5147 
     49 N          24.2816  -32.7951  -38.4644 N.am      8 UNK        -0.4734 
     50 CA         23.0663  -33.5111  -38.0572 C.3       8 UNK         0.0238 
     51 CB         23.1919  -34.9875  -38.4660 C.3       8 UNK        -0.1912 
     52 C          21.7873  -32.8926  -38.6531 C.2       8 UNK         0.5038 
     53 O          20.7075  -33.0648  -38.0869 O.2       8 UNK        -0.5046 
     54 N          21.9426  -32.1897  -39.7817 N.am      9 UNK        -0.4200 
     55 CA         20.9244  -31.3711  -40.4477 C.3       9 UNK         0.0839 
     56 C          20.5078  -30.1658  -39.5565 C.2       9 UNK         0.5513 
     57 N          19.2141  -29.9282  -39.3896 N.am      9 UNK        -0.7519 
     58 O          21.3503  -29.4337  -39.0438 O.2       9 UNK        -0.4960 
     59 C59        21.4574  -30.9498  -41.8435 C.3       10 UNK        -0.0876 
     60 S60        20.3858  -29.8257  -42.7989 S.3       10 UNK        -0.2414 
     61 C61        19.7210  -30.9182  -44.0922 C.3       10 UNK         0.0169 
     62 H62        12.5259  -25.6049  -40.4284 H         1 UNK         0.0903 
     63 H63        11.6800  -24.4693  -41.4830 H         1 UNK         0.0903 
     64 H64        11.4772  -26.2069  -41.7135 H         1 UNK         0.0903 
     65 H65        12.6642  -27.0023  -43.4387 H         1 UNK         0.3096 
     66 H66        14.8162  -25.5050  -44.6666 H         1 UNK         0.1121 
     67 H67        13.7466  -28.3101  -45.2910 H         1 UNK         0.0849 
     68 H68        13.1537  -26.8335  -45.9835 H         1 UNK         0.0849 
     69 H69        15.3070  -29.6487  -46.1429 H         1 UNK         0.0865 
     70 H70        15.6847  -29.5189  -47.8355 H         1 UNK         0.0865 
     71 H71        17.1209  -30.4181  -44.8254 H         1 UNK         0.1346 
     72 H72        21.1760  -29.6166  -45.9540 H         1 UNK         0.1412 
     73 H73        17.9522  -27.9508  -48.2377 H         1 UNK         0.1426 
     74 H74        21.6093  -28.5397  -48.1347 H         1 UNK         0.0716 
     75 H75        20.2838  -27.9538  -49.1045 H         1 UNK         0.0716 
     76 H76        22.3050  -27.5937  -45.9620 H         1 UNK         0.0695 
     77 H77        23.0015  -26.0340  -46.2858 H         1 UNK         0.0695 
     78 H78        21.2286  -24.9175  -44.9329 H         1 UNK         0.0983 
     79 H79        20.0491  -27.5879  -44.7233 H         1 UNK         0.3095 
     80 H80        18.2716  -27.9949  -43.5314 H         1 UNK         0.0454 
     81 H81        17.8879  -26.1474  -41.1080 H         1 UNK         0.0851 
     82 H82        17.4208  -27.8439  -41.2188 H         1 UNK         0.0851 
     83 H83        19.1160  -27.4018  -41.2089 H         1 UNK         0.0851 
     84 H84        16.8919  -25.5597  -44.0105 H         1 UNK         0.2976 
     85 H85        21.5595  -27.6731  -42.8662 H         1 UNK         0.3116 
     86 H86        22.5906  -28.1129  -40.9981 H         1 UNK         0.0646 
     87 H87        23.4873  -26.3346  -39.5627 H         1 UNK         0.0847 
     88 H88        22.0071  -25.7857  -40.3282 H         1 UNK         0.0847 
     89 H89        23.5712  -25.2176  -40.9144 H         1 UNK         0.0847 
     90 H90        24.4286  -27.4441  -43.6896 H         1 UNK         0.3040 
     91 H91        27.0732  -27.4876  -42.8140 H         1 UNK         0.1015 
     92 H92        26.3769  -26.8957  -45.1214 H         1 UNK         0.0786 
     93 H93        25.8905  -28.5625  -45.4348 H         1 UNK         0.0786 
     94 H94        27.5838  -28.1690  -45.1703 H         1 UNK         0.0786 
     95 H95        24.8885  -30.2026  -43.0967 H         1 UNK         0.3172 
     96 H96        26.9533  -32.2636  -42.8587 H         1 UNK         0.0595 
     97 H97        23.9012  -32.4693  -42.6940 H         1 UNK         0.0839 
     98 H98        25.0237  -33.8084  -42.8557 H         1 UNK         0.0839 
     99 H99        24.8572  -32.6531  -44.1638 H         1 UNK         0.0839 
    100 H100       25.7290  -30.1174  -40.6114 H         1 UNK         0.2998 
    101 H101       25.7815  -29.8551  -38.4617 H         1 UNK         0.0822 
    102 H102       28.0450  -30.8813  -38.4972 H         1 UNK         0.0787 
    103 H103       27.2114  -31.2246  -36.9898 H         1 UNK         0.0787 
    104 H104       27.3484  -32.4759  -38.2126 H         1 UNK         0.0787 
    105 H105       24.8615  -33.2162  -39.1875 H         1 UNK         0.3055 
    106 H106       22.9792  -33.4583  -36.9694 H         1 UNK         0.1106 
    107 H107       22.3107  -35.5537  -38.1606 H         1 UNK         0.0828 
    108 H108       23.2951  -35.1012  -39.5460 H         1 UNK         0.0828 
    109 H109       24.0559  -35.4569  -37.9953 H         1 UNK         0.0828 
    110 H110       22.8837  -32.0954  -40.1279 H         1 UNK         0.2931 
    111 H111       20.0484  -32.0044  -40.6028 H         1 UNK         0.0412 
    112 H112       18.9294  -29.1483  -38.8188 H         1 UNK         0.3472 
    113 H113       18.5184  -30.5184  -39.8178 H         1 UNK         0.3472 
    114 H114       22.4238  -30.4549  -41.7380 H         1 UNK         0.0970 
    115 H115       21.6466  -31.8437  -42.4384 H         1 UNK         0.0970 
    116 H116       20.4999  -31.5927  -44.4507 H         1 UNK         0.0612 
    117 H117       18.9329  -31.5425  -43.6685 H         1 UNK         0.0612 
@<TRIPOS>BOND
     1    1    2 1    
     2    1   62 1    
     3    1   63 1    
     4    1   64 1    
     5    2    3 2    
     6    2    4 am   BACKBONE|DICT|INTERRES
     7    4    5 1    
     8    4   65 1    
     9    5    6 1    
    10    5   25 1    
    11    5   66 1    
    12    6    7 1    
    13    6   67 1    
    14    6   68 1    
    15    7    8 1    
    16    8    9 1    
    17    8   69 1    
    18    8   70 1    
    19    9   10 ar   
    20    9   14 ar   
    21   10   11 ar   
    22   10   71 1    
    23   11   12 ar   
    24   11   61 1    
    25   12   13 ar   
    26   12   72 1    
    27   13   14 ar   
    28   13   15 1    
    29   14   73 1    
    30   15   16 1    
    31   15   74 1    
    32   15   75 1    
    33   16   17 1    
    34   17   18 1    
    35   17   76 1    
    36   17   77 1    
    37   18   19 1    
    38   18   27 1    
    39   18   78 1    
    40   19   20 am   BACKBONE|DICT|INTERRES
    41   19   79 1    
    42   20   21 2    
    43   20   22 1    
    44   22   23 1    
    45   22   24 1    
    46   22   80 1    
    47   23   81 1    
    48   23   82 1    
    49   23   83 1    
    50   24   25 am   BACKBONE|DICT|INTERRES
    51   24   84 1    
    52   25   26 2    
    53   27   28 2    
    54   27   29 am   BACKBONE|DICT|INTERRES
    55   29   30 1    
    56   29   85 1    
    57   30   31 1    
    58   30   32 1    
    59   30   86 1    
    60   31   87 1    
    61   31   88 1    
    62   31   89 1    
    63   32   33 2    
    64   32   34 am   BACKBONE|DICT|INTERRES
    65   34   35 1    
    66   34   90 1    
    67   35   36 1    
    68   35   37 1    
    69   35   91 1    
    70   36   92 1    
    71   36   93 1    
    72   36   94 1    
    73   37   38 2    
    74   37   39 am   BACKBONE|DICT|INTERRES
    75   39   40 1    
    76   39   95 1    
    77   40   41 1    
    78   40   42 1    
    79   40   96 1    
    80   41   97 1    
    81   41   98 1    
    82   41   99 1    
    83   42   43 2    
    84   42   44 am   BACKBONE|DICT|INTERRES
    85   44   45 1    
    86   44  100 1    
    87   45   46 1    
    88   45   47 1    
    89   45  101 1    
    90   46  102 1    
    91   46  103 1    
    92   46  104 1    
    93   47   48 2    
    94   47   49 am   BACKBONE|DICT|INTERRES
    95   49   50 1    
    96   49  105 1    
    97   50   51 1    
    98   50   52 1    
    99   50  106 1    
   100   51  107 1    
   101   51  108 1    
   102   51  109 1    
   103   52   53 2    
   104   52   54 am   BACKBONE|DICT|INTERRES
   105   54   55 1    
   106   54  110 1    
   107   55   56 1    
   108   55   59 1    
   109   55  111 1    
   110   56   57 am   BACKBONE|DICT|INTERRES
   111   56   58 2    
   112   57  112 1    
   113   57  113 1    
   114   59   60 1    
   115   59  114 1    
   116   59  115 1    
   117   60   61 1    
   118   61  116 1    
   119   61  117 1    
@<TRIPOS>SUBSTRUCTURE
     1 UNK         1 GROUP             0       ****    0 ROOT    
