@<TRIPOS>MOLECULE
3R8
117   119    1
SMALL
USER_CHARGES


@<TRIPOS>ATOM
      1 CA         17.7490  -34.0284  -44.0475 C.3       0 UNK        -0.2013 
      2 C          17.3994  -32.5510  -44.1407 C.2       0 UNK         0.4866 
      3 O          16.6821  -32.0367  -43.2835 O.2       0 UNK        -0.5176 
      4 N          17.8959  -31.8670  -45.1755 N.am      1 UNK        -0.4884 
      5 CA         17.7120  -30.4389  -45.4169 C.3       1 UNK         0.0853 
      6 C6         16.2968  -30.1195  -45.9706 C.3       10 UNK        -0.0849 
      7 S7         15.9779  -28.3411  -46.2589 S.3       10 UNK        -0.2776 
      8 C8         14.9530  -27.8828  -44.8282 C.3       10 UNK         0.0316 
      9 C9         15.7882  -27.6314  -43.5810 C.ar      10 UNK        -0.0863 
     10 C10        15.9666  -28.6445  -42.6355 C.ar      10 UNK        -0.1009 
     11 C11        16.6776  -28.4008  -41.4567 C.ar      10 UNK        -0.0712 
     12 C12        17.2062  -27.1256  -41.2257 C.ar      10 UNK        -0.0894 
     13 C13        17.0525  -26.1079  -42.1723 C.ar      10 UNK        -0.0745 
     14 C14        16.3442  -26.3689  -43.3500 C.ar      10 UNK        -0.0972 
     15 C15        17.6046  -24.7135  -41.8982 C.3       10 UNK         0.0209 
     16 S16        19.4262  -24.6621  -41.8345 S.3       10 UNK        -0.2568 
     17 C17        19.8857  -24.9436  -43.5775 C.3       10 UNK        -0.0983 
     18 CA         21.0576  -25.9605  -43.7151 C.3       3 UNK         0.0876 
     19 N          20.8247  -26.9618  -44.7599 N.am      3 UNK        -0.4424 
     20 C          20.6421  -26.7512  -46.0718 C.2       2 UNK         0.4918 
     21 O          20.6863  -25.6483  -46.6148 O.2       2 UNK        -0.4875 
     22 CA         20.3162  -27.9998  -46.8993 C.3       2 UNK         0.0481 
     23 CB         21.6073  -28.8064  -47.1592 C.3       2 UNK        -0.1831 
     24 N          19.2952  -28.7516  -46.1656 N.am      2 UNK        -0.4498 
     25 C          18.8402  -29.9921  -46.3636 C.2       1 UNK         0.5027 
     26 O          19.2442  -30.7644  -47.2375 O.2       1 UNK        -0.4969 
     27 C          22.4551  -25.2991  -43.8050 C.2       3 UNK         0.5005 
     28 O          22.6810  -24.2496  -43.1998 O.2       3 UNK        -0.5279 
     29 N          23.3830  -25.9327  -44.5396 N.am      4 UNK        -0.4463 
     30 CA         24.7798  -25.5092  -44.6851 C.3       4 UNK         0.0283 
     31 CB         25.3833  -26.1907  -45.9240 C.3       4 UNK        -0.1875 
     32 C          25.6306  -25.8120  -43.4379 C.2       4 UNK         0.4949 
     33 O          26.6597  -25.1676  -43.2343 O.2       4 UNK        -0.5039 
     34 N          25.1857  -26.7788  -42.6303 N.am      5 UNK        -0.4663 
     35 CA         25.7550  -27.1763  -41.3495 C.3       5 UNK         0.0242 
     36 CB         26.8394  -28.2464  -41.5732 C.3       5 UNK        -0.1982 
     37 C          24.6120  -27.7191  -40.4844 C.2       5 UNK         0.5017 
     38 O          23.5501  -28.0512  -41.0178 O.2       5 UNK        -0.5012 
     39 N          24.8484  -27.8143  -39.1705 N.am      6 UNK        -0.4439 
     40 CA         23.8930  -28.3770  -38.2113 C.3       6 UNK         0.0297 
     41 CB         24.2716  -27.9313  -36.7897 C.3       6 UNK        -0.2006 
     42 C          23.7999  -29.9116  -38.2847 C.2       6 UNK         0.4892 
     43 O          22.7342  -30.4590  -38.0004 O.2       6 UNK        -0.5089 
     44 N          24.9092  -30.5707  -38.6555 N.am      7 UNK        -0.4243 
     45 CA         25.0621  -32.0246  -38.7634 C.3       7 UNK         0.0196 
     46 CB         26.5191  -32.3487  -39.1372 C.3       7 UNK        -0.2007 
     47 C          24.0767  -32.6303  -39.7760 C.2       7 UNK         0.5020 
     48 O          24.2891  -32.5031  -40.9834 O.2       7 UNK        -0.5147 
     49 N          22.9851  -33.2132  -39.2569 N.am      8 UNK        -0.4734 
     50 CA         21.8275  -33.7531  -39.9890 C.3       8 UNK         0.0238 
     51 CB         22.2252  -35.0364  -40.7492 C.3       8 UNK        -0.1912 
     52 C          21.1338  -32.7202  -40.9051 C.2       8 UNK         0.5038 
     53 O          20.5003  -33.1102  -41.8871 O.2       8 UNK        -0.5046 
     54 N          21.2916  -31.4279  -40.5820 N.am      9 UNK        -0.4200 
     55 CA         20.9104  -30.2727  -41.4096 C.3       9 UNK         0.0839 
     56 C          21.6481  -30.1904  -42.7817 C.2       9 UNK         0.5513 
     57 N          22.7832  -30.8528  -42.9744 N.am      9 UNK        -0.7519 
     58 O          21.1985  -29.4894  -43.6840 O.2       9 UNK        -0.4960 
     59 C59        19.3724  -30.1009  -41.5411 C.3       10 UNK        -0.0876 
     60 S60        18.5833  -29.7761  -39.9304 S.3       10 UNK        -0.2414 
     61 C61        16.8504  -29.5173  -40.4318 C.3       10 UNK         0.0169 
     62 H62        18.2468  -34.2347  -43.1003 H         1 UNK         0.0903 
     63 H63        16.8436  -34.6327  -44.0962 H         1 UNK         0.0903 
     64 H64        18.4126  -34.3424  -44.8529 H         1 UNK         0.0903 
     65 H65        18.4995  -32.3160  -45.8548 H         1 UNK         0.3096 
     66 H66        17.8452  -29.9217  -44.4639 H         1 UNK         0.1121 
     67 H67        15.5361  -30.5081  -45.2926 H         1 UNK         0.0849 
     68 H68        16.1397  -30.6446  -46.9147 H         1 UNK         0.0849 
     69 H69        14.3958  -26.9783  -45.0774 H         1 UNK         0.0865 
     70 H70        14.2005  -28.6510  -44.6431 H         1 UNK         0.0865 
     71 H71        15.5410  -29.6231  -42.8130 H         1 UNK         0.1346 
     72 H72        17.7456  -26.9261  -40.3097 H         1 UNK         0.1412 
     73 H73        16.2043  -25.5827  -44.0796 H         1 UNK         0.1426 
     74 H74        17.2139  -24.3643  -40.9414 H         1 UNK         0.0716 
     75 H75        17.2549  -24.0000  -42.6461 H         1 UNK         0.0716 
     76 H76        20.1171  -23.9874  -44.0504 H         1 UNK         0.0695 
     77 H77        19.0024  -25.3126  -44.0999 H         1 UNK         0.0695 
     78 H78        21.0996  -26.5560  -42.8009 H         1 UNK         0.0983 
     79 H79        20.8423  -27.9290  -44.4317 H         1 UNK         0.3095 
     80 H80        19.8895  -27.6828  -47.8523 H         1 UNK         0.0454 
     81 H81        21.4493  -29.5896  -47.8996 H         1 UNK         0.0851 
     82 H82        21.9864  -29.2770  -46.2520 H         1 UNK         0.0851 
     83 H83        22.3980  -28.1647  -47.5504 H         1 UNK         0.0851 
     84 H84        18.8410  -28.2094  -45.4423 H         1 UNK         0.2976 
     85 H85        23.1136  -26.7862  -45.0061 H         1 UNK         0.3116 
     86 H86        24.7993  -24.4290  -44.8450 H         1 UNK         0.0646 
     87 H87        25.3913  -27.2770  -45.8258 H         1 UNK         0.0847 
     88 H88        24.8280  -25.9377  -46.8274 H         1 UNK         0.0847 
     89 H89        26.4147  -25.8712  -46.0801 H         1 UNK         0.0847 
     90 H90        24.2983  -27.2229  -42.8324 H         1 UNK         0.3040 
     91 H91        26.1849  -26.3027  -40.8540 H         1 UNK         0.1015 
     92 H92        27.3002  -28.5460  -40.6314 H         1 UNK         0.0786 
     93 H93        27.6368  -27.8740  -42.2167 H         1 UNK         0.0786 
     94 H94        26.4279  -29.1442  -42.0371 H         1 UNK         0.0786 
     95 H95        25.7383  -27.5042  -38.8055 H         1 UNK         0.3172 
     96 H96        22.9016  -27.9768  -38.4361 H         1 UNK         0.0595 
     97 H97        25.2602  -28.2898  -36.5002 H         1 UNK         0.0839 
     98 H98        23.5593  -28.3171  -36.0586 H         1 UNK         0.0839 
     99 H99        24.2673  -26.8449  -36.6994 H         1 UNK         0.0839 
    100 H100       25.7204  -30.0210  -38.8943 H         1 UNK         0.2998 
    101 H101       24.8641  -32.4557  -37.7798 H         1 UNK         0.0822 
    102 H102       26.6659  -33.4253  -39.2339 H         1 UNK         0.0787 
    103 H103       27.2135  -31.9954  -38.3746 H         1 UNK         0.0787 
    104 H104       26.8044  -31.8948  -40.0875 H         1 UNK         0.0787 
    105 H105       22.8878  -33.2037  -38.2498 H         1 UNK         0.3055 
    106 H106       21.0854  -34.0281  -39.2377 H         1 UNK         0.1106 
    107 H107       22.9169  -34.8238  -41.5651 H         1 UNK         0.0828 
    108 H108       22.6994  -35.7603  -40.0868 H         1 UNK         0.0828 
    109 H109       21.3510  -35.5230  -41.1837 H         1 UNK         0.0828 
    110 H110       21.8162  -31.2066  -39.7435 H         1 UNK         0.2931 
    111 H111       21.2764  -29.4046  -40.8617 H         1 UNK         0.0412 
    112 H112       23.1928  -31.4175  -42.2373 H         1 UNK         0.3472 
    113 H113       23.2464  -30.7821  -43.8648 H         1 UNK         0.3472 
    114 H114       19.1409  -29.2591  -42.1951 H         1 UNK         0.0970 
    115 H115       18.9153  -30.9781  -41.9995 H         1 UNK         0.0970 
    116 H116       16.4613  -30.4608  -40.8185 H         1 UNK         0.0612 
    117 H117       16.2600  -29.2780  -39.5466 H         1 UNK         0.0612 
@<TRIPOS>BOND
     1    1    2 1    
     2    1   62 1    
     3    1   63 1    
     4    1   64 1    
     5    2    3 2    
     6    2    4 am   BACKBONE|DICT|INTERRES
     7    4    5 1    
     8    4   65 1    
     9    5    6 1    
    10    5   25 1    
    11    5   66 1    
    12    6    7 1    
    13    6   67 1    
    14    6   68 1    
    15    7    8 1    
    16    8    9 1    
    17    8   69 1    
    18    8   70 1    
    19    9   10 ar   
    20    9   14 ar   
    21   10   11 ar   
    22   10   71 1    
    23   11   12 ar   
    24   11   61 1    
    25   12   13 ar   
    26   12   72 1    
    27   13   14 ar   
    28   13   15 1    
    29   14   73 1    
    30   15   16 1    
    31   15   74 1    
    32   15   75 1    
    33   16   17 1    
    34   17   18 1    
    35   17   76 1    
    36   17   77 1    
    37   18   19 1    
    38   18   27 1    
    39   18   78 1    
    40   19   20 am   BACKBONE|DICT|INTERRES
    41   19   79 1    
    42   20   21 2    
    43   20   22 1    
    44   22   23 1    
    45   22   24 1    
    46   22   80 1    
    47   23   81 1    
    48   23   82 1    
    49   23   83 1    
    50   24   25 am   BACKBONE|DICT|INTERRES
    51   24   84 1    
    52   25   26 2    
    53   27   28 2    
    54   27   29 am   BACKBONE|DICT|INTERRES
    55   29   30 1    
    56   29   85 1    
    57   30   31 1    
    58   30   32 1    
    59   30   86 1    
    60   31   87 1    
    61   31   88 1    
    62   31   89 1    
    63   32   33 2    
    64   32   34 am   BACKBONE|DICT|INTERRES
    65   34   35 1    
    66   34   90 1    
    67   35   36 1    
    68   35   37 1    
    69   35   91 1    
    70   36   92 1    
    71   36   93 1    
    72   36   94 1    
    73   37   38 2    
    74   37   39 am   BACKBONE|DICT|INTERRES
    75   39   40 1    
    76   39   95 1    
    77   40   41 1    
    78   40   42 1    
    79   40   96 1    
    80   41   97 1    
    81   41   98 1    
    82   41   99 1    
    83   42   43 2    
    84   42   44 am   BACKBONE|DICT|INTERRES
    85   44   45 1    
    86   44  100 1    
    87   45   46 1    
    88   45   47 1    
    89   45  101 1    
    90   46  102 1    
    91   46  103 1    
    92   46  104 1    
    93   47   48 2    
    94   47   49 am   BACKBONE|DICT|INTERRES
    95   49   50 1    
    96   49  105 1    
    97   50   51 1    
    98   50   52 1    
    99   50  106 1    
   100   51  107 1    
   101   51  108 1    
   102   51  109 1    
   103   52   53 2    
   104   52   54 am   BACKBONE|DICT|INTERRES
   105   54   55 1    
   106   54  110 1    
   107   55   56 1    
   108   55   59 1    
   109   55  111 1    
   110   56   57 am   BACKBONE|DICT|INTERRES
   111   56   58 2    
   112   57  112 1    
   113   57  113 1    
   114   59   60 1    
   115   59  114 1    
   116   59  115 1    
   117   60   61 1    
   118   61  116 1    
   119   61  117 1    
@<TRIPOS>SUBSTRUCTURE
     1 UNK         1 GROUP             0       ****    0 ROOT    
