@<TRIPOS>MOLECULE
3R8
117   119    1
SMALL
USER_CHARGES


@<TRIPOS>ATOM
      1 CA         17.5021  -25.9523  -37.8715 C.3       0 UNK        -0.2013 
      2 C          17.6532  -25.6212  -39.3488 C.2       0 UNK         0.4866 
      3 O          18.0538  -24.5075  -39.6901 O.2       0 UNK        -0.5176 
      4 N          17.3246  -26.5745  -40.2296 N.am      1 UNK        -0.4884 
      5 CA         17.4941  -26.4551  -41.6778 C.3       1 UNK         0.0853 
      6 C6         16.3896  -27.2303  -42.4429 C.3       10 UNK        -0.0849 
      7 S7         16.2052  -26.6493  -44.1646 S.3       10 UNK        -0.2776 
      8 C8         15.4162  -28.0820  -44.9700 C.3       10 UNK         0.0316 
      9 C9         16.4293  -29.1567  -45.3386 C.ar      10 UNK        -0.0863 
     10 C10        16.6667  -30.2294  -44.4740 C.ar      10 UNK        -0.1009 
     11 C11        17.6156  -31.2036  -44.7954 C.ar      10 UNK        -0.0712 
     12 C12        18.3129  -31.1136  -46.0023 C.ar      10 UNK        -0.0894 
     13 C13        18.0905  -30.0431  -46.8730 C.ar      10 UNK        -0.0745 
     14 C14        17.1375  -29.0737  -46.5427 C.ar      10 UNK        -0.0972 
     15 C15        18.9283  -29.9100  -48.1388 C.3       10 UNK         0.0209 
     16 S16        20.1394  -28.5436  -48.0487 S.3       10 UNK        -0.2568 
     17 C17        20.7018  -28.6235  -46.3154 C.3       10 UNK        -0.0983 
     18 CA         21.9255  -27.7088  -46.0258 C.3       3 UNK         0.0876 
     19 N          21.9536  -27.2991  -44.6240 N.am      3 UNK        -0.4424 
     20 C          21.1872  -26.3377  -44.1081 C.2       2 UNK         0.4918 
     21 O          20.4641  -25.5984  -44.7812 O.2       2 UNK        -0.4875 
     22 CA         21.2217  -26.1713  -42.5802 C.3       2 UNK         0.0481 
     23 CB         22.1065  -24.9803  -42.1816 C.3       2 UNK        -0.1831 
     24 N          19.8636  -25.9626  -42.0756 N.am      2 UNK        -0.4498 
     25 C          18.9197  -26.9134  -42.0417 C.2       1 UNK         0.5027 
     26 O          19.1451  -28.1080  -42.2459 O.2       1 UNK        -0.4969 
     27 C          23.3004  -28.3135  -46.3576 C.2       3 UNK         0.5005 
     28 O          24.3176  -27.6701  -46.0874 O.2       3 UNK        -0.5279 
     29 N          23.3277  -29.5426  -46.8946 N.am      4 UNK        -0.4463 
     30 CA         24.5358  -30.3649  -47.0264 C.3       4 UNK         0.0283 
     31 CB         24.2159  -31.6217  -47.8513 C.3       4 UNK        -0.1875 
     32 C          25.1299  -30.7482  -45.6567 C.2       4 UNK         0.4949 
     33 O          26.3513  -30.8279  -45.5246 O.2       4 UNK        -0.5039 
     34 N          24.2543  -30.9360  -44.6596 N.am      5 UNK        -0.4663 
     35 CA         24.6087  -31.0046  -43.2450 C.3       5 UNK         0.0242 
     36 CB         23.5757  -31.8710  -42.5084 C.3       5 UNK        -0.1982 
     37 C          24.6182  -29.5818  -42.6671 C.2       5 UNK         0.5017 
     38 O          23.6875  -28.8146  -42.9329 O.2       5 UNK        -0.5012 
     39 N          25.6529  -29.2594  -41.8830 N.am      6 UNK        -0.4439 
     40 CA         25.7793  -27.9847  -41.1764 C.3       6 UNK         0.0297 
     41 CB         27.2396  -27.7887  -40.7382 C.3       6 UNK        -0.2006 
     42 C          24.8418  -27.9409  -39.9602 C.2       6 UNK         0.4892 
     43 O          24.6936  -28.9540  -39.2741 O.2       6 UNK        -0.5089 
     44 N          24.2563  -26.7626  -39.7096 N.am      7 UNK        -0.4243 
     45 CA         23.3005  -26.4232  -38.6450 C.3       7 UNK         0.0196 
     46 CB         23.8955  -26.6443  -37.2395 C.3       7 UNK        -0.2007 
     47 C          21.9266  -27.1024  -38.7899 C.2       7 UNK         0.5020 
     48 O          20.9192  -26.3988  -38.8219 O.2       7 UNK        -0.5147 
     49 N          21.8997  -28.4351  -38.8788 N.am      8 UNK        -0.4734 
     50 CA         20.7075  -29.2615  -39.0564 C.3       8 UNK         0.0238 
     51 CB         19.8665  -29.2855  -37.7635 C.3       8 UNK        -0.1912 
     52 C          21.1343  -30.6818  -39.4462 C.2       8 UNK         0.5038 
     53 O          22.2615  -31.0844  -39.1499 O.2       8 UNK        -0.5046 
     54 N          20.2146  -31.4263  -40.0696 N.am      9 UNK        -0.4200 
     55 CA         20.4154  -32.8250  -40.4907 C.3       9 UNK         0.0839 
     56 C          20.3738  -33.8681  -39.3356 C.2       9 UNK         0.5513 
     57 N          19.9926  -33.5032  -38.1172 N.am      9 UNK        -0.7519 
     58 O          20.6981  -35.0331  -39.5506 O.2       9 UNK        -0.4960 
     59 C59        19.4500  -33.2289  -41.6362 C.3       10 UNK        -0.0876 
     60 S60        19.5519  -32.0942  -43.0600 S.3       10 UNK        -0.2414 
     61 C61        17.9177  -32.3316  -43.8227 C.3       10 UNK         0.0169 
     62 H62        16.8080  -25.2577  -37.3993 H         1 UNK         0.0903 
     63 H63        17.1300  -26.9646  -37.7149 H         1 UNK         0.0903 
     64 H64        18.4664  -25.8646  -37.3714 H         1 UNK         0.0903 
     65 H65        17.0235  -27.4794  -39.8964 H         1 UNK         0.3096 
     66 H66        17.3963  -25.4024  -41.9550 H         1 UNK         0.1121 
     67 H67        15.4253  -27.0766  -41.9556 H         1 UNK         0.0849 
     68 H68        16.5671  -28.3054  -42.4147 H         1 UNK         0.0849 
     69 H69        14.9065  -27.7395  -45.8720 H         1 UNK         0.0865 
     70 H70        14.6382  -28.4890  -44.3220 H         1 UNK         0.0865 
     71 H71        16.1268  -30.2970  -43.5399 H         1 UNK         0.1346 
     72 H72        19.0600  -31.8586  -46.2402 H         1 UNK         0.1412 
     73 H73        16.9744  -28.2360  -47.2073 H         1 UNK         0.1426 
     74 H74        18.2717  -29.7471  -48.9945 H         1 UNK         0.0716 
     75 H75        19.4656  -30.8380  -48.3405 H         1 UNK         0.0716 
     76 H76        20.8710  -29.6561  -46.0060 H         1 UNK         0.0695 
     77 H77        19.8536  -28.2894  -45.7150 H         1 UNK         0.0695 
     78 H78        21.8432  -26.8063  -46.6359 H         1 UNK         0.0983 
     79 H79        22.5806  -27.8294  -44.0182 H         1 UNK         0.3095 
     80 H80        21.6276  -27.0759  -42.1216 H         1 UNK         0.0454 
     81 H81        21.7645  -24.0515  -42.6401 H         1 UNK         0.0851 
     82 H82        23.1375  -25.1403  -42.4995 H         1 UNK         0.0851 
     83 H83        22.1150  -24.8358  -41.1015 H         1 UNK         0.0851 
     84 H84        19.6032  -25.0131  -41.8494 H         1 UNK         0.2976 
     85 H85        22.4485  -29.9758  -47.1401 H         1 UNK         0.3116 
     86 H86        25.2858  -29.7814  -47.5648 H         1 UNK         0.0646 
     87 H87        23.4597  -32.2428  -47.3695 H         1 UNK         0.0847 
     88 H88        25.1069  -32.2374  -47.9819 H         1 UNK         0.0847 
     89 H89        23.8549  -31.3628  -48.8468 H         1 UNK         0.0847 
     90 H90        23.2737  -30.8108  -44.8613 H         1 UNK         0.3040 
     91 H91        25.5954  -31.4592  -43.1309 H         1 UNK         0.1015 
     92 H92        22.5735  -31.4446  -42.5730 H         1 UNK         0.0786 
     93 H93        23.8231  -31.9552  -41.4491 H         1 UNK         0.0786 
     94 H94        23.5377  -32.8813  -42.9159 H         1 UNK         0.0786 
     95 H95        26.3488  -29.9608  -41.6747 H         1 UNK         0.3172 
     96 H96        25.5135  -27.1788  -41.8645 H         1 UNK         0.0595 
     97 H97        27.3701  -26.8314  -40.2316 H         1 UNK         0.0839 
     98 H98        27.9160  -27.7956  -41.5932 H         1 UNK         0.0839 
     99 H99        27.5629  -28.5681  -40.0467 H         1 UNK         0.0839 
    100 H100       24.4610  -26.0040  -40.3449 H         1 UNK         0.2998 
    101 H101       23.1246  -25.3510  -38.7479 H         1 UNK         0.0822 
    102 H102       23.2105  -26.2865  -36.4697 H         1 UNK         0.0787 
    103 H103       24.0877  -27.6974  -37.0331 H         1 UNK         0.0787 
    104 H104       24.8331  -26.1023  -37.1166 H         1 UNK         0.0787 
    105 H105       22.7840  -28.9432  -38.8908 H         1 UNK         0.3055 
    106 H106       20.1170  -28.8407  -39.8723 H         1 UNK         0.1106 
    107 H107       18.9783  -29.9072  -37.8811 H         1 UNK         0.0828 
    108 H108       20.4366  -29.6837  -36.9233 H         1 UNK         0.0828 
    109 H109       19.5213  -28.2896  -37.4881 H         1 UNK         0.0828 
    110 H110       19.3146  -31.0252  -40.2878 H         1 UNK         0.2931 
    111 H111       21.4262  -32.8926  -40.8956 H         1 UNK         0.0412 
    112 H112       19.7313  -32.5499  -37.9263 H         1 UNK         0.3472 
    113 H113       19.9743  -34.1899  -37.3793 H         1 UNK         0.3472 
    114 H114       18.4235  -33.2574  -41.2663 H         1 UNK         0.0970 
    115 H115       19.6752  -34.2355  -41.9940 H         1 UNK         0.0970 
    116 H116       17.1514  -32.3766  -43.0475 H         1 UNK         0.0612 
    117 H117       17.8949  -33.2899  -44.3435 H         1 UNK         0.0612 
@<TRIPOS>BOND
     1    1    2 1    
     2    1   62 1    
     3    1   63 1    
     4    1   64 1    
     5    2    3 2    
     6    2    4 am   BACKBONE|DICT|INTERRES
     7    4    5 1    
     8    4   65 1    
     9    5    6 1    
    10    5   25 1    
    11    5   66 1    
    12    6    7 1    
    13    6   67 1    
    14    6   68 1    
    15    7    8 1    
    16    8    9 1    
    17    8   69 1    
    18    8   70 1    
    19    9   10 ar   
    20    9   14 ar   
    21   10   11 ar   
    22   10   71 1    
    23   11   12 ar   
    24   11   61 1    
    25   12   13 ar   
    26   12   72 1    
    27   13   14 ar   
    28   13   15 1    
    29   14   73 1    
    30   15   16 1    
    31   15   74 1    
    32   15   75 1    
    33   16   17 1    
    34   17   18 1    
    35   17   76 1    
    36   17   77 1    
    37   18   19 1    
    38   18   27 1    
    39   18   78 1    
    40   19   20 am   BACKBONE|DICT|INTERRES
    41   19   79 1    
    42   20   21 2    
    43   20   22 1    
    44   22   23 1    
    45   22   24 1    
    46   22   80 1    
    47   23   81 1    
    48   23   82 1    
    49   23   83 1    
    50   24   25 am   BACKBONE|DICT|INTERRES
    51   24   84 1    
    52   25   26 2    
    53   27   28 2    
    54   27   29 am   BACKBONE|DICT|INTERRES
    55   29   30 1    
    56   29   85 1    
    57   30   31 1    
    58   30   32 1    
    59   30   86 1    
    60   31   87 1    
    61   31   88 1    
    62   31   89 1    
    63   32   33 2    
    64   32   34 am   BACKBONE|DICT|INTERRES
    65   34   35 1    
    66   34   90 1    
    67   35   36 1    
    68   35   37 1    
    69   35   91 1    
    70   36   92 1    
    71   36   93 1    
    72   36   94 1    
    73   37   38 2    
    74   37   39 am   BACKBONE|DICT|INTERRES
    75   39   40 1    
    76   39   95 1    
    77   40   41 1    
    78   40   42 1    
    79   40   96 1    
    80   41   97 1    
    81   41   98 1    
    82   41   99 1    
    83   42   43 2    
    84   42   44 am   BACKBONE|DICT|INTERRES
    85   44   45 1    
    86   44  100 1    
    87   45   46 1    
    88   45   47 1    
    89   45  101 1    
    90   46  102 1    
    91   46  103 1    
    92   46  104 1    
    93   47   48 2    
    94   47   49 am   BACKBONE|DICT|INTERRES
    95   49   50 1    
    96   49  105 1    
    97   50   51 1    
    98   50   52 1    
    99   50  106 1    
   100   51  107 1    
   101   51  108 1    
   102   51  109 1    
   103   52   53 2    
   104   52   54 am   BACKBONE|DICT|INTERRES
   105   54   55 1    
   106   54  110 1    
   107   55   56 1    
   108   55   59 1    
   109   55  111 1    
   110   56   57 am   BACKBONE|DICT|INTERRES
   111   56   58 2    
   112   57  112 1    
   113   57  113 1    
   114   59   60 1    
   115   59  114 1    
   116   59  115 1    
   117   60   61 1    
   118   61  116 1    
   119   61  117 1    
@<TRIPOS>SUBSTRUCTURE
     1 UNK         1 GROUP             0       ****    0 ROOT    
