@<TRIPOS>MOLECULE
3R8
117   119    1
SMALL
USER_CHARGES


@<TRIPOS>ATOM
      1 CA         15.5451  -26.0264  -40.2981 C.3       0 UNK        -0.2013 
      2 C          15.5037  -26.1551  -41.8136 C.2       0 UNK         0.4866 
      3 O          14.4243  -26.2948  -42.3890 O.2       0 UNK        -0.5176 
      4 N          16.6702  -26.1074  -42.4625 N.am      1 UNK        -0.4884 
      5 CA         16.8553  -26.1887  -43.9097 C.3       1 UNK         0.0853 
      6 C6         16.6781  -27.6338  -44.4429 C.3       10 UNK        -0.0849 
      7 S7         16.2701  -27.6848  -46.2230 S.3       10 UNK        -0.2776 
      8 C8         16.0488  -29.4738  -46.4924 C.3       10 UNK         0.0316 
      9 C9         17.3095  -30.2468  -46.1383 C.ar      10 UNK        -0.0863 
     10 C10        17.4006  -30.9158  -44.9145 C.ar      10 UNK        -0.1009 
     11 C11        18.5842  -31.5583  -44.5436 C.ar      10 UNK        -0.0712 
     12 C12        19.6693  -31.5624  -45.4234 C.ar      10 UNK        -0.0894 
     13 C13        19.5929  -30.8863  -46.6468 C.ar      10 UNK        -0.0745 
     14 C14        18.4050  -30.2435  -47.0059 C.ar      10 UNK        -0.0972 
     15 C15        20.8120  -30.7989  -47.5549 C.3       10 UNK         0.0209 
     16 S16        21.5907  -29.1477  -47.4955 S.3       10 UNK        -0.2568 
     17 C17        22.0869  -29.0425  -45.7415 C.3       10 UNK        -0.0983 
     18 CA         22.1854  -27.6034  -45.1748 C.3       3 UNK         0.0876 
     19 N          21.0191  -26.7804  -45.5120 N.am      3 UNK        -0.4424 
     20 C          21.0571  -25.4500  -45.6582 C.2       2 UNK         0.4918 
     21 O          22.0746  -24.7735  -45.5061 O.2       2 UNK        -0.4875 
     22 CA         19.7408  -24.7444  -46.0362 C.3       2 UNK         0.0481 
     23 CB         19.6325  -24.6109  -47.5636 C.3       2 UNK        -0.1831 
     24 N          18.5221  -25.3802  -45.5216 N.am      2 UNK        -0.4498 
     25 C          18.2452  -25.6067  -44.2310 C.2       1 UNK         0.5027 
     26 O          19.0417  -25.3845  -43.3145 O.2       1 UNK        -0.4969 
     27 C          22.4354  -27.6880  -43.6535 C.2       3 UNK         0.5005 
     28 O          23.4600  -28.2488  -43.2621 O.2       3 UNK        -0.5279 
     29 N          21.4996  -27.2147  -42.8139 N.am      4 UNK        -0.4463 
     30 CA         21.5277  -27.4055  -41.3598 C.3       4 UNK         0.0283 
     31 CB         20.2703  -26.7945  -40.7235 C.3       4 UNK        -0.1875 
     32 C          22.8020  -26.8449  -40.7048 C.2       4 UNK         0.4949 
     33 O          23.2247  -25.7374  -41.0391 O.2       4 UNK        -0.5039 
     34 N          23.3813  -27.6511  -39.8066 N.am      5 UNK        -0.4663 
     35 CA         24.6538  -27.4911  -39.0884 C.3       5 UNK         0.0242 
     36 CB         24.8707  -26.0717  -38.5242 C.3       5 UNK        -0.1982 
     37 C          25.8730  -27.9981  -39.8780 C.2       5 UNK         0.5017 
     38 O          26.8809  -28.3214  -39.2478 O.2       5 UNK        -0.5012 
     39 N          25.7640  -28.1187  -41.2095 N.am      6 UNK        -0.4439 
     40 CA         26.6773  -28.9241  -42.0250 C.3       6 UNK         0.0297 
     41 CB         26.8430  -28.3088  -43.4251 C.3       6 UNK        -0.2006 
     42 C          26.1420  -30.3628  -42.0914 C.2       6 UNK         0.4892 
     43 O          26.8817  -31.3036  -41.8008 O.2       6 UNK        -0.5089 
     44 N          24.8489  -30.4958  -42.4154 N.am      7 UNK        -0.4243 
     45 CA         24.0644  -31.7167  -42.2604 C.3       7 UNK         0.0196 
     46 CB         22.8424  -31.6494  -43.1910 C.3       7 UNK        -0.2007 
     47 C          23.6114  -31.8851  -40.8019 C.2       7 UNK         0.5020 
     48 O          23.4682  -30.8981  -40.0722 O.2       7 UNK        -0.5147 
     49 N          23.3380  -33.1410  -40.4243 N.am      8 UNK        -0.4734 
     50 CA         22.9266  -33.5631  -39.0783 C.3       8 UNK         0.0238 
     51 CB         22.8729  -35.0993  -39.0305 C.3       8 UNK        -0.1912 
     52 C          21.5968  -32.9643  -38.5821 C.2       8 UNK         0.5038 
     53 O          21.3593  -32.9635  -37.3735 O.2       8 UNK        -0.5046 
     54 N          20.7693  -32.4560  -39.5045 N.am      9 UNK        -0.4200 
     55 CA         19.5655  -31.6675  -39.2076 C.3       9 UNK         0.0839 
     56 C          19.8411  -30.2356  -38.6550 C.2       9 UNK         0.5513 
     57 N          21.0813  -29.7597  -38.6147 N.am      9 UNK        -0.7519 
     58 O          18.9117  -29.5549  -38.2294 O.2       9 UNK        -0.4960 
     59 C59        18.5696  -31.6694  -40.3960 C.3       10 UNK        -0.0876 
     60 S60        19.2411  -30.9626  -41.9424 S.3       10 UNK        -0.2414 
     61 C61        18.6979  -32.1953  -43.1687 C.3       10 UNK         0.0169 
     62 H62        15.0976  -26.9053  -39.8349 H         1 UNK         0.0903 
     63 H63        16.5646  -25.9300  -39.9246 H         1 UNK         0.0903 
     64 H64        14.9823  -25.1492  -39.9801 H         1 UNK         0.0903 
     65 H65        17.5351  -25.9262  -41.9658 H         1 UNK         0.3096 
     66 H66        16.1119  -25.5343  -44.3713 H         1 UNK         0.1121 
     67 H67        15.8638  -28.1355  -43.9180 H         1 UNK         0.0849 
     68 H68        17.5716  -28.2280  -44.2422 H         1 UNK         0.0849 
     69 H69        15.1995  -29.8267  -45.9052 H         1 UNK         0.0865 
     70 H70        15.7916  -29.6496  -47.5380 H         1 UNK         0.0865 
     71 H71        16.5655  -30.8976  -44.2275 H         1 UNK         0.1346 
     72 H72        20.5911  -32.0466  -45.1323 H         1 UNK         0.1412 
     73 H73        18.3487  -29.7028  -47.9412 H         1 UNK         0.1426 
     74 H74        20.5154  -31.0147  -48.5823 H         1 UNK         0.0716 
     75 H75        21.5520  -31.5536  -47.2839 H         1 UNK         0.0716 
     76 H76        23.0481  -29.5505  -45.6435 H         1 UNK         0.0695 
     77 H77        21.3848  -29.6135  -45.1373 H         1 UNK         0.0695 
     78 H78        23.0734  -27.1419  -45.6125 H         1 UNK         0.0983 
     79 H79        20.1533  -27.2706  -45.6820 H         1 UNK         0.3095 
     80 H80        19.7812  -23.7394  -45.6112 H         1 UNK         0.0454 
     81 H81        19.5494  -25.5845  -48.0487 H         1 UNK         0.0851 
     82 H82        20.5128  -24.1160  -47.9764 H         1 UNK         0.0851 
     83 H83        18.7658  -24.0159  -47.8515 H         1 UNK         0.0851 
     84 H84        17.8251  -25.6409  -46.2070 H         1 UNK         0.2976 
     85 H85        20.7110  -26.7018  -43.1901 H         1 UNK         0.3116 
     86 H86        21.4958  -28.4843  -41.1903 H         1 UNK         0.0646 
     87 H87        19.3642  -27.2468  -41.1266 H         1 UNK         0.0847 
     88 H88        20.2190  -25.7177  -40.8893 H         1 UNK         0.0847 
     89 H89        20.2578  -26.9591  -39.6454 H         1 UNK         0.0847 
     90 H90        22.9663  -28.5673  -39.6877 H         1 UNK         0.3040 
     91 H91        24.5689  -28.1599  -38.2300 H         1 UNK         0.1015 
     92 H92        25.0909  -25.3477  -39.3089 H         1 UNK         0.0786 
     93 H93        25.7154  -26.0576  -37.8343 H         1 UNK         0.0786 
     94 H94        23.9970  -25.7221  -37.9743 H         1 UNK         0.0786 
     95 H95        24.8936  -27.8412  -41.6485 H         1 UNK         0.3172 
     96 H96        27.6659  -28.9504  -41.5617 H         1 UNK         0.0595 
     97 H97        25.9104  -28.2901  -43.9876 H         1 UNK         0.0839 
     98 H98        27.5612  -28.8808  -44.0137 H         1 UNK         0.0839 
     99 H99        27.2159  -27.2864  -43.3648 H         1 UNK         0.0839 
    100 H100       24.3221  -29.6568  -42.6557 H         1 UNK         0.2998 
    101 H101       24.6799  -32.5732  -42.5438 H         1 UNK         0.0822 
    102 H102       23.1463  -31.5578  -44.2334 H         1 UNK         0.0787 
    103 H103       22.2336  -32.5508  -43.1113 H         1 UNK         0.0787 
    104 H104       22.2002  -30.8007  -42.9516 H         1 UNK         0.0787 
    105 H105       23.4613  -33.8808  -41.1015 H         1 UNK         0.3055 
    106 H106       23.6979  -33.2253  -38.3825 H         1 UNK         0.1106 
    107 H107       22.1355  -35.4994  -39.7276 H         1 UNK         0.0828 
    108 H108       22.6021  -35.4509  -38.0337 H         1 UNK         0.0828 
    109 H109       23.8403  -35.5397  -39.2726 H         1 UNK         0.0828 
    110 H110       21.0545  -32.4796  -40.4716 H         1 UNK         0.2931 
    111 H111       19.0560  -32.1831  -38.3911 H         1 UNK         0.0412 
    112 H112       21.8540  -30.3172  -38.9596 H         1 UNK         0.3472 
    113 H113       21.2381  -28.8589  -38.1937 H         1 UNK         0.3472 
    114 H114       17.6609  -31.1235  -40.1354 H         1 UNK         0.0970 
    115 H115       18.2465  -32.6952  -40.5786 H         1 UNK         0.0970 
    116 H116       19.4015  -33.0289  -43.1839 H         1 UNK         0.0612 
    117 H117       17.7294  -32.6073  -42.8809 H         1 UNK         0.0612 
@<TRIPOS>BOND
     1    1    2 1    
     2    1   62 1    
     3    1   63 1    
     4    1   64 1    
     5    2    3 2    
     6    2    4 am   BACKBONE|DICT|INTERRES
     7    4    5 1    
     8    4   65 1    
     9    5    6 1    
    10    5   25 1    
    11    5   66 1    
    12    6    7 1    
    13    6   67 1    
    14    6   68 1    
    15    7    8 1    
    16    8    9 1    
    17    8   69 1    
    18    8   70 1    
    19    9   10 ar   
    20    9   14 ar   
    21   10   11 ar   
    22   10   71 1    
    23   11   12 ar   
    24   11   61 1    
    25   12   13 ar   
    26   12   72 1    
    27   13   14 ar   
    28   13   15 1    
    29   14   73 1    
    30   15   16 1    
    31   15   74 1    
    32   15   75 1    
    33   16   17 1    
    34   17   18 1    
    35   17   76 1    
    36   17   77 1    
    37   18   19 1    
    38   18   27 1    
    39   18   78 1    
    40   19   20 am   BACKBONE|DICT|INTERRES
    41   19   79 1    
    42   20   21 2    
    43   20   22 1    
    44   22   23 1    
    45   22   24 1    
    46   22   80 1    
    47   23   81 1    
    48   23   82 1    
    49   23   83 1    
    50   24   25 am   BACKBONE|DICT|INTERRES
    51   24   84 1    
    52   25   26 2    
    53   27   28 2    
    54   27   29 am   BACKBONE|DICT|INTERRES
    55   29   30 1    
    56   29   85 1    
    57   30   31 1    
    58   30   32 1    
    59   30   86 1    
    60   31   87 1    
    61   31   88 1    
    62   31   89 1    
    63   32   33 2    
    64   32   34 am   BACKBONE|DICT|INTERRES
    65   34   35 1    
    66   34   90 1    
    67   35   36 1    
    68   35   37 1    
    69   35   91 1    
    70   36   92 1    
    71   36   93 1    
    72   36   94 1    
    73   37   38 2    
    74   37   39 am   BACKBONE|DICT|INTERRES
    75   39   40 1    
    76   39   95 1    
    77   40   41 1    
    78   40   42 1    
    79   40   96 1    
    80   41   97 1    
    81   41   98 1    
    82   41   99 1    
    83   42   43 2    
    84   42   44 am   BACKBONE|DICT|INTERRES
    85   44   45 1    
    86   44  100 1    
    87   45   46 1    
    88   45   47 1    
    89   45  101 1    
    90   46  102 1    
    91   46  103 1    
    92   46  104 1    
    93   47   48 2    
    94   47   49 am   BACKBONE|DICT|INTERRES
    95   49   50 1    
    96   49  105 1    
    97   50   51 1    
    98   50   52 1    
    99   50  106 1    
   100   51  107 1    
   101   51  108 1    
   102   51  109 1    
   103   52   53 2    
   104   52   54 am   BACKBONE|DICT|INTERRES
   105   54   55 1    
   106   54  110 1    
   107   55   56 1    
   108   55   59 1    
   109   55  111 1    
   110   56   57 am   BACKBONE|DICT|INTERRES
   111   56   58 2    
   112   57  112 1    
   113   57  113 1    
   114   59   60 1    
   115   59  114 1    
   116   59  115 1    
   117   60   61 1    
   118   61  116 1    
   119   61  117 1    
@<TRIPOS>SUBSTRUCTURE
     1 UNK         1 GROUP             0       ****    0 ROOT    
