@<TRIPOS>MOLECULE
3R8
117   119    1
SMALL
USER_CHARGES


@<TRIPOS>ATOM
      1 CA         16.1524  -28.7653  -41.2797 C.3       0 UNK        -0.2013 
      2 C          16.2238  -27.4979  -42.1155 C.2       0 UNK         0.4866 
      3 O          15.7879  -26.4407  -41.6577 O.2       0 UNK        -0.5176 
      4 N          16.7552  -27.6022  -43.3389 N.am      1 UNK        -0.4884 
      5 CA         16.8991  -26.4903  -44.2871 C.3       1 UNK         0.0853 
      6 C6         16.6429  -26.9272  -45.7582 C.3       10 UNK        -0.0849 
      7 S7         15.1295  -27.9429  -45.9428 S.3       10 UNK        -0.2776 
      8 C8         15.6869  -29.3911  -46.9070 C.3       10 UNK         0.0316 
      9 C9         16.9871  -30.0021  -46.3973 C.ar      10 UNK        -0.0863 
     10 C10        17.0434  -30.6403  -45.1536 C.ar      10 UNK        -0.1009 
     11 C11        18.2465  -31.1862  -44.6900 C.ar      10 UNK        -0.0712 
     12 C12        19.3905  -31.1048  -45.4908 C.ar      10 UNK        -0.0894 
     13 C13        19.3506  -30.4483  -46.7256 C.ar      10 UNK        -0.0745 
     14 C14        18.1435  -29.9131  -47.1779 C.ar      10 UNK        -0.0972 
     15 C15        20.6100  -30.2936  -47.5689 C.3       10 UNK         0.0209 
     16 S16        21.3341  -28.6249  -47.4109 S.3       10 UNK        -0.2568 
     17 C17        21.9538  -28.7014  -45.7000 C.3       10 UNK        -0.0983 
     18 CA         22.2530  -27.3370  -45.0306 C.3       3 UNK         0.0876 
     19 N          21.1729  -26.3662  -45.2195 N.am      3 UNK        -0.4424 
     20 C          21.2368  -25.0671  -44.8979 C.2       2 UNK         0.4918 
     21 O          22.2483  -24.5246  -44.4522 O.2       2 UNK        -0.4875 
     22 CA         19.9531  -24.2294  -45.0774 C.3       2 UNK         0.0481 
     23 CB         20.0374  -23.4032  -46.3708 C.3       2 UNK        -0.1831 
     24 N          18.6939  -24.9903  -45.0748 N.am      2 UNK        -0.4498 
     25 C          18.2753  -25.8107  -44.0980 C.2       1 UNK         0.5027 
     26 O          18.9535  -26.0514  -43.0958 O.2       1 UNK        -0.4969 
     27 C          22.5673  -27.6141  -43.5452 C.2       3 UNK         0.5005 
     28 O          23.6813  -28.0512  -43.2537 O.2       3 UNK        -0.5279 
     29 N          21.5807  -27.4347  -42.6483 N.am      4 UNK        -0.4463 
     30 CA         21.5568  -27.9615  -41.2756 C.3       4 UNK         0.0283 
     31 CB         20.2473  -27.5523  -40.5840 C.3       4 UNK        -0.1875 
     32 C          22.7606  -27.6092  -40.3893 C.2       4 UNK         0.4949 
     33 O          23.0941  -28.3988  -39.5067 O.2       4 UNK        -0.5039 
     34 N          23.4162  -26.4736  -40.6617 N.am      5 UNK        -0.4663 
     35 CA         24.6587  -26.0516  -40.0081 C.3       5 UNK         0.0242 
     36 CB         24.9943  -24.6177  -40.4489 C.3       5 UNK        -0.1982 
     37 C          25.8538  -26.9897  -40.2731 C.2       5 UNK         0.5017 
     38 O          26.7620  -27.0426  -39.4428 O.2       5 UNK        -0.5012 
     39 N          25.8329  -27.7038  -41.4070 N.am      6 UNK        -0.4439 
     40 CA         26.8383  -28.6910  -41.8019 C.3       6 UNK         0.0297 
     41 CB         27.3696  -28.3388  -43.2013 C.3       6 UNK        -0.2006 
     42 C          26.2618  -30.1153  -41.7940 C.2       6 UNK         0.4892 
     43 O          26.9566  -31.0394  -41.3707 O.2       6 UNK        -0.5089 
     44 N          25.0178  -30.2756  -42.2690 N.am      7 UNK        -0.4243 
     45 CA         24.3376  -31.5661  -42.4071 C.3       7 UNK         0.0196 
     46 CB         23.1437  -31.4168  -43.3648 C.3       7 UNK        -0.2007 
     47 C          23.8769  -32.1799  -41.0761 C.2       7 UNK         0.5020 
     48 O          23.7452  -33.4022  -41.0108 O.2       7 UNK        -0.5147 
     49 N          23.6333  -31.3387  -40.0574 N.am      8 UNK        -0.4734 
     50 CA         23.1302  -31.6943  -38.7236 C.3       8 UNK         0.0238 
     51 CB         24.1928  -32.4876  -37.9325 C.3       8 UNK        -0.1912 
     52 C          21.7656  -32.4080  -38.7919 C.2       8 UNK         0.5038 
     53 O          21.6283  -33.5314  -38.3029 O.2       8 UNK        -0.5046 
     54 N          20.7923  -31.7410  -39.4289 N.am      9 UNK        -0.4200 
     55 CA         19.4232  -32.2374  -39.6587 C.3       9 UNK         0.0839 
     56 C          18.6098  -32.5715  -38.3724 C.2       9 UNK         0.5513 
     57 N          18.9343  -32.0060  -37.2156 N.am      9 UNK        -0.7519 
     58 O          17.6633  -33.3518  -38.4321 O.2       9 UNK        -0.4960 
     59 C59        18.6001  -31.2697  -40.5487 C.3       10 UNK        -0.0876 
     60 S60        19.3552  -30.8952  -42.1694 S.3       10 UNK        -0.2414 
     61 C61        18.3159  -31.8534  -43.3222 C.3       10 UNK         0.0169 
     62 H62        15.1244  -28.9545  -40.9719 H         1 UNK         0.0903 
     63 H63        16.5029  -29.6347  -41.8343 H         1 UNK         0.0903 
     64 H64        16.7616  -28.6551  -40.3836 H         1 UNK         0.0903 
     65 H65        17.1215  -28.4886  -43.6555 H         1 UNK         0.3096 
     66 H66        16.1532  -25.7291  -44.0474 H         1 UNK         0.1121 
     67 H67        16.5175  -26.0521  -46.3978 H         1 UNK         0.0849 
     68 H68        17.5083  -27.4574  -46.1536 H         1 UNK         0.0849 
     69 H69        14.9036  -30.1501  -46.8865 H         1 UNK         0.0865 
     70 H70        15.7869  -29.0923  -47.9517 H         1 UNK         0.0865 
     71 H71        16.1504  -30.7010  -44.5462 H         1 UNK         0.1346 
     72 H72        20.3211  -31.5231  -45.1319 H         1 UNK         0.1412 
     73 H73        18.1134  -29.4063  -48.1332 H         1 UNK         0.1426 
     74 H74        20.3703  -30.4765  -48.6174 H         1 UNK         0.0716 
     75 H75        21.3551  -31.0411  -47.2917 H         1 UNK         0.0716 
     76 H76        21.2242  -29.2448  -45.1004 H         1 UNK         0.0695 
     77 H77        22.8559  -29.3150  -45.7113 H         1 UNK         0.0695 
     78 H78        23.1546  -26.9197  -45.4842 H         1 UNK         0.0983 
     79 H79        20.3159  -26.7276  -45.6100 H         1 UNK         0.3095 
     80 H80        19.9077  -23.5359  -44.2354 H         1 UNK         0.0454 
     81 H81        20.9470  -22.8010  -46.3921 H         1 UNK         0.0851 
     82 H82        20.0487  -24.0397  -47.2565 H         1 UNK         0.0851 
     83 H83        19.1968  -22.7149  -46.4604 H         1 UNK         0.0851 
     84 H84        18.0886  -24.8412  -45.8692 H         1 UNK         0.2976 
     85 H85        20.7102  -27.0205  -42.9699 H         1 UNK         0.3116 
     86 H86        21.5572  -29.0482  -41.3667 H         1 UNK         0.0646 
     87 H87        20.1943  -27.9499  -39.5696 H         1 UNK         0.0847 
     88 H88        19.3791  -27.9312  -41.1231 H         1 UNK         0.0847 
     89 H89        20.1505  -26.4680  -40.5170 H         1 UNK         0.0847 
     90 H90        23.0740  -25.8973  -41.4177 H         1 UNK         0.3040 
     91 H91        24.4839  -26.0495  -38.9298 H         1 UNK         0.1015 
     92 H92        24.1953  -23.9239  -40.1865 H         1 UNK         0.0786 
     93 H93        25.1557  -24.5541  -41.5259 H         1 UNK         0.0786 
     94 H94        25.9030  -24.2617  -39.9613 H         1 UNK         0.0786 
     95 H95        25.0256  -27.6132  -42.0197 H         1 UNK         0.3172 
     96 H96        27.6821  -28.6751  -41.1091 H         1 UNK         0.0595 
     97 H97        28.1181  -29.0617  -43.5287 H         1 UNK         0.0839 
     98 H98        27.8432  -27.3570  -43.2077 H         1 UNK         0.0839 
     99 H99        26.5738  -28.3305  -43.9476 H         1 UNK         0.0839 
    100 H100       24.5225  -29.4618  -42.6304 H         1 UNK         0.2998 
    101 H101       25.0419  -32.2694  -42.8571 H         1 UNK         0.0822 
    102 H102       23.4746  -31.1160  -44.3578 H         1 UNK         0.0787 
    103 H103       22.6093  -32.3613  -43.4772 H         1 UNK         0.0787 
    104 H104       22.4250  -30.6797  -43.0069 H         1 UNK         0.0787 
    105 H105       23.7644  -30.3459  -40.2132 H         1 UNK         0.3055 
    106 H106       22.9611  -30.7576  -38.1897 H         1 UNK         0.1106 
    107 H107       24.4005  -33.4572  -38.3858 H         1 UNK         0.0828 
    108 H108       25.1324  -31.9384  -37.8721 H         1 UNK         0.0828 
    109 H109       23.8593  -32.6728  -36.9107 H         1 UNK         0.0828 
    110 H110       21.0041  -30.8371  -39.8219 H         1 UNK         0.2931 
    111 H111       19.5273  -33.1764  -40.2056 H         1 UNK         0.0412 
    112 H112       19.7088  -31.3650  -37.1567 H         1 UNK         0.3472 
    113 H113       18.4013  -32.2304  -36.3900 H         1 UNK         0.3472 
    114 H114       17.5934  -31.6616  -40.7040 H         1 UNK         0.0970 
    115 H115       18.4674  -30.3214  -40.0258 H         1 UNK         0.0970 
    116 H116       17.3104  -31.9692  -42.9162 H         1 UNK         0.0612 
    117 H117       18.7267  -32.8588  -43.4223 H         1 UNK         0.0612 
@<TRIPOS>BOND
     1    1    2 1    
     2    1   62 1    
     3    1   63 1    
     4    1   64 1    
     5    2    3 2    
     6    2    4 am   BACKBONE|DICT|INTERRES
     7    4    5 1    
     8    4   65 1    
     9    5    6 1    
    10    5   25 1    
    11    5   66 1    
    12    6    7 1    
    13    6   67 1    
    14    6   68 1    
    15    7    8 1    
    16    8    9 1    
    17    8   69 1    
    18    8   70 1    
    19    9   10 ar   
    20    9   14 ar   
    21   10   11 ar   
    22   10   71 1    
    23   11   12 ar   
    24   11   61 1    
    25   12   13 ar   
    26   12   72 1    
    27   13   14 ar   
    28   13   15 1    
    29   14   73 1    
    30   15   16 1    
    31   15   74 1    
    32   15   75 1    
    33   16   17 1    
    34   17   18 1    
    35   17   76 1    
    36   17   77 1    
    37   18   19 1    
    38   18   27 1    
    39   18   78 1    
    40   19   20 am   BACKBONE|DICT|INTERRES
    41   19   79 1    
    42   20   21 2    
    43   20   22 1    
    44   22   23 1    
    45   22   24 1    
    46   22   80 1    
    47   23   81 1    
    48   23   82 1    
    49   23   83 1    
    50   24   25 am   BACKBONE|DICT|INTERRES
    51   24   84 1    
    52   25   26 2    
    53   27   28 2    
    54   27   29 am   BACKBONE|DICT|INTERRES
    55   29   30 1    
    56   29   85 1    
    57   30   31 1    
    58   30   32 1    
    59   30   86 1    
    60   31   87 1    
    61   31   88 1    
    62   31   89 1    
    63   32   33 2    
    64   32   34 am   BACKBONE|DICT|INTERRES
    65   34   35 1    
    66   34   90 1    
    67   35   36 1    
    68   35   37 1    
    69   35   91 1    
    70   36   92 1    
    71   36   93 1    
    72   36   94 1    
    73   37   38 2    
    74   37   39 am   BACKBONE|DICT|INTERRES
    75   39   40 1    
    76   39   95 1    
    77   40   41 1    
    78   40   42 1    
    79   40   96 1    
    80   41   97 1    
    81   41   98 1    
    82   41   99 1    
    83   42   43 2    
    84   42   44 am   BACKBONE|DICT|INTERRES
    85   44   45 1    
    86   44  100 1    
    87   45   46 1    
    88   45   47 1    
    89   45  101 1    
    90   46  102 1    
    91   46  103 1    
    92   46  104 1    
    93   47   48 2    
    94   47   49 am   BACKBONE|DICT|INTERRES
    95   49   50 1    
    96   49  105 1    
    97   50   51 1    
    98   50   52 1    
    99   50  106 1    
   100   51  107 1    
   101   51  108 1    
   102   51  109 1    
   103   52   53 2    
   104   52   54 am   BACKBONE|DICT|INTERRES
   105   54   55 1    
   106   54  110 1    
   107   55   56 1    
   108   55   59 1    
   109   55  111 1    
   110   56   57 am   BACKBONE|DICT|INTERRES
   111   56   58 2    
   112   57  112 1    
   113   57  113 1    
   114   59   60 1    
   115   59  114 1    
   116   59  115 1    
   117   60   61 1    
   118   61  116 1    
   119   61  117 1    
@<TRIPOS>SUBSTRUCTURE
     1 UNK         1 GROUP             0       ****    0 ROOT    
