@<TRIPOS>MOLECULE
3R8
117   119    1
SMALL
USER_CHARGES


@<TRIPOS>ATOM
      1 CA         15.8362  -26.7288  -40.0592 C.3       0 UNK        -0.2013 
      2 C          16.1247  -26.1903  -41.4528 C.2       0 UNK         0.4866 
      3 O          15.9230  -25.0019  -41.7066 O.2       0 UNK        -0.5176 
      4 N          16.5888  -27.0589  -42.3584 N.am      1 UNK        -0.4884 
      5 CA         17.0053  -26.7156  -43.7239 C.3       1 UNK         0.0853 
      6 C6         17.1420  -27.9806  -44.6073 C.3       10 UNK        -0.0849 
      7 S7         15.6124  -28.9737  -44.6843 S.3       10 UNK        -0.2776 
      8 C8         15.9056  -29.9783  -46.1782 C.3       10 UNK         0.0316 
      9 C9         17.2454  -30.7005  -46.1275 C.ar      10 UNK        -0.0863 
     10 C10        17.4574  -31.7292  -45.2043 C.ar      10 UNK        -0.1009 
     11 C11        18.6999  -32.3644  -45.1252 C.ar      10 UNK        -0.0712 
     12 C12        19.7296  -31.9733  -45.9859 C.ar      10 UNK        -0.0894 
     13 C13        19.5295  -30.9462  -46.9129 C.ar      10 UNK        -0.0745 
     14 C14        18.2820  -30.3201  -46.9859 C.ar      10 UNK        -0.0972 
     15 C15        20.6700  -30.4975  -47.8172 C.3       10 UNK         0.0209 
     16 S16        21.2523  -28.8168  -47.4157 S.3       10 UNK        -0.2568 
     17 C17        21.7463  -29.0088  -45.6694 C.3       10 UNK        -0.0983 
     18 CA         22.1323  -27.6705  -44.9924 C.3       3 UNK         0.0876 
     19 N          21.0812  -26.6613  -45.1453 N.am      3 UNK        -0.4424 
     20 C          21.1965  -25.3573  -44.8627 C.2       2 UNK         0.4918 
     21 O          22.2383  -24.8307  -44.4717 O.2       2 UNK        -0.4875 
     22 CA         19.9173  -24.5045  -45.0030 C.3       2 UNK         0.0481 
     23 CB         19.8923  -23.8056  -46.3713 C.3       2 UNK        -0.1831 
     24 N          18.6607  -25.2487  -44.8129 N.am      2 UNK        -0.4498 
     25 C          18.3429  -25.9455  -43.7107 C.2       1 UNK         0.5027 
     26 O          19.1007  -26.0512  -42.7446 O.2       1 UNK        -0.4969 
     27 C          22.5021  -27.9417  -43.5183 C.2       3 UNK         0.5005 
     28 O          23.5993  -28.4441  -43.2663 O.2       3 UNK        -0.5279 
     29 N          21.6013  -27.6341  -42.5673 N.am      4 UNK        -0.4463 
     30 CA         21.7192  -27.9729  -41.1425 C.3       4 UNK         0.0283 
     31 CB         20.4394  -27.5692  -40.3982 C.3       4 UNK        -0.1875 
     32 C          22.9506  -27.3906  -40.4305 C.2       4 UNK         0.4949 
     33 O          23.3597  -27.9407  -39.4097 O.2       4 UNK        -0.5039 
     34 N          23.5523  -26.3374  -40.9993 N.am      5 UNK        -0.4663 
     35 CA         24.8331  -25.7709  -40.5685 C.3       5 UNK         0.0242 
     36 CB         25.1116  -24.4954  -41.3799 C.3       5 UNK        -0.1982 
     37 C          26.0186  -26.7516  -40.6822 C.2       5 UNK         0.5017 
     38 O          26.9998  -26.5791  -39.9579 O.2       5 UNK        -0.5012 
     39 N          25.9088  -27.7508  -41.5702 N.am      6 UNK        -0.4439 
     40 CA         26.8940  -28.8160  -41.7613 C.3       6 UNK         0.0297 
     41 CB         27.4672  -28.7272  -43.1856 C.3       6 UNK        -0.2006 
     42 C          26.2864  -30.2055  -41.5141 C.2       6 UNK         0.4892 
     43 O          26.9380  -31.0408  -40.8866 O.2       6 UNK        -0.5089 
     44 N          25.0697  -30.4430  -42.0235 N.am      7 UNK        -0.4243 
     45 CA         24.4146  -31.7535  -42.0254 C.3       7 UNK         0.0196 
     46 CB         23.4542  -31.8172  -43.2247 C.3       7 UNK        -0.2007 
     47 C          23.6684  -32.0891  -40.7222 C.2       7 UNK         0.5020 
     48 O          23.3613  -33.2609  -40.5051 O.2       7 UNK        -0.5147 
     49 N          23.3688  -31.0744  -39.8950 N.am      8 UNK        -0.4734 
     50 CA         22.6187  -31.1503  -38.6284 C.3       8 UNK         0.0238 
     51 CB         23.4063  -31.9579  -37.5742 C.3       8 UNK        -0.1912 
     52 C          21.1563  -31.6314  -38.7729 C.2       8 UNK         0.5038 
     53 O          20.5815  -32.1250  -37.8008 O.2       8 UNK        -0.5046 
     54 N          20.5816  -31.4797  -39.9732 N.am      9 UNK        -0.4200 
     55 CA         19.2002  -31.8464  -40.3204 C.3       9 UNK         0.0839 
     56 C          18.1355  -31.0200  -39.5493 C.2       9 UNK         0.5513 
     57 N          17.0026  -31.6254  -39.2208 N.am      9 UNK        -0.7519 
     58 O          18.3044  -29.8315  -39.2902 O.2       9 UNK        -0.4960 
     59 C59        18.9664  -31.7502  -41.8501 C.3       10 UNK        -0.0876 
     60 S60        20.0357  -32.9116  -42.7650 S.3       10 UNK        -0.2414 
     61 C61        18.9397  -33.4680  -44.1065 C.3       10 UNK         0.0169 
     62 H62        14.7743  -26.6374  -39.8325 H         1 UNK         0.0903 
     63 H63        16.1173  -27.7777  -39.9612 H         1 UNK         0.0903 
     64 H64        16.3949  -26.1610  -39.3156 H         1 UNK         0.0903 
     65 H65        16.7327  -28.0221  -42.0928 H         1 UNK         0.3096 
     66 H66        16.2443  -26.0623  -44.1569 H         1 UNK         0.1121 
     67 H67        17.4159  -27.7039  -45.6273 H         1 UNK         0.0849 
     68 H68        17.9441  -28.6241  -44.2381 H         1 UNK         0.0849 
     69 H69        15.1031  -30.7104  -46.2793 H         1 UNK         0.0865 
     70 H70        15.8438  -29.3351  -47.0575 H         1 UNK         0.0865 
     71 H71        16.6587  -32.0188  -44.5350 H         1 UNK         0.1346 
     72 H72        20.6941  -32.4578  -45.9157 H         1 UNK         0.1412 
     73 H73        18.1310  -29.5187  -47.6965 H         1 UNK         0.1426 
     74 H74        21.5121  -31.1885  -47.7533 H         1 UNK         0.0716 
     75 H75        20.3347  -30.5177  -48.8550 H         1 UNK         0.0716 
     76 H76        20.9237  -29.4748  -45.1236 H         1 UNK         0.0695 
     77 H77        22.5796  -29.7135  -45.6308 H         1 UNK         0.0695 
     78 H78        23.0310  -27.2864  -45.4798 H         1 UNK         0.0983 
     79 H79        20.1990  -26.9974  -45.4999 H         1 UNK         0.3095 
     80 H80        19.9575  -23.7351  -44.2293 H         1 UNK         0.0454 
     81 H81        19.8200  -24.5222  -47.1905 H         1 UNK         0.0851 
     82 H82        19.0522  -23.1156  -46.4513 H         1 UNK         0.0851 
     83 H83        20.8013  -23.2230  -46.5287 H         1 UNK         0.0851 
     84 H84        17.9980  -25.2101  -45.5747 H         1 UNK         0.2976 
     85 H85        20.7446  -27.1583  -42.8362 H         1 UNK         0.3116 
     86 H86        21.8048  -29.0583  -41.0910 H         1 UNK         0.0646 
     87 H87        20.3054  -26.4870  -40.3831 H         1 UNK         0.0847 
     88 H88        19.5547  -28.0098  -40.8576 H         1 UNK         0.0847 
     89 H89        20.4650  -27.9087  -39.3617 H         1 UNK         0.0847 
     90 H90        23.1415  -25.9528  -41.8388 H         1 UNK         0.3040 
     91 H91        24.7396  -25.4987  -39.5148 H         1 UNK         0.1015 
     92 H92        25.1874  -24.7052  -42.4478 H         1 UNK         0.0786 
     93 H93        26.0497  -24.0319  -41.0706 H         1 UNK         0.0786 
     94 H94        24.3243  -23.7546  -41.2384 H         1 UNK         0.0786 
     95 H95        25.0577  -27.8134  -42.1216 H         1 UNK         0.3172 
     96 H96        27.7222  -28.7002  -41.0591 H         1 UNK         0.0595 
     97 H97        28.1976  -29.5178  -43.3635 H         1 UNK         0.0839 
     98 H98        27.9742  -27.7759  -43.3478 H         1 UNK         0.0839 
     99 H99        26.6883  -28.8241  -43.9433 H         1 UNK         0.0839 
    100 H100       24.5898  -29.7043  -42.5359 H         1 UNK         0.2998 
    101 H101       25.1767  -32.5231  -42.1676 H         1 UNK         0.0822 
    102 H102       23.0175  -32.8121  -43.3198 H         1 UNK         0.0787 
    103 H103       22.6322  -31.1075  -43.1248 H         1 UNK         0.0787 
    104 H104       23.9701  -31.6024  -44.1606 H         1 UNK         0.0787 
    105 H105       23.6959  -30.1499  -40.1447 H         1 UNK         0.3055 
    106 H106       22.5454  -30.1279  -38.2561 H         1 UNK         0.1106 
    107 H107       24.4268  -31.5887  -37.4732 H         1 UNK         0.0828 
    108 H108       22.9390  -31.8822  -36.5916 H         1 UNK         0.0828 
    109 H109       23.4555  -33.0172  -37.8278 H         1 UNK         0.0828 
    110 H110       21.1367  -31.0969  -40.7210 H         1 UNK         0.2931 
    111 H111       19.0743  -32.8912  -40.0279 H         1 UNK         0.0412 
    112 H112       16.2927  -31.1023  -38.7322 H         1 UNK         0.3472 
    113 H113       16.8487  -32.5986  -39.4350 H         1 UNK         0.3472 
    114 H114       17.9244  -31.9717  -42.0887 H         1 UNK         0.0970 
    115 H115       19.1525  -30.7374  -42.2132 H         1 UNK         0.0970 
    116 H116       19.4019  -34.3209  -44.6054 H         1 UNK         0.0612 
    117 H117       18.0000  -33.8308  -43.6872 H         1 UNK         0.0612 
@<TRIPOS>BOND
     1    1    2 1    
     2    1   62 1    
     3    1   63 1    
     4    1   64 1    
     5    2    3 2    
     6    2    4 am   BACKBONE|DICT|INTERRES
     7    4    5 1    
     8    4   65 1    
     9    5    6 1    
    10    5   25 1    
    11    5   66 1    
    12    6    7 1    
    13    6   67 1    
    14    6   68 1    
    15    7    8 1    
    16    8    9 1    
    17    8   69 1    
    18    8   70 1    
    19    9   10 ar   
    20    9   14 ar   
    21   10   11 ar   
    22   10   71 1    
    23   11   12 ar   
    24   11   61 1    
    25   12   13 ar   
    26   12   72 1    
    27   13   14 ar   
    28   13   15 1    
    29   14   73 1    
    30   15   16 1    
    31   15   74 1    
    32   15   75 1    
    33   16   17 1    
    34   17   18 1    
    35   17   76 1    
    36   17   77 1    
    37   18   19 1    
    38   18   27 1    
    39   18   78 1    
    40   19   20 am   BACKBONE|DICT|INTERRES
    41   19   79 1    
    42   20   21 2    
    43   20   22 1    
    44   22   23 1    
    45   22   24 1    
    46   22   80 1    
    47   23   81 1    
    48   23   82 1    
    49   23   83 1    
    50   24   25 am   BACKBONE|DICT|INTERRES
    51   24   84 1    
    52   25   26 2    
    53   27   28 2    
    54   27   29 am   BACKBONE|DICT|INTERRES
    55   29   30 1    
    56   29   85 1    
    57   30   31 1    
    58   30   32 1    
    59   30   86 1    
    60   31   87 1    
    61   31   88 1    
    62   31   89 1    
    63   32   33 2    
    64   32   34 am   BACKBONE|DICT|INTERRES
    65   34   35 1    
    66   34   90 1    
    67   35   36 1    
    68   35   37 1    
    69   35   91 1    
    70   36   92 1    
    71   36   93 1    
    72   36   94 1    
    73   37   38 2    
    74   37   39 am   BACKBONE|DICT|INTERRES
    75   39   40 1    
    76   39   95 1    
    77   40   41 1    
    78   40   42 1    
    79   40   96 1    
    80   41   97 1    
    81   41   98 1    
    82   41   99 1    
    83   42   43 2    
    84   42   44 am   BACKBONE|DICT|INTERRES
    85   44   45 1    
    86   44  100 1    
    87   45   46 1    
    88   45   47 1    
    89   45  101 1    
    90   46  102 1    
    91   46  103 1    
    92   46  104 1    
    93   47   48 2    
    94   47   49 am   BACKBONE|DICT|INTERRES
    95   49   50 1    
    96   49  105 1    
    97   50   51 1    
    98   50   52 1    
    99   50  106 1    
   100   51  107 1    
   101   51  108 1    
   102   51  109 1    
   103   52   53 2    
   104   52   54 am   BACKBONE|DICT|INTERRES
   105   54   55 1    
   106   54  110 1    
   107   55   56 1    
   108   55   59 1    
   109   55  111 1    
   110   56   57 am   BACKBONE|DICT|INTERRES
   111   56   58 2    
   112   57  112 1    
   113   57  113 1    
   114   59   60 1    
   115   59  114 1    
   116   59  115 1    
   117   60   61 1    
   118   61  116 1    
   119   61  117 1    
@<TRIPOS>SUBSTRUCTURE
     1 UNK         1 GROUP             0       ****    0 ROOT    
