@<TRIPOS>MOLECULE
3R8
117   119    1
SMALL
USER_CHARGES


@<TRIPOS>ATOM
      1 CA         14.4128  -22.9514  -43.0391 C.3       0 UNK        -0.2013 
      2 C          15.3411  -23.6683  -44.0080 C.2       0 UNK         0.4866 
      3 O          16.3939  -23.1330  -44.3552 O.2       0 UNK        -0.5176 
      4 N          14.9567  -24.8732  -44.4507 N.am      1 UNK        -0.4884 
      5 CA         15.7380  -25.7174  -45.3650 C.3       1 UNK         0.0853 
      6 C6         14.8653  -26.8606  -45.9447 C.3       10 UNK        -0.0849 
      7 S7         15.5524  -27.5873  -47.4717 S.3       10 UNK        -0.2776 
      8 C8         15.7177  -29.3520  -47.0299 C.3       10 UNK         0.0316 
      9 C9         16.9976  -29.6858  -46.2664 C.ar      10 UNK        -0.0863 
     10 C10        16.9364  -30.3664  -45.0442 C.ar      10 UNK        -0.1009 
     11 C11        18.1085  -30.7787  -44.3989 C.ar      10 UNK        -0.0712 
     12 C12        19.3476  -30.5004  -44.9838 C.ar      10 UNK        -0.0894 
     13 C13        19.4268  -29.7865  -46.1810 C.ar      10 UNK        -0.0745 
     14 C14        18.2482  -29.3912  -46.8219 C.ar      10 UNK        -0.0972 
     15 C15        20.7816  -29.4745  -46.8017 C.3       10 UNK         0.0209 
     16 S16        21.4570  -27.8835  -46.2216 S.3       10 UNK        -0.2568 
     17 C17        22.1979  -28.3259  -44.6120 C.3       10 UNK        -0.0983 
     18 CA         21.6014  -27.5260  -43.4252 C.3       3 UNK         0.0876 
     19 N          20.1585  -27.7428  -43.2873 N.am      3 UNK        -0.4424 
     20 C          19.2906  -26.9174  -42.6912 C.2       2 UNK         0.4918 
     21 O          19.6032  -25.8392  -42.1805 O.2       2 UNK        -0.4875 
     22 CA         17.8370  -27.4097  -42.6110 C.3       2 UNK         0.0481 
     23 CB         17.3569  -27.4503  -41.1507 C.3       2 UNK        -0.1831 
     24 N          16.8835  -26.6421  -43.4123 N.am      2 UNK        -0.4498 
     25 C          17.0095  -26.2816  -44.6997 C.2       1 UNK         0.5027 
     26 O          18.0389  -26.3892  -45.3651 O.2       1 UNK        -0.4969 
     27 C          22.3273  -27.8246  -42.0924 C.2       3 UNK         0.5005 
     28 O          23.2232  -28.6722  -42.0402 O.2       3 UNK        -0.5279 
     29 N          21.9221  -27.1217  -41.0258 N.am      4 UNK        -0.4463 
     30 CA         22.4251  -27.2690  -39.6573 C.3       4 UNK         0.0283 
     31 CB         21.5356  -26.4585  -38.7020 C.3       4 UNK        -0.1875 
     32 C          23.9015  -26.8712  -39.4910 C.2       4 UNK         0.4949 
     33 O          24.5643  -27.3964  -38.5980 O.2       4 UNK        -0.5039 
     34 N          24.4007  -25.9867  -40.3671 N.am      5 UNK        -0.4663 
     35 CA         25.8127  -25.5971  -40.4427 C.3       5 UNK         0.0242 
     36 CB         25.9557  -24.3696  -41.3567 C.3       5 UNK        -0.1982 
     37 C          26.7223  -26.7416  -40.9258 C.2       5 UNK         0.5017 
     38 O          27.8601  -26.8428  -40.4667 O.2       5 UNK        -0.5012 
     39 N          26.1971  -27.5889  -41.8227 N.am      6 UNK        -0.4439 
     40 CA         26.8445  -28.8208  -42.2813 C.3       6 UNK         0.0297 
     41 CB         26.3567  -29.1445  -43.7038 C.3       6 UNK        -0.2006 
     42 C          26.5629  -30.0081  -41.3425 C.2       6 UNK         0.4892 
     43 O          27.3103  -30.9858  -41.3757 O.2       6 UNK        -0.5089 
     44 N          25.4816  -29.9061  -40.5530 N.am      7 UNK        -0.4243 
     45 CA         24.9026  -30.9237  -39.6686 C.3       7 UNK         0.0196 
     46 CB         25.8771  -31.3043  -38.5343 C.3       7 UNK        -0.2007 
     47 C          24.3691  -32.1421  -40.4462 C.2       7 UNK         0.5020 
     48 O          24.3689  -33.2578  -39.9236 O.2       7 UNK        -0.5147 
     49 N          23.9108  -31.9074  -41.6849 N.am      8 UNK        -0.4734 
     50 CA         23.4453  -32.9462  -42.6104 C.3       8 UNK         0.0238 
     51 CB         23.3499  -32.3542  -44.0251 C.3       8 UNK        -0.1912 
     52 C          22.1061  -33.5836  -42.2028 C.2       8 UNK         0.5038 
     53 O          21.8206  -34.7039  -42.6273 O.2       8 UNK        -0.5046 
     54 N          21.3161  -32.8630  -41.3979 N.am      9 UNK        -0.4200 
     55 CA         20.0111  -33.3009  -40.8809 C.3       9 UNK         0.0839 
     56 C          20.0944  -34.3186  -39.7058 C.2       9 UNK         0.5513 
     57 N          21.2675  -34.6136  -39.1566 N.am      9 UNK        -0.7519 
     58 O          19.0717  -34.8550  -39.2878 O.2       9 UNK        -0.4960 
     59 C59        19.0891  -32.1019  -40.5209 C.3       10 UNK        -0.0876 
     60 S60        19.0528  -30.7872  -41.7865 S.3       10 UNK        -0.2414 
     61 C61        18.0439  -31.5604  -43.0924 C.3       10 UNK         0.0169 
     62 H62        14.9274  -22.7624  -42.0974 H         1 UNK         0.0903 
     63 H63        14.1028  -21.9935  -43.4560 H         1 UNK         0.0903 
     64 H64        13.5165  -23.5333  -42.8247 H         1 UNK         0.0903 
     65 H65        14.0713  -25.2523  -44.1440 H         1 UNK         0.3096 
     66 H66        16.0627  -25.0807  -46.1919 H         1 UNK         0.1121 
     67 H67        13.8793  -26.4737  -46.2074 H         1 UNK         0.0849 
     68 H68        14.6866  -27.6374  -45.1984 H         1 UNK         0.0849 
     69 H69        14.8332  -29.6734  -46.4778 H         1 UNK         0.0865 
     70 H70        15.7168  -29.9335  -47.9529 H         1 UNK         0.0865 
     71 H71        15.9751  -30.6048  -44.6098 H         1 UNK         0.1346 
     72 H72        20.2516  -30.8410  -44.4991 H         1 UNK         0.1412 
     73 H73        18.3025  -28.8610  -47.7630 H         1 UNK         0.1426 
     74 H74        20.6835  -29.4311  -47.8874 H         1 UNK         0.0716 
     75 H75        21.4920  -30.2775  -46.5987 H         1 UNK         0.0716 
     76 H76        23.2697  -28.1365  -44.6931 H         1 UNK         0.0695 
     77 H77        22.0955  -29.3955  -44.4394 H         1 UNK         0.0695 
     78 H78        21.7647  -26.4666  -43.6353 H         1 UNK         0.0983 
     79 H79        19.8018  -28.5952  -43.6959 H         1 UNK         0.3095 
     80 H80        17.7993  -28.4271  -42.9962 H         1 UNK         0.0454 
     81 H81        16.3820  -27.9300  -41.0646 H         1 UNK         0.0851 
     82 H82        17.2810  -26.4498  -40.7229 H         1 UNK         0.0851 
     83 H83        18.0493  -28.0186  -40.5279 H         1 UNK         0.0851 
     84 H84        15.9977  -26.4462  -42.9706 H         1 UNK         0.2976 
     85 H85        21.1628  -26.4615  -41.1697 H         1 UNK         0.3116 
     86 H86        22.3408  -28.3241  -39.3882 H         1 UNK         0.0646 
     87 H87        20.4985  -26.7918  -38.7459 H         1 UNK         0.0847 
     88 H88        21.5565  -25.3933  -38.9359 H         1 UNK         0.0847 
     89 H89        21.8670  -26.5720  -37.6688 H         1 UNK         0.0847 
     90 H90        23.7744  -25.5845  -41.0494 H         1 UNK         0.3040 
     91 H91        26.1420  -25.3186  -39.4388 H         1 UNK         0.1015 
     92 H92        26.9959  -24.0452  -41.4129 H         1 UNK         0.0786 
     93 H93        25.3757  -23.5260  -40.9819 H         1 UNK         0.0786 
     94 H94        25.6250  -24.5800  -42.3746 H         1 UNK         0.0786 
     95 H95        25.2453  -27.4384  -42.1280 H         1 UNK         0.3172 
     96 H96        27.9256  -28.6708  -42.3177 H         1 UNK         0.0595 
     97 H97        25.2835  -29.3350  -43.7325 H         1 UNK         0.0839 
     98 H98        26.8534  -30.0350  -44.0918 H         1 UNK         0.0839 
     99 H99        26.5722  -28.3285  -44.3937 H         1 UNK         0.0839 
    100 H100       24.9176  -29.0739  -40.6653 H         1 UNK         0.2998 
    101 H101       24.0306  -30.4577  -39.2073 H         1 UNK         0.0822 
    102 H102       26.2347  -30.4193  -38.0078 H         1 UNK         0.0787 
    103 H103       25.3884  -31.9433  -37.7979 H         1 UNK         0.0787 
    104 H104       26.7452  -31.8476  -38.9086 H         1 UNK         0.0787 
    105 H105       23.9075  -30.9517  -42.0202 H         1 UNK         0.3055 
    106 H106       24.1914  -33.7441  -42.6222 H         1 UNK         0.1106 
    107 H107       22.5890  -31.5779  -44.0817 H         1 UNK         0.0828 
    108 H108       23.0826  -33.1228  -44.7517 H         1 UNK         0.0828 
    109 H109       24.2991  -31.9235  -44.3445 H         1 UNK         0.0828 
    110 H110       21.6310  -31.9507  -41.1051 H         1 UNK         0.2931 
    111 H111       19.5193  -33.8445  -41.6890 H         1 UNK         0.0412 
    112 H112       21.3042  -35.2772  -38.3987 H         1 UNK         0.3472 
    113 H113       22.1185  -34.1887  -39.4960 H         1 UNK         0.3472 
    114 H114       18.0678  -32.4446  -40.3435 H         1 UNK         0.0970 
    115 H115       19.4177  -31.6427  -39.5867 H         1 UNK         0.0970 
    116 H116       18.4002  -32.5727  -43.2832 H         1 UNK         0.0612 
    117 H117       17.0158  -31.6485  -42.7381 H         1 UNK         0.0612 
@<TRIPOS>BOND
     1    1    2 1    
     2    1   62 1    
     3    1   63 1    
     4    1   64 1    
     5    2    3 2    
     6    2    4 am   BACKBONE|DICT|INTERRES
     7    4    5 1    
     8    4   65 1    
     9    5    6 1    
    10    5   25 1    
    11    5   66 1    
    12    6    7 1    
    13    6   67 1    
    14    6   68 1    
    15    7    8 1    
    16    8    9 1    
    17    8   69 1    
    18    8   70 1    
    19    9   10 ar   
    20    9   14 ar   
    21   10   11 ar   
    22   10   71 1    
    23   11   12 ar   
    24   11   61 1    
    25   12   13 ar   
    26   12   72 1    
    27   13   14 ar   
    28   13   15 1    
    29   14   73 1    
    30   15   16 1    
    31   15   74 1    
    32   15   75 1    
    33   16   17 1    
    34   17   18 1    
    35   17   76 1    
    36   17   77 1    
    37   18   19 1    
    38   18   27 1    
    39   18   78 1    
    40   19   20 am   BACKBONE|DICT|INTERRES
    41   19   79 1    
    42   20   21 2    
    43   20   22 1    
    44   22   23 1    
    45   22   24 1    
    46   22   80 1    
    47   23   81 1    
    48   23   82 1    
    49   23   83 1    
    50   24   25 am   BACKBONE|DICT|INTERRES
    51   24   84 1    
    52   25   26 2    
    53   27   28 2    
    54   27   29 am   BACKBONE|DICT|INTERRES
    55   29   30 1    
    56   29   85 1    
    57   30   31 1    
    58   30   32 1    
    59   30   86 1    
    60   31   87 1    
    61   31   88 1    
    62   31   89 1    
    63   32   33 2    
    64   32   34 am   BACKBONE|DICT|INTERRES
    65   34   35 1    
    66   34   90 1    
    67   35   36 1    
    68   35   37 1    
    69   35   91 1    
    70   36   92 1    
    71   36   93 1    
    72   36   94 1    
    73   37   38 2    
    74   37   39 am   BACKBONE|DICT|INTERRES
    75   39   40 1    
    76   39   95 1    
    77   40   41 1    
    78   40   42 1    
    79   40   96 1    
    80   41   97 1    
    81   41   98 1    
    82   41   99 1    
    83   42   43 2    
    84   42   44 am   BACKBONE|DICT|INTERRES
    85   44   45 1    
    86   44  100 1    
    87   45   46 1    
    88   45   47 1    
    89   45  101 1    
    90   46  102 1    
    91   46  103 1    
    92   46  104 1    
    93   47   48 2    
    94   47   49 am   BACKBONE|DICT|INTERRES
    95   49   50 1    
    96   49  105 1    
    97   50   51 1    
    98   50   52 1    
    99   50  106 1    
   100   51  107 1    
   101   51  108 1    
   102   51  109 1    
   103   52   53 2    
   104   52   54 am   BACKBONE|DICT|INTERRES
   105   54   55 1    
   106   54  110 1    
   107   55   56 1    
   108   55   59 1    
   109   55  111 1    
   110   56   57 am   BACKBONE|DICT|INTERRES
   111   56   58 2    
   112   57  112 1    
   113   57  113 1    
   114   59   60 1    
   115   59  114 1    
   116   59  115 1    
   117   60   61 1    
   118   61  116 1    
   119   61  117 1    
@<TRIPOS>SUBSTRUCTURE
     1 UNK         1 GROUP             0       ****    0 ROOT    
