@<TRIPOS>MOLECULE
3R8
117   119    1
SMALL
USER_CHARGES


@<TRIPOS>ATOM
      1 CA         16.5376  -22.3028  -48.6138 C.3       0 UNK        -0.2013 
      2 C          17.4261  -23.4980  -48.3027 C.2       0 UNK         0.4866 
      3 O          18.3700  -23.7695  -49.0459 O.2       0 UNK        -0.5176 
      4 N          17.1271  -24.2202  -47.2162 N.am      1 UNK        -0.4884 
      5 CA         17.9004  -25.3709  -46.7408 C.3       1 UNK         0.0853 
      6 C6         17.1559  -26.1422  -45.6225 C.3       10 UNK        -0.0849 
      7 S7         15.6665  -27.0202  -46.1966 S.3       10 UNK        -0.2776 
      8 C8         16.1893  -28.7699  -46.0375 C.3       10 UNK         0.0316 
      9 C9         16.5921  -29.2399  -44.6329 C.ar      10 UNK        -0.0863 
     10 C10        17.3023  -30.4395  -44.5129 C.ar      10 UNK        -0.1009 
     11 C11        17.6964  -30.9226  -43.2611 C.ar      10 UNK        -0.0712 
     12 C12        17.3737  -30.1960  -42.1124 C.ar      10 UNK        -0.0894 
     13 C13        16.6969  -28.9756  -42.2135 C.ar      10 UNK        -0.0745 
     14 C14        16.2864  -28.5193  -43.4696 C.ar      10 UNK        -0.0972 
     15 C15        16.4246  -28.1331  -40.9735 C.3       10 UNK         0.0209 
     16 S16        17.9496  -27.7047  -40.0664 S.3       10 UNK        -0.2568 
     17 C17        18.9043  -26.7025  -41.2678 C.3       10 UNK        -0.0983 
     18 CA         19.8653  -27.4982  -42.1975 C.3       3 UNK         0.0876 
     19 N          20.4194  -26.6268  -43.2371 N.am      3 UNK        -0.4424 
     20 C          20.9117  -27.0646  -44.4015 C.2       2 UNK         0.4918 
     21 O          20.9133  -28.2456  -44.7491 O.2       2 UNK        -0.4875 
     22 CA         21.3648  -25.9914  -45.4007 C.3       2 UNK         0.0481 
     23 CB         22.6339  -26.4108  -46.1632 C.3       2 UNK        -0.1831 
     24 N          20.2524  -25.8460  -46.3333 N.am      2 UNK        -0.4498 
     25 C          19.2721  -24.9482  -46.1818 C.2       1 UNK         0.5027 
     26 O          19.3781  -23.9112  -45.5214 O.2       1 UNK        -0.4969 
     27 C          20.9879  -28.2534  -41.4494 C.2       3 UNK         0.5005 
     28 O          22.1672  -27.9004  -41.5563 O.2       3 UNK        -0.5279 
     29 N          20.5892  -29.2816  -40.6902 N.am      4 UNK        -0.4463 
     30 CA         21.4228  -30.2316  -39.9497 C.3       4 UNK         0.0283 
     31 CB         20.5104  -31.2078  -39.1934 C.3       4 UNK        -0.1875 
     32 C          22.4491  -29.6100  -38.9893 C.2       4 UNK         0.4949 
     33 O          23.4725  -30.2402  -38.7310 O.2       4 UNK        -0.5039 
     34 N          22.1969  -28.3798  -38.5232 N.am      5 UNK        -0.4663 
     35 CA         23.1432  -27.5694  -37.7506 C.3       5 UNK         0.0242 
     36 CB         22.4410  -26.2812  -37.2920 C.3       5 UNK        -0.1982 
     37 C          24.4413  -27.2331  -38.5137 C.2       5 UNK         0.5017 
     38 O          25.4687  -27.0160  -37.8701 O.2       5 UNK        -0.5012 
     39 N          24.3744  -27.2050  -39.8524 N.am      6 UNK        -0.4439 
     40 CA         25.5109  -27.0005  -40.7492 C.3       6 UNK         0.0297 
     41 CB         25.2199  -25.8026  -41.6695 C.3       6 UNK        -0.2006 
     42 C          25.7991  -28.2572  -41.5850 C.2       6 UNK         0.4892 
     43 O          26.9645  -28.6274  -41.7287 O.2       6 UNK        -0.5089 
     44 N          24.7482  -28.8756  -42.1422 N.am      7 UNK        -0.4243 
     45 CA         24.8561  -29.9672  -43.1146 C.3       7 UNK         0.0196 
     46 CB         23.6115  -29.9482  -44.0146 C.3       7 UNK        -0.2007 
     47 C          25.0394  -31.3640  -42.4995 C.2       7 UNK         0.5020 
     48 O          25.4230  -32.2784  -43.2289 O.2       7 UNK        -0.5147 
     49 N          24.7345  -31.5264  -41.2022 N.am      8 UNK        -0.4734 
     50 CA         24.7486  -32.7906  -40.4450 C.3       8 UNK         0.0238 
     51 CB         26.1852  -33.3427  -40.3207 C.3       8 UNK        -0.1912 
     52 C          23.7475  -33.8503  -40.9597 C.2       8 UNK         0.5038 
     53 O          23.9408  -35.0410  -40.7097 O.2       8 UNK        -0.5046 
     54 N          22.6909  -33.4048  -41.6532 N.am      9 UNK        -0.4200 
     55 CA         21.6233  -34.2358  -42.2338 C.3       9 UNK         0.0839 
     56 C          20.5740  -34.7939  -41.2260 C.2       9 UNK         0.5513 
     57 N          20.7020  -34.5598  -39.9262 N.am      9 UNK        -0.7519 
     58 O          19.6313  -35.4690  -41.6312 O.2       9 UNK        -0.4960 
     59 C59        20.9712  -33.5433  -43.4616 C.3       10 UNK        -0.0876 
     60 S60        20.2757  -31.8868  -43.1245 S.3       10 UNK        -0.2414 
     61 C61        18.4867  -32.2190  -43.1568 C.3       10 UNK         0.0169 
     62 H62        15.7371  -22.1881  -47.8831 H         1 UNK         0.0903 
     63 H63        17.1282  -21.3870  -48.6159 H         1 UNK         0.0903 
     64 H64        16.0839  -22.4183  -49.5978 H         1 UNK         0.0903 
     65 H65        16.3449  -23.9503  -46.6369 H         1 UNK         0.3096 
     66 H66        18.0627  -26.0411  -47.5884 H         1 UNK         0.1121 
     67 H67        17.8213  -26.8707  -45.1550 H         1 UNK         0.0849 
     68 H68        16.8617  -25.4631  -44.8195 H         1 UNK         0.0849 
     69 H69        15.3726  -29.4022  -46.3883 H         1 UNK         0.0865 
     70 H70        17.0208  -28.9366  -46.7243 H         1 UNK         0.0865 
     71 H71        17.5568  -31.0014  -45.4016 H         1 UNK         0.1346 
     72 H72        17.6785  -30.5642  -41.1425 H         1 UNK         0.1412 
     73 H73        15.7421  -27.5882  -43.5335 H         1 UNK         0.1426 
     74 H74        15.7640  -28.6899  -40.3077 H         1 UNK         0.0716 
     75 H75        15.8978  -27.2126  -41.2301 H         1 UNK         0.0716 
     76 H76        18.1889  -26.1431  -41.8732 H         1 UNK         0.0695 
     77 H77        19.4651  -25.9534  -40.7057 H         1 UNK         0.0695 
     78 H78        19.2794  -28.2591  -42.7148 H         1 UNK         0.0983 
     79 H79        20.4541  -25.6398  -43.0286 H         1 UNK         0.3095 
     80 H80        21.5704  -25.0571  -44.8737 H         1 UNK         0.0454 
     81 H81        22.4978  -27.3464  -46.7072 H         1 UNK         0.0851 
     82 H82        22.9310  -25.6479  -46.8827 H         1 UNK         0.0851 
     83 H83        23.4689  -26.5518  -45.4758 H         1 UNK         0.0851 
     84 H84        20.0588  -26.6707  -46.8851 H         1 UNK         0.2976 
     85 H85        19.5921  -29.4323  -40.6252 H         1 UNK         0.3116 
     86 H86        21.9858  -30.7951  -40.6933 H         1 UNK         0.0646 
     87 H87        21.0949  -31.9343  -38.6277 H         1 UNK         0.0847 
     88 H88        19.8730  -31.7681  -39.8779 H         1 UNK         0.0847 
     89 H89        19.8657  -30.6885  -38.4832 H         1 UNK         0.0847 
     90 H90        21.3267  -27.9408  -38.7871 H         1 UNK         0.3040 
     91 H91        23.4281  -28.1433  -36.8658 H         1 UNK         0.1015 
     92 H92        21.5676  -26.5015  -36.6778 H         1 UNK         0.0786 
     93 H93        22.1140  -25.6763  -38.1388 H         1 UNK         0.0786 
     94 H94        23.1105  -25.6648  -36.6902 H         1 UNK         0.0786 
     95 H95        23.4819  -27.4089  -40.2962 H         1 UNK         0.3172 
     96 H96        26.4135  -26.7732  -40.1781 H         1 UNK         0.0595 
     97 H97        24.3189  -25.9563  -42.2653 H         1 UNK         0.0839 
     98 H98        26.0453  -25.6317  -42.3620 H         1 UNK         0.0839 
     99 H99        25.0861  -24.8869  -41.0935 H         1 UNK         0.0839 
    100 H100       23.8137  -28.5035  -41.9811 H         1 UNK         0.2998 
    101 H101       25.7266  -29.7844  -43.7489 H         1 UNK         0.0822 
    102 H102       23.5420  -29.0122  -44.5679 H         1 UNK         0.0787 
    103 H103       23.6380  -30.7538  -44.7497 H         1 UNK         0.0787 
    104 H104       22.6934  -30.0633  -43.4380 H         1 UNK         0.0787 
    105 H105       24.4512  -30.7121  -40.6700 H         1 UNK         0.3055 
    106 H106       24.4145  -32.5468  -39.4359 H         1 UNK         0.1106 
    107 H107       26.5695  -33.6969  -41.2775 H         1 UNK         0.0828 
    108 H108       26.8703  -32.5835  -39.9436 H         1 UNK         0.0828 
    109 H109       26.2237  -34.1831  -39.6265 H         1 UNK         0.0828 
    110 H110       22.6061  -32.4140  -41.8183 H         1 UNK         0.2931 
    111 H111       22.1139  -35.1290  -42.6253 H         1 UNK         0.0412 
    112 H112       20.0189  -34.9379  -39.2888 H         1 UNK         0.3472 
    113 H113       21.4949  -34.0504  -39.5752 H         1 UNK         0.3472 
    114 H114       20.2124  -34.1856  -43.9119 H         1 UNK         0.0970 
    115 H115       21.7279  -33.4185  -44.2378 H         1 UNK         0.0970 
    116 H116       18.2039  -32.7659  -42.2560 H         1 UNK         0.0612 
    117 H117       18.2472  -32.8657  -44.0021 H         1 UNK         0.0612 
@<TRIPOS>BOND
     1    1    2 1    
     2    1   62 1    
     3    1   63 1    
     4    1   64 1    
     5    2    3 2    
     6    2    4 am   BACKBONE|DICT|INTERRES
     7    4    5 1    
     8    4   65 1    
     9    5    6 1    
    10    5   25 1    
    11    5   66 1    
    12    6    7 1    
    13    6   67 1    
    14    6   68 1    
    15    7    8 1    
    16    8    9 1    
    17    8   69 1    
    18    8   70 1    
    19    9   10 ar   
    20    9   14 ar   
    21   10   11 ar   
    22   10   71 1    
    23   11   12 ar   
    24   11   61 1    
    25   12   13 ar   
    26   12   72 1    
    27   13   14 ar   
    28   13   15 1    
    29   14   73 1    
    30   15   16 1    
    31   15   74 1    
    32   15   75 1    
    33   16   17 1    
    34   17   18 1    
    35   17   76 1    
    36   17   77 1    
    37   18   19 1    
    38   18   27 1    
    39   18   78 1    
    40   19   20 am   BACKBONE|DICT|INTERRES
    41   19   79 1    
    42   20   21 2    
    43   20   22 1    
    44   22   23 1    
    45   22   24 1    
    46   22   80 1    
    47   23   81 1    
    48   23   82 1    
    49   23   83 1    
    50   24   25 am   BACKBONE|DICT|INTERRES
    51   24   84 1    
    52   25   26 2    
    53   27   28 2    
    54   27   29 am   BACKBONE|DICT|INTERRES
    55   29   30 1    
    56   29   85 1    
    57   30   31 1    
    58   30   32 1    
    59   30   86 1    
    60   31   87 1    
    61   31   88 1    
    62   31   89 1    
    63   32   33 2    
    64   32   34 am   BACKBONE|DICT|INTERRES
    65   34   35 1    
    66   34   90 1    
    67   35   36 1    
    68   35   37 1    
    69   35   91 1    
    70   36   92 1    
    71   36   93 1    
    72   36   94 1    
    73   37   38 2    
    74   37   39 am   BACKBONE|DICT|INTERRES
    75   39   40 1    
    76   39   95 1    
    77   40   41 1    
    78   40   42 1    
    79   40   96 1    
    80   41   97 1    
    81   41   98 1    
    82   41   99 1    
    83   42   43 2    
    84   42   44 am   BACKBONE|DICT|INTERRES
    85   44   45 1    
    86   44  100 1    
    87   45   46 1    
    88   45   47 1    
    89   45  101 1    
    90   46  102 1    
    91   46  103 1    
    92   46  104 1    
    93   47   48 2    
    94   47   49 am   BACKBONE|DICT|INTERRES
    95   49   50 1    
    96   49  105 1    
    97   50   51 1    
    98   50   52 1    
    99   50  106 1    
   100   51  107 1    
   101   51  108 1    
   102   51  109 1    
   103   52   53 2    
   104   52   54 am   BACKBONE|DICT|INTERRES
   105   54   55 1    
   106   54  110 1    
   107   55   56 1    
   108   55   59 1    
   109   55  111 1    
   110   56   57 am   BACKBONE|DICT|INTERRES
   111   56   58 2    
   112   57  112 1    
   113   57  113 1    
   114   59   60 1    
   115   59  114 1    
   116   59  115 1    
   117   60   61 1    
   118   61  116 1    
   119   61  117 1    
@<TRIPOS>SUBSTRUCTURE
     1 UNK         1 GROUP             0       ****    0 ROOT    
