@<TRIPOS>MOLECULE
3R8
117   119    1
SMALL
USER_CHARGES


@<TRIPOS>ATOM
      1 CA         13.0479  -24.3309  -42.8365 C.3       0 UNK        -0.2013 
      2 C          14.0209  -25.4746  -42.5899 C.2       0 UNK         0.4866 
      3 O          14.2607  -25.8285  -41.4349 O.2       0 UNK        -0.5176 
      4 N          14.5724  -26.0487  -43.6686 N.am      1 UNK        -0.4884 
      5 CA         15.5563  -27.1431  -43.6802 C.3       1 UNK         0.0853 
      6 C6         14.9962  -28.4775  -43.0958 C.3       10 UNK        -0.0849 
      7 S7         13.7194  -29.1849  -44.1908 S.3       10 UNK        -0.2776 
      8 C8         14.5594  -30.6691  -44.8525 C.3       10 UNK         0.0316 
      9 C9         15.9363  -30.3838  -45.4493 C.ar      10 UNK        -0.0863 
     10 C10        17.0384  -31.1574  -45.0665 C.ar      10 UNK        -0.1009 
     11 C11        18.3005  -30.9128  -45.6153 C.ar      10 UNK        -0.0712 
     12 C12        18.4607  -29.8780  -46.5385 C.ar      10 UNK        -0.0894 
     13 C13        17.3768  -29.0789  -46.9104 C.ar      10 UNK        -0.0745 
     14 C14        16.1118  -29.3582  -46.3853 C.ar      10 UNK        -0.0972 
     15 C15        17.5640  -27.9224  -47.8837 C.3       10 UNK         0.0209 
     16 S16        18.2373  -26.4358  -47.0637 S.3       10 UNK        -0.2568 
     17 C17        20.0341  -26.7779  -47.0894 C.3       10 UNK        -0.0983 
     18 CA         20.7590  -26.6330  -45.7185 C.3       3 UNK         0.0876 
     19 N          19.9977  -27.2148  -44.6041 N.am      3 UNK        -0.4424 
     20 C          20.0802  -26.8246  -43.3246 C.2       2 UNK         0.4918 
     21 O          20.8477  -25.9433  -42.9351 O.2       2 UNK        -0.4875 
     22 CA         19.1666  -27.5538  -42.3238 C.3       2 UNK         0.0481 
     23 CB         19.1894  -26.9287  -40.9126 C.3       2 UNK        -0.1831 
     24 N          17.7930  -27.7010  -42.8174 N.am      2 UNK        -0.4498 
     25 C          16.9254  -26.7155  -43.0994 C.2       1 UNK         0.5027 
     26 O          17.1902  -25.5171  -42.9689 O.2       1 UNK        -0.4969 
     27 C          22.2068  -27.1881  -45.7727 C.2       3 UNK         0.5005 
     28 O          22.6892  -27.5435  -46.8507 O.2       3 UNK        -0.5279 
     29 N          22.8730  -27.2915  -44.6169 N.am      4 UNK        -0.4463 
     30 CA         24.1896  -27.8959  -44.4396 C.3       4 UNK         0.0283 
     31 CB         24.0531  -29.4309  -44.3893 C.3       4 UNK        -0.1875 
     32 C          24.8283  -27.3649  -43.1519 C.2       4 UNK         0.4949 
     33 O          24.1270  -26.8297  -42.2907 O.2       4 UNK        -0.5039 
     34 N          26.1457  -27.5547  -43.0400 N.am      5 UNK        -0.4663 
     35 CA         26.9425  -27.2743  -41.8444 C.3       5 UNK         0.0242 
     36 CB         28.2866  -26.6710  -42.2958 C.3       5 UNK        -0.1982 
     37 C          27.1527  -28.5624  -41.0250 C.2       5 UNK         0.5017 
     38 O          26.6290  -29.6194  -41.3911 O.2       5 UNK        -0.5012 
     39 N          27.9321  -28.4518  -39.9381 N.am      6 UNK        -0.4439 
     40 CA         28.3533  -29.5257  -39.0288 C.3       6 UNK         0.0297 
     41 CB         29.3200  -30.5008  -39.7398 C.3       6 UNK        -0.2006 
     42 C          27.1521  -30.2194  -38.3617 C.2       6 UNK         0.4892 
     43 O          26.6163  -29.6824  -37.3915 O.2       6 UNK        -0.5089 
     44 N          26.7407  -31.3761  -38.9007 N.am      7 UNK        -0.4243 
     45 CA         25.5455  -32.1183  -38.4905 C.3       7 UNK         0.0196 
     46 CB         25.5509  -33.4995  -39.1653 C.3       7 UNK        -0.2007 
     47 C          24.2315  -31.3771  -38.7988 C.2       7 UNK         0.5020 
     48 O          23.2333  -31.6336  -38.1251 O.2       7 UNK        -0.5147 
     49 N          24.2541  -30.4844  -39.8031 N.am      8 UNK        -0.4734 
     50 CA         23.1816  -29.5606  -40.1981 C.3       8 UNK         0.0238 
     51 CB         23.0740  -28.4130  -39.1734 C.3       8 UNK        -0.1912 
     52 C          21.8297  -30.2475  -40.4718 C.2       8 UNK         0.5038 
     53 O          20.7847  -29.7325  -40.0728 O.2       8 UNK        -0.5046 
     54 N          21.8886  -31.4124  -41.1310 N.am      9 UNK        -0.4200 
     55 CA         20.7471  -32.2844  -41.4623 C.3       9 UNK         0.0839 
     56 C          20.0804  -32.9764  -40.2333 C.2       9 UNK         0.5513 
     57 N          20.6701  -32.9472  -39.0434 N.am      9 UNK        -0.7519 
     58 O          19.0223  -33.5862  -40.3667 O.2       9 UNK        -0.4960 
     59 C59        19.7064  -31.6053  -42.4022 C.3       10 UNK        -0.0876 
     60 S60        20.4768  -30.9491  -43.9249 S.3       10 UNK        -0.2414 
     61 C61        19.5022  -31.7596  -45.2279 C.3       10 UNK         0.0169 
     62 H62        13.4110  -23.4207  -42.3598 H         1 UNK         0.0903 
     63 H63        12.9160  -24.1273  -43.8991 H         1 UNK         0.0903 
     64 H64        12.0724  -24.5709  -42.4144 H         1 UNK         0.0903 
     65 H65        14.3401  -25.6828  -44.5814 H         1 UNK         0.3096 
     66 H66        15.7758  -27.3037  -44.7345 H         1 UNK         0.1121 
     67 H67        14.5648  -28.3241  -42.1062 H         1 UNK         0.0849 
     68 H68        15.7672  -29.2341  -42.9546 H         1 UNK         0.0849 
     69 H69        14.6330  -31.4070  -44.0520 H         1 UNK         0.0865 
     70 H70        13.9290  -31.1167  -45.6220 H         1 UNK         0.0865 
     71 H71        16.9150  -31.9576  -44.3494 H         1 UNK         0.1346 
     72 H72        19.4386  -29.7025  -46.9608 H         1 UNK         0.1412 
     73 H73        15.2622  -28.7603  -46.6866 H         1 UNK         0.1426 
     74 H74        18.2100  -28.2232  -48.7099 H         1 UNK         0.0716 
     75 H75        16.6066  -27.6595  -48.3363 H         1 UNK         0.0716 
     76 H76        20.1985  -27.7677  -47.5116 H         1 UNK         0.0695 
     77 H77        20.4828  -26.0898  -47.8081 H         1 UNK         0.0695 
     78 H78        20.8529  -25.5616  -45.5271 H         1 UNK         0.0983 
     79 H79        19.3540  -27.9532  -44.8480 H         1 UNK         0.3095 
     80 H80        19.5712  -28.5603  -42.2368 H         1 UNK         0.0454 
     81 H81        18.8418  -25.8955  -40.9147 H         1 UNK         0.0851 
     82 H82        18.5669  -27.4943  -40.2197 H         1 UNK         0.0851 
     83 H83        20.2009  -26.9284  -40.5058 H         1 UNK         0.0851 
     84 H84        17.5012  -28.6517  -42.9939 H         1 UNK         0.2976 
     85 H85        22.4615  -26.9035  -43.7713 H         1 UNK         0.3116 
     86 H86        24.8301  -27.6114  -45.2772 H         1 UNK         0.0646 
     87 H87        23.3896  -29.7486  -43.5846 H         1 UNK         0.0847 
     88 H88        23.6525  -29.8263  -45.3228 H         1 UNK         0.0847 
     89 H89        25.0180  -29.9119  -44.2245 H         1 UNK         0.0847 
     90 H90        26.6210  -28.0609  -43.7738 H         1 UNK         0.3040 
     91 H91        26.4253  -26.5516  -41.2090 H         1 UNK         0.1015 
     92 H92        28.8829  -27.3892  -42.8605 H         1 UNK         0.0786 
     93 H93        28.8870  -26.3437  -41.4465 H         1 UNK         0.0786 
     94 H94        28.1330  -25.7962  -42.9284 H         1 UNK         0.0786 
     95 H95        28.2772  -27.5323  -39.6991 H         1 UNK         0.3172 
     96 H96        28.9133  -29.0467  -38.2240 H         1 UNK         0.0595 
     97 H97        29.6333  -31.3020  -39.0688 H         1 UNK         0.0839 
     98 H98        30.2243  -29.9842  -40.0616 H         1 UNK         0.0839 
     99 H99        28.8788  -30.9629  -40.6233 H         1 UNK         0.0839 
    100 H100       27.2290  -31.7153  -39.7172 H         1 UNK         0.2998 
    101 H101       25.5931  -32.2620  -37.4089 H         1 UNK         0.0822 
    102 H102       24.6827  -34.0859  -38.8606 H         1 UNK         0.0787 
    103 H103       25.5243  -33.4185  -40.2528 H         1 UNK         0.0787 
    104 H104       26.4378  -34.0715  -38.8918 H         1 UNK         0.0787 
    105 H105       25.1288  -30.3689  -40.3088 H         1 UNK         0.3055 
    106 H106       23.4884  -29.1247  -41.1479 H         1 UNK         0.1106 
    107 H107       24.0371  -27.9244  -39.0255 H         1 UNK         0.0828 
    108 H108       22.3755  -27.6480  -39.5141 H         1 UNK         0.0828 
    109 H109       22.7247  -28.7701  -38.2039 H         1 UNK         0.0828 
    110 H110       22.7974  -31.7677  -41.3882 H         1 UNK         0.2931 
    111 H111       21.1859  -33.1089  -42.0254 H         1 UNK         0.0412 
    112 H112       20.2277  -33.4119  -38.2666 H         1 UNK         0.3472 
    113 H113       21.5360  -32.4397  -38.8963 H         1 UNK         0.3472 
    114 H114       18.9268  -32.3178  -42.6748 H         1 UNK         0.0970 
    115 H115       19.1897  -30.7969  -41.8856 H         1 UNK         0.0970 
    116 H116       20.1427  -31.9009  -46.0998 H         1 UNK         0.0612 
    117 H117       19.1958  -32.7595  -44.9175 H         1 UNK         0.0612 
@<TRIPOS>BOND
     1    1    2 1    
     2    1   62 1    
     3    1   63 1    
     4    1   64 1    
     5    2    3 2    
     6    2    4 am   BACKBONE|DICT|INTERRES
     7    4    5 1    
     8    4   65 1    
     9    5    6 1    
    10    5   25 1    
    11    5   66 1    
    12    6    7 1    
    13    6   67 1    
    14    6   68 1    
    15    7    8 1    
    16    8    9 1    
    17    8   69 1    
    18    8   70 1    
    19    9   10 ar   
    20    9   14 ar   
    21   10   11 ar   
    22   10   71 1    
    23   11   12 ar   
    24   11   61 1    
    25   12   13 ar   
    26   12   72 1    
    27   13   14 ar   
    28   13   15 1    
    29   14   73 1    
    30   15   16 1    
    31   15   74 1    
    32   15   75 1    
    33   16   17 1    
    34   17   18 1    
    35   17   76 1    
    36   17   77 1    
    37   18   19 1    
    38   18   27 1    
    39   18   78 1    
    40   19   20 am   BACKBONE|DICT|INTERRES
    41   19   79 1    
    42   20   21 2    
    43   20   22 1    
    44   22   23 1    
    45   22   24 1    
    46   22   80 1    
    47   23   81 1    
    48   23   82 1    
    49   23   83 1    
    50   24   25 am   BACKBONE|DICT|INTERRES
    51   24   84 1    
    52   25   26 2    
    53   27   28 2    
    54   27   29 am   BACKBONE|DICT|INTERRES
    55   29   30 1    
    56   29   85 1    
    57   30   31 1    
    58   30   32 1    
    59   30   86 1    
    60   31   87 1    
    61   31   88 1    
    62   31   89 1    
    63   32   33 2    
    64   32   34 am   BACKBONE|DICT|INTERRES
    65   34   35 1    
    66   34   90 1    
    67   35   36 1    
    68   35   37 1    
    69   35   91 1    
    70   36   92 1    
    71   36   93 1    
    72   36   94 1    
    73   37   38 2    
    74   37   39 am   BACKBONE|DICT|INTERRES
    75   39   40 1    
    76   39   95 1    
    77   40   41 1    
    78   40   42 1    
    79   40   96 1    
    80   41   97 1    
    81   41   98 1    
    82   41   99 1    
    83   42   43 2    
    84   42   44 am   BACKBONE|DICT|INTERRES
    85   44   45 1    
    86   44  100 1    
    87   45   46 1    
    88   45   47 1    
    89   45  101 1    
    90   46  102 1    
    91   46  103 1    
    92   46  104 1    
    93   47   48 2    
    94   47   49 am   BACKBONE|DICT|INTERRES
    95   49   50 1    
    96   49  105 1    
    97   50   51 1    
    98   50   52 1    
    99   50  106 1    
   100   51  107 1    
   101   51  108 1    
   102   51  109 1    
   103   52   53 2    
   104   52   54 am   BACKBONE|DICT|INTERRES
   105   54   55 1    
   106   54  110 1    
   107   55   56 1    
   108   55   59 1    
   109   55  111 1    
   110   56   57 am   BACKBONE|DICT|INTERRES
   111   56   58 2    
   112   57  112 1    
   113   57  113 1    
   114   59   60 1    
   115   59  114 1    
   116   59  115 1    
   117   60   61 1    
   118   61  116 1    
   119   61  117 1    
@<TRIPOS>SUBSTRUCTURE
     1 UNK         1 GROUP             0       ****    0 ROOT    
