@<TRIPOS>MOLECULE
3R8
117   119    1
SMALL
USER_CHARGES


@<TRIPOS>ATOM
      1 CA         19.2026  -28.7579  -43.3981 C.3       0 UNK        -0.2013 
      2 C          18.4444  -28.2652  -42.1712 C.2       0 UNK         0.4866 
      3 O          18.7422  -28.7297  -41.0747 O.2       0 UNK        -0.5176 
      4 N          17.4910  -27.3248  -42.2615 N.am      1 UNK        -0.4884 
      5 CA         16.9195  -26.6260  -43.4298 C.3       1 UNK         0.0853 
      6 C6         16.0773  -27.5132  -44.3936 C.3       10 UNK        -0.0849 
      7 S7         15.0246  -28.7622  -43.5686 S.3       10 UNK        -0.2776 
      8 C8         14.9654  -30.1038  -44.8066 C.3       10 UNK         0.0316 
      9 C9         16.3402  -30.6999  -45.0794 C.ar      10 UNK        -0.0863 
     10 C10        16.9070  -31.6140  -44.1879 C.ar      10 UNK        -0.1009 
     11 C11        18.1929  -32.1312  -44.4097 C.ar      10 UNK        -0.0712 
     12 C12        18.9077  -31.7040  -45.5362 C.ar      10 UNK        -0.0894 
     13 C13        18.3467  -30.7952  -46.4386 C.ar      10 UNK        -0.0745 
     14 C14        17.0526  -30.3218  -46.2186 C.ar      10 UNK        -0.0972 
     15 C15        19.1222  -30.3106  -47.6543 C.3       10 UNK         0.0209 
     16 S16        19.5183  -28.5352  -47.5300 S.3       10 UNK        -0.2568 
     17 C17        21.1206  -28.5773  -46.6675 C.3       10 UNK        -0.0983 
     18 CA         21.6702  -27.1498  -46.4177 C.3       3 UNK         0.0876 
     19 N          20.8681  -26.4096  -45.4304 N.am      3 UNK        -0.4424 
     20 C          20.9505  -25.0901  -45.2025 C.2       2 UNK         0.4918 
     21 O          21.6769  -24.3393  -45.8549 O.2       2 UNK        -0.4875 
     22 CA         20.1327  -24.5118  -44.0249 C.3       2 UNK         0.0481 
     23 CB         19.6264  -23.0821  -44.3124 C.3       2 UNK        -0.1831 
     24 N          19.0414  -25.3686  -43.5346 N.am      2 UNK        -0.4498 
     25 C          17.9303  -25.7355  -44.1934 C.2       1 UNK         0.5027 
     26 O          17.6930  -25.4073  -45.3561 O.2       1 UNK        -0.4969 
     27 C          23.1691  -27.2018  -46.0452 C.2       3 UNK         0.5005 
     28 O          24.0102  -27.3175  -46.9383 O.2       3 UNK        -0.5279 
     29 N          23.4787  -27.0945  -44.7485 N.am      4 UNK        -0.4463 
     30 CA         24.8165  -26.9580  -44.1877 C.3       4 UNK         0.0283 
     31 CB         25.4871  -28.3376  -44.0500 C.3       4 UNK        -0.1875 
     32 C          24.6743  -26.2678  -42.8278 C.2       4 UNK         0.4949 
     33 O          23.5942  -26.3135  -42.2321 O.2       4 UNK        -0.5039 
     34 N          25.7687  -25.6635  -42.3487 N.am      5 UNK        -0.4663 
     35 CA         25.8354  -24.9701  -41.0548 C.3       5 UNK         0.0242 
     36 CB         27.1340  -24.1496  -40.9892 C.3       5 UNK        -0.1982 
     37 C          25.7326  -25.9116  -39.8397 C.2       5 UNK         0.5017 
     38 O          25.3452  -25.4632  -38.7603 O.2       5 UNK        -0.5012 
     39 N          26.0716  -27.1896  -40.0417 N.am      6 UNK        -0.4439 
     40 CA         25.9637  -28.2692  -39.0654 C.3       6 UNK         0.0297 
     41 CB         27.3365  -28.5146  -38.4095 C.3       6 UNK        -0.2006 
     42 C          25.3905  -29.5100  -39.7655 C.2       6 UNK         0.4892 
     43 O          26.0140  -30.5730  -39.7508 O.2       6 UNK        -0.5089 
     44 N          24.2243  -29.3377  -40.4047 N.am      7 UNK        -0.4243 
     45 CA         23.4726  -30.4058  -41.0682 C.3       7 UNK         0.0196 
     46 CB         22.3079  -29.7890  -41.8616 C.3       7 UNK        -0.2007 
     47 C          22.9367  -31.4364  -40.0605 C.2       7 UNK         0.5020 
     48 O          22.5636  -31.0675  -38.9444 O.2       7 UNK        -0.5147 
     49 N          22.8568  -32.7026  -40.4913 N.am      8 UNK        -0.4734 
     50 CA         22.3852  -33.8370  -39.6834 C.3       8 UNK         0.0238 
     51 CB         22.6008  -35.1407  -40.4697 C.3       8 UNK        -0.1912 
     52 C          20.9188  -33.7252  -39.2259 C.2       8 UNK         0.5038 
     53 O          20.5588  -34.3165  -38.2071 O.2       8 UNK        -0.5046 
     54 N          20.1148  -32.9647  -39.9774 N.am      9 UNK        -0.4200 
     55 CA         18.7231  -32.6245  -39.6519 C.3       9 UNK         0.0839 
     56 C          18.5774  -31.4912  -38.5930 C.2       9 UNK         0.5513 
     57 N          19.6472  -30.8481  -38.1371 N.am      9 UNK        -0.7519 
     58 O          17.4652  -31.2050  -38.1570 O.2       9 UNK        -0.4960 
     59 C59        17.8987  -32.3216  -40.9300 C.3       10 UNK        -0.0876 
     60 S60        17.8534  -33.7447  -42.0755 S.3       10 UNK        -0.2414 
     61 C61        18.8673  -33.1342  -43.4681 C.3       10 UNK         0.0169 
     62 H62        18.6939  -28.5639  -44.3372 H         1 UNK         0.0903 
     63 H63        20.1898  -28.3016  -43.4271 H         1 UNK         0.0903 
     64 H64        19.3453  -29.8342  -43.3248 H         1 UNK         0.0903 
     65 H65        17.0506  -27.0599  -41.3909 H         1 UNK         0.3096 
     66 H66        16.2183  -25.9131  -42.9924 H         1 UNK         0.1121 
     67 H67        16.7248  -27.9968  -45.1185 H         1 UNK         0.0849 
     68 H68        15.4183  -26.8796  -44.9902 H         1 UNK         0.0849 
     69 H69        14.2951  -30.8864  -44.4481 H         1 UNK         0.0865 
     70 H70        14.5202  -29.7235  -45.7275 H         1 UNK         0.0865 
     71 H71        16.3351  -31.9011  -43.3181 H         1 UNK         0.1346 
     72 H72        19.9070  -32.0799  -45.7093 H         1 UNK         0.1412 
     73 H73        16.6189  -29.6193  -46.9177 H         1 UNK         0.1426 
     74 H74        20.0362  -30.8888  -47.7988 H         1 UNK         0.0716 
     75 H75        18.5152  -30.4716  -48.5464 H         1 UNK         0.0716 
     76 H76        21.0193  -29.1319  -45.7332 H         1 UNK         0.0695 
     77 H77        21.8076  -29.1512  -47.2932 H         1 UNK         0.0695 
     78 H78        21.6159  -26.5981  -47.3593 H         1 UNK         0.0983 
     79 H79        20.2060  -26.9465  -44.8952 H         1 UNK         0.3095 
     80 H80        20.8375  -24.4406  -43.1952 H         1 UNK         0.0454 
     81 H81        18.9708  -23.0505  -45.1830 H         1 UNK         0.0851 
     82 H82        19.0772  -22.6762  -43.4632 H         1 UNK         0.0851 
     83 H83        20.4568  -22.4032  -44.5100 H         1 UNK         0.0851 
     84 H84        19.1346  -25.6870  -42.5790 H         1 UNK         0.2976 
     85 H85        22.7423  -26.9514  -44.0683 H         1 UNK         0.3116 
     86 H86        25.4152  -26.3191  -44.8405 H         1 UNK         0.0646 
     87 H87        24.9292  -28.9964  -43.3853 H         1 UNK         0.0847 
     88 H88        25.5724  -28.8355  -45.0159 H         1 UNK         0.0847 
     89 H89        26.4963  -28.2465  -43.6473 H         1 UNK         0.0847 
     90 H90        26.6126  -25.6668  -42.9051 H         1 UNK         0.3040 
     91 H91        24.9902  -24.2802  -40.9977 H         1 UNK         0.1015 
     92 H92        28.0181  -24.7850  -41.0563 H         1 UNK         0.0786 
     93 H93        27.2003  -23.5981  -40.0500 H         1 UNK         0.0786 
     94 H94        27.1829  -23.4174  -41.7954 H         1 UNK         0.0786 
     95 H95        26.3625  -27.4595  -40.9708 H         1 UNK         0.3172 
     96 H96        25.2523  -27.9982  -38.2822 H         1 UNK         0.0595 
     97 H97        27.2789  -29.3138  -37.6695 H         1 UNK         0.0839 
     98 H98        27.6938  -27.6226  -37.8947 H         1 UNK         0.0839 
     99 H99        28.0896  -28.8015  -39.1444 H         1 UNK         0.0839 
    100 H100       23.7805  -28.4309  -40.3621 H         1 UNK         0.2998 
    101 H101       24.1471  -30.9090  -41.7643 H         1 UNK         0.0822 
    102 H102       21.7596  -30.5538  -42.4128 H         1 UNK         0.0787 
    103 H103       21.5955  -29.2876  -41.2043 H         1 UNK         0.0787 
    104 H104       22.6597  -29.0586  -42.5890 H         1 UNK         0.0787 
    105 H105       23.1756  -32.9187  -41.4255 H         1 UNK         0.3055 
    106 H106       22.9975  -33.8748  -38.7794 H         1 UNK         0.1106 
    107 H107       23.6520  -35.2869  -40.7187 H         1 UNK         0.0828 
    108 H108       22.2867  -36.0062  -39.8841 H         1 UNK         0.0828 
    109 H109       22.0286  -35.1521  -41.3983 H         1 UNK         0.0828 
    110 H110       20.5092  -32.5103  -40.7854 H         1 UNK         0.2931 
    111 H111       18.2735  -33.5056  -39.1896 H         1 UNK         0.0412 
    112 H112       19.5232  -30.1211  -37.4509 H         1 UNK         0.3472 
    113 H113       20.5782  -31.0618  -38.4764 H         1 UNK         0.3472 
    114 H114       16.8661  -32.0811  -40.6700 H         1 UNK         0.0970 
    115 H115       18.2907  -31.4400  -41.4397 H         1 UNK         0.0970 
    116 H116       19.7844  -32.6952  -43.0732 H         1 UNK         0.0612 
    117 H117       19.1714  -34.0019  -44.0552 H         1 UNK         0.0612 
@<TRIPOS>BOND
     1    1    2 1    
     2    1   62 1    
     3    1   63 1    
     4    1   64 1    
     5    2    3 2    
     6    2    4 am   BACKBONE|DICT|INTERRES
     7    4    5 1    
     8    4   65 1    
     9    5    6 1    
    10    5   25 1    
    11    5   66 1    
    12    6    7 1    
    13    6   67 1    
    14    6   68 1    
    15    7    8 1    
    16    8    9 1    
    17    8   69 1    
    18    8   70 1    
    19    9   10 ar   
    20    9   14 ar   
    21   10   11 ar   
    22   10   71 1    
    23   11   12 ar   
    24   11   61 1    
    25   12   13 ar   
    26   12   72 1    
    27   13   14 ar   
    28   13   15 1    
    29   14   73 1    
    30   15   16 1    
    31   15   74 1    
    32   15   75 1    
    33   16   17 1    
    34   17   18 1    
    35   17   76 1    
    36   17   77 1    
    37   18   19 1    
    38   18   27 1    
    39   18   78 1    
    40   19   20 am   BACKBONE|DICT|INTERRES
    41   19   79 1    
    42   20   21 2    
    43   20   22 1    
    44   22   23 1    
    45   22   24 1    
    46   22   80 1    
    47   23   81 1    
    48   23   82 1    
    49   23   83 1    
    50   24   25 am   BACKBONE|DICT|INTERRES
    51   24   84 1    
    52   25   26 2    
    53   27   28 2    
    54   27   29 am   BACKBONE|DICT|INTERRES
    55   29   30 1    
    56   29   85 1    
    57   30   31 1    
    58   30   32 1    
    59   30   86 1    
    60   31   87 1    
    61   31   88 1    
    62   31   89 1    
    63   32   33 2    
    64   32   34 am   BACKBONE|DICT|INTERRES
    65   34   35 1    
    66   34   90 1    
    67   35   36 1    
    68   35   37 1    
    69   35   91 1    
    70   36   92 1    
    71   36   93 1    
    72   36   94 1    
    73   37   38 2    
    74   37   39 am   BACKBONE|DICT|INTERRES
    75   39   40 1    
    76   39   95 1    
    77   40   41 1    
    78   40   42 1    
    79   40   96 1    
    80   41   97 1    
    81   41   98 1    
    82   41   99 1    
    83   42   43 2    
    84   42   44 am   BACKBONE|DICT|INTERRES
    85   44   45 1    
    86   44  100 1    
    87   45   46 1    
    88   45   47 1    
    89   45  101 1    
    90   46  102 1    
    91   46  103 1    
    92   46  104 1    
    93   47   48 2    
    94   47   49 am   BACKBONE|DICT|INTERRES
    95   49   50 1    
    96   49  105 1    
    97   50   51 1    
    98   50   52 1    
    99   50  106 1    
   100   51  107 1    
   101   51  108 1    
   102   51  109 1    
   103   52   53 2    
   104   52   54 am   BACKBONE|DICT|INTERRES
   105   54   55 1    
   106   54  110 1    
   107   55   56 1    
   108   55   59 1    
   109   55  111 1    
   110   56   57 am   BACKBONE|DICT|INTERRES
   111   56   58 2    
   112   57  112 1    
   113   57  113 1    
   114   59   60 1    
   115   59  114 1    
   116   59  115 1    
   117   60   61 1    
   118   61  116 1    
   119   61  117 1    
@<TRIPOS>SUBSTRUCTURE
     1 UNK         1 GROUP             0       ****    0 ROOT    
