@<TRIPOS>MOLECULE
3R8
117   119    1
SMALL
USER_CHARGES


@<TRIPOS>ATOM
      1 CA         16.0927  -21.8096  -44.4773 C.3       0 UNK        -0.2013 
      2 C          16.8299  -22.7457  -45.4234 C.2       0 UNK         0.4866 
      3 O          17.5068  -22.2785  -46.3392 O.2       0 UNK        -0.5176 
      4 N          16.6952  -24.0622  -45.2125 N.am      1 UNK        -0.4884 
      5 CA         17.3569  -25.1154  -45.9926 C.3       1 UNK         0.0853 
      6 C6         16.7233  -26.4986  -45.6931 C.3       10 UNK        -0.0849 
      7 S7         17.1584  -27.7720  -46.9204 S.3       10 UNK        -0.2776 
      8 C8         16.1253  -29.1594  -46.3518 C.3       10 UNK         0.0316 
      9 C9         16.7194  -29.8574  -45.1353 C.ar      10 UNK        -0.0863 
     10 C10        17.6826  -30.8550  -45.3087 C.ar      10 UNK        -0.1009 
     11 C11        18.2054  -31.5377  -44.2073 C.ar      10 UNK        -0.0712 
     12 C12        17.7536  -31.2208  -42.9229 C.ar      10 UNK        -0.0894 
     13 C13        16.7991  -30.2160  -42.7319 C.ar      10 UNK        -0.0745 
     14 C14        16.2852  -29.5385  -43.8439 C.ar      10 UNK        -0.0972 
     15 C15        16.2928  -29.8867  -41.3305 C.3       10 UNK         0.0209 
     16 S16        17.6272  -29.4490  -40.1643 S.3       10 UNK        -0.2568 
     17 C17        18.3508  -27.9776  -40.9598 C.3       10 UNK        -0.0983 
     18 CA         19.7025  -28.3077  -41.6505 C.3       3 UNK         0.0876 
     19 N          20.0192  -27.3503  -42.7117 N.am      3 UNK        -0.4424 
     20 C          20.4414  -26.0855  -42.5652 C.2       2 UNK         0.4918 
     21 O          20.6638  -25.5425  -41.4834 O.2       2 UNK        -0.4875 
     22 CA         20.5822  -25.2814  -43.8595 C.3       2 UNK         0.0481 
     23 CB         21.6890  -25.8991  -44.7438 C.3       2 UNK        -0.1831 
     24 N          19.2512  -25.2540  -44.4729 N.am      2 UNK        -0.4498 
     25 C          18.8821  -25.1091  -45.7526 C.2       1 UNK         0.5027 
     26 O          19.6522  -24.9549  -46.7012 O.2       1 UNK        -0.4969 
     27 C          20.9007  -28.4989  -40.6961 C.2       3 UNK         0.5005 
     28 O          21.8815  -29.1324  -41.0895 O.2       3 UNK        -0.5279 
     29 N          20.8449  -27.9106  -39.4930 N.am      4 UNK        -0.4463 
     30 CA         21.9318  -27.8902  -38.5092 C.3       4 UNK         0.0283 
     31 CB         21.4531  -27.1821  -37.2329 C.3       4 UNK        -0.1875 
     32 C          23.2299  -27.2435  -39.0282 C.2       4 UNK         0.4949 
     33 O          24.3108  -27.6742  -38.6283 O.2       4 UNK        -0.5039 
     34 N          23.1191  -26.2766  -39.9529 N.am      5 UNK        -0.4663 
     35 CA         24.2621  -25.6631  -40.6419 C.3       5 UNK         0.0242 
     36 CB         23.8107  -24.3741  -41.3470 C.3       5 UNK        -0.1982 
     37 C          24.9570  -26.6131  -41.6374 C.2       5 UNK         0.5017 
     38 O          26.1169  -26.3785  -41.9757 O.2       5 UNK        -0.5012 
     39 N          24.2554  -27.6733  -42.0627 N.am      6 UNK        -0.4439 
     40 CA         24.7827  -28.7797  -42.8631 C.3       6 UNK         0.0297 
     41 CB         23.7824  -29.1000  -43.9909 C.3       6 UNK        -0.2006 
     42 C          25.0557  -30.0236  -41.9939 C.2       6 UNK         0.4892 
     43 O          25.2471  -31.1047  -42.5502 O.2       6 UNK        -0.5089 
     44 N          25.0336  -29.8719  -40.6579 N.am      7 UNK        -0.4243 
     45 CA         25.1851  -30.9183  -39.6375 C.3       7 UNK         0.0196 
     46 CB         26.6272  -31.4691  -39.6345 C.3       7 UNK        -0.2007 
     47 C          24.1174  -32.0275  -39.7408 C.2       7 UNK         0.5020 
     48 O          24.4224  -33.1950  -39.4953 O.2       7 UNK        -0.5147 
     49 N          22.8899  -31.6376  -40.1195 N.am      8 UNK        -0.4734 
     50 CA         21.7358  -32.4935  -40.4276 C.3       8 UNK         0.0238 
     51 CB         21.2916  -33.3219  -39.2031 C.3       8 UNK        -0.1912 
     52 C          21.9273  -33.3421  -41.7018 C.2       8 UNK         0.5038 
     53 O          21.2682  -34.3730  -41.8500 O.2       8 UNK        -0.5046 
     54 N          22.7853  -32.8615  -42.6120 N.am      9 UNK        -0.4200 
     55 CA         23.0895  -33.4200  -43.9378 C.3       9 UNK         0.0839 
     56 C          23.9109  -34.7428  -43.8836 C.2       9 UNK         0.5513 
     57 N          24.2087  -35.3412  -45.0301 N.am      9 UNK        -0.7519 
     58 O          24.3136  -35.2256  -42.8272 O.2       9 UNK        -0.4960 
     59 C59        21.8457  -33.5144  -44.8731 C.3       10 UNK        -0.0876 
     60 S60        20.8469  -31.9832  -44.9253 S.3       10 UNK        -0.2414 
     61 C61        19.2305  -32.6414  -44.4099 C.3       10 UNK         0.0169 
     62 H62        16.8016  -21.1585  -43.9664 H         1 UNK         0.0903 
     63 H63        15.3969  -21.1838  -45.0356 H         1 UNK         0.0903 
     64 H64        15.5269  -22.3537  -43.7212 H         1 UNK         0.0903 
     65 H65        16.1095  -24.3765  -44.4515 H         1 UNK         0.3096 
     66 H66        17.1926  -24.8874  -47.0487 H         1 UNK         0.1121 
     67 H67        15.6356  -26.4078  -45.6984 H         1 UNK         0.0849 
     68 H68        16.9891  -26.8529  -44.6958 H         1 UNK         0.0849 
     69 H69        15.1141  -28.8086  -46.1399 H         1 UNK         0.0865 
     70 H70        16.0258  -29.8767  -47.1681 H         1 UNK         0.0865 
     71 H71        18.0233  -31.1070  -46.3040 H         1 UNK         0.1346 
     72 H72        18.1437  -31.7552  -42.0674 H         1 UNK         0.1412 
     73 H73        15.5338  -28.7727  -43.7068 H         1 UNK         0.1426 
     74 H74        15.5711  -29.0688  -41.3590 H         1 UNK         0.0716 
     75 H75        15.7574  -30.7528  -40.9395 H         1 UNK         0.0716 
     76 H76        18.4377  -27.1678  -40.2343 H         1 UNK         0.0695 
     77 H77        17.6391  -27.6125  -41.7020 H         1 UNK         0.0695 
     78 H78        19.5917  -29.2618  -42.1671 H         1 UNK         0.0983 
     79 H79        19.8860  -27.6949  -43.6517 H         1 UNK         0.3095 
     80 H80        20.8599  -24.2578  -43.6030 H         1 UNK         0.0454 
     81 H81        21.9571  -25.2362  -45.5659 H         1 UNK         0.0851 
     82 H82        21.3932  -26.8578  -45.1706 H         1 UNK         0.0851 
     83 H83        22.6023  -26.0619  -44.1702 H         1 UNK         0.0851 
     84 H84        18.5015  -25.3340  -43.7996 H         1 UNK         0.2976 
     85 H85        20.0125  -27.3891  -39.2586 H         1 UNK         0.3116 
     86 H86        22.1630  -28.9276  -38.2580 H         1 UNK         0.0646 
     87 H87        20.5887  -27.6851  -36.7989 H         1 UNK         0.0847 
     88 H88        22.2362  -27.1760  -36.4733 H         1 UNK         0.0847 
     89 H89        21.1781  -26.1442  -37.4251 H         1 UNK         0.0847 
     90 H90        22.1932  -25.9888  -40.2577 H         1 UNK         0.3040 
     91 H91        25.0030  -25.3921  -39.8861 H         1 UNK         0.1015 
     92 H92        23.1131  -24.5769  -42.1586 H         1 UNK         0.0786 
     93 H93        24.6638  -23.8492  -41.7791 H         1 UNK         0.0786 
     94 H94        23.3273  -23.6877  -40.6516 H         1 UNK         0.0786 
     95 H95        23.3222  -27.8199  -41.6915 H         1 UNK         0.3172 
     96 H96        25.7316  -28.4973  -43.3227 H         1 UNK         0.0595 
     97 H97        22.8127  -29.4114  -43.6006 H         1 UNK         0.0839 
     98 H98        24.1484  -29.9071  -44.6269 H         1 UNK         0.0839 
     99 H99        23.6249  -28.2372  -44.6365 H         1 UNK         0.0839 
    100 H100       24.8587  -28.9450  -40.2886 H         1 UNK         0.2998 
    101 H101       25.0177  -30.4310  -38.6758 H         1 UNK         0.0822 
    102 H102       26.7863  -32.1460  -38.7942 H         1 UNK         0.0787 
    103 H103       26.8496  -32.0250  -40.5460 H         1 UNK         0.0787 
    104 H104       27.3583  -30.6658  -39.5441 H         1 UNK         0.0787 
    105 H105       22.7471  -30.6533  -40.3376 H         1 UNK         0.3055 
    106 H106       20.9192  -31.8089  -40.6628 H         1 UNK         0.1106 
    107 H107       20.3352  -33.8113  -39.3906 H         1 UNK         0.0828 
    108 H108       22.0100  -34.1045  -38.9584 H         1 UNK         0.0828 
    109 H109       21.1644  -32.6926  -38.3225 H         1 UNK         0.0828 
    110 H110       23.3475  -32.0589  -42.3593 H         1 UNK         0.2931 
    111 H111       23.7672  -32.6892  -44.3806 H         1 UNK         0.0412 
    112 H112       24.7501  -36.1917  -45.0087 H         1 UNK         0.3472 
    113 H113       23.9217  -34.9557  -45.9160 H         1 UNK         0.3472 
    114 H114       21.2178  -34.3563  -44.5761 H         1 UNK         0.0970 
    115 H115       22.1559  -33.7264  -45.8970 H         1 UNK         0.0970 
    116 H116       19.3512  -33.2177  -43.4917 H         1 UNK         0.0612 
    117 H117       18.8685  -33.3381  -45.1674 H         1 UNK         0.0612 
@<TRIPOS>BOND
     1    1    2 1    
     2    1   62 1    
     3    1   63 1    
     4    1   64 1    
     5    2    3 2    
     6    2    4 am   BACKBONE|DICT|INTERRES
     7    4    5 1    
     8    4   65 1    
     9    5    6 1    
    10    5   25 1    
    11    5   66 1    
    12    6    7 1    
    13    6   67 1    
    14    6   68 1    
    15    7    8 1    
    16    8    9 1    
    17    8   69 1    
    18    8   70 1    
    19    9   10 ar   
    20    9   14 ar   
    21   10   11 ar   
    22   10   71 1    
    23   11   12 ar   
    24   11   61 1    
    25   12   13 ar   
    26   12   72 1    
    27   13   14 ar   
    28   13   15 1    
    29   14   73 1    
    30   15   16 1    
    31   15   74 1    
    32   15   75 1    
    33   16   17 1    
    34   17   18 1    
    35   17   76 1    
    36   17   77 1    
    37   18   19 1    
    38   18   27 1    
    39   18   78 1    
    40   19   20 am   BACKBONE|DICT|INTERRES
    41   19   79 1    
    42   20   21 2    
    43   20   22 1    
    44   22   23 1    
    45   22   24 1    
    46   22   80 1    
    47   23   81 1    
    48   23   82 1    
    49   23   83 1    
    50   24   25 am   BACKBONE|DICT|INTERRES
    51   24   84 1    
    52   25   26 2    
    53   27   28 2    
    54   27   29 am   BACKBONE|DICT|INTERRES
    55   29   30 1    
    56   29   85 1    
    57   30   31 1    
    58   30   32 1    
    59   30   86 1    
    60   31   87 1    
    61   31   88 1    
    62   31   89 1    
    63   32   33 2    
    64   32   34 am   BACKBONE|DICT|INTERRES
    65   34   35 1    
    66   34   90 1    
    67   35   36 1    
    68   35   37 1    
    69   35   91 1    
    70   36   92 1    
    71   36   93 1    
    72   36   94 1    
    73   37   38 2    
    74   37   39 am   BACKBONE|DICT|INTERRES
    75   39   40 1    
    76   39   95 1    
    77   40   41 1    
    78   40   42 1    
    79   40   96 1    
    80   41   97 1    
    81   41   98 1    
    82   41   99 1    
    83   42   43 2    
    84   42   44 am   BACKBONE|DICT|INTERRES
    85   44   45 1    
    86   44  100 1    
    87   45   46 1    
    88   45   47 1    
    89   45  101 1    
    90   46  102 1    
    91   46  103 1    
    92   46  104 1    
    93   47   48 2    
    94   47   49 am   BACKBONE|DICT|INTERRES
    95   49   50 1    
    96   49  105 1    
    97   50   51 1    
    98   50   52 1    
    99   50  106 1    
   100   51  107 1    
   101   51  108 1    
   102   51  109 1    
   103   52   53 2    
   104   52   54 am   BACKBONE|DICT|INTERRES
   105   54   55 1    
   106   54  110 1    
   107   55   56 1    
   108   55   59 1    
   109   55  111 1    
   110   56   57 am   BACKBONE|DICT|INTERRES
   111   56   58 2    
   112   57  112 1    
   113   57  113 1    
   114   59   60 1    
   115   59  114 1    
   116   59  115 1    
   117   60   61 1    
   118   61  116 1    
   119   61  117 1    
@<TRIPOS>SUBSTRUCTURE
     1 UNK         1 GROUP             0       ****    0 ROOT    
