@<TRIPOS>MOLECULE
3R8
117   119    1
SMALL
USER_CHARGES


@<TRIPOS>ATOM
      1 CA         14.0887  -24.4636  -42.4365 C.3       0 UNK        -0.2013 
      2 C          15.0875  -25.4102  -43.0846 C.2       0 UNK         0.4866 
      3 O          16.2441  -25.0384  -43.2860 O.2       0 UNK        -0.5176 
      4 N          14.6577  -26.6366  -43.4065 N.am      1 UNK        -0.4884 
      5 CA         15.4697  -27.6875  -44.0333 C.3       1 UNK         0.0853 
      6 C6         14.5948  -28.6426  -44.8908 C.3       10 UNK        -0.0849 
      7 S7         14.3890  -27.9455  -46.5662 S.3       10 UNK        -0.2776 
      8 C8         15.4222  -29.0349  -47.6111 C.3       10 UNK         0.0316 
      9 C9         16.7565  -29.4251  -46.9790 C.ar      10 UNK        -0.0863 
     10 C10        16.9784  -30.7507  -46.5979 C.ar      10 UNK        -0.1009 
     11 C11        18.1894  -31.1407  -46.0223 C.ar      10 UNK        -0.0712 
     12 C12        19.1927  -30.1807  -45.8345 C.ar      10 UNK        -0.0894 
     13 C13        18.9937  -28.8467  -46.2138 C.ar      10 UNK        -0.0745 
     14 C14        17.7689  -28.4803  -46.7866 C.ar      10 UNK        -0.0972 
     15 C15        20.0641  -27.7714  -46.0127 C.3       10 UNK         0.0209 
     16 S16        21.7994  -28.3533  -46.1085 S.3       10 UNK        -0.2568 
     17 C17        22.3105  -28.8116  -44.4083 C.3       10 UNK        -0.0983 
     18 CA         21.8694  -27.8251  -43.2893 C.3       3 UNK         0.0876 
     19 N          20.6198  -28.2524  -42.6654 N.am      3 UNK        -0.4424 
     20 C          19.6421  -27.4380  -42.2664 C.2       2 UNK         0.4918 
     21 O          19.6730  -26.2133  -42.4060 O.2       2 UNK        -0.4875 
     22 CA         18.4170  -28.0934  -41.6258 C.3       2 UNK         0.0481 
     23 CB         18.2615  -27.6760  -40.1556 C.3       2 UNK        -0.1831 
     24 N          17.2737  -27.6341  -42.4001 N.am      2 UNK        -0.4498 
     25 C          16.3613  -28.4054  -42.9979 C.2       1 UNK         0.5027 
     26 O          16.2222  -29.6077  -42.7717 O.2       1 UNK        -0.4969 
     27 C          22.8918  -27.6824  -42.1473 C.2       3 UNK         0.5005 
     28 O          23.7715  -28.5304  -41.9787 O.2       3 UNK        -0.5279 
     29 N          22.7244  -26.6168  -41.3496 N.am      4 UNK        -0.4463 
     30 CA         23.4880  -26.3239  -40.1316 C.3       4 UNK         0.0283 
     31 CB         22.8966  -25.0803  -39.4497 C.3       4 UNK        -0.1875 
     32 C          25.0007  -26.1485  -40.3499 C.2       4 UNK         0.4949 
     33 O          25.7713  -26.4254  -39.4323 O.2       4 UNK        -0.5039 
     34 N          25.4035  -25.7405  -41.5618 N.am      5 UNK        -0.4663 
     35 CA         26.8041  -25.6486  -41.9882 C.3       5 UNK         0.0242 
     36 CB         26.8756  -24.9165  -43.3379 C.3       5 UNK        -0.1982 
     37 C          27.5033  -27.0184  -42.0805 C.2       5 UNK         0.5017 
     38 O          28.7108  -27.0927  -41.8517 O.2       5 UNK        -0.5012 
     39 N          26.7336  -28.0692  -42.3959 N.am      6 UNK        -0.4439 
     40 CA         27.1809  -29.4643  -42.4157 C.3       6 UNK         0.0297 
     41 CB         26.5406  -30.1638  -43.6273 C.3       6 UNK        -0.2006 
     42 C          26.8118  -30.2109  -41.1199 C.2       6 UNK         0.4892 
     43 O          27.2799  -31.3336  -40.9281 O.2       6 UNK        -0.5089 
     44 N          25.9611  -29.5944  -40.2831 N.am      7 UNK        -0.4243 
     45 CA         25.2758  -30.1556  -39.1134 C.3       7 UNK         0.0196 
     46 CB         26.2778  -30.4899  -37.9882 C.3       7 UNK        -0.2007 
     47 C          24.3665  -31.3406  -39.4970 C.2       7 UNK         0.5020 
     48 O          24.3131  -32.3372  -38.7739 O.2       7 UNK        -0.5147 
     49 N          23.6893  -31.2186  -40.6458 N.am      8 UNK        -0.4734 
     50 CA         22.8749  -32.2683  -41.2544 C.3       8 UNK         0.0238 
     51 CB         23.3960  -32.5173  -42.6799 C.3       8 UNK        -0.1912 
     52 C          21.4006  -31.8536  -41.3018 C.2       8 UNK         0.5038 
     53 O          21.0966  -30.6620  -41.3773 O.2       8 UNK        -0.5046 
     54 N          20.5144  -32.8552  -41.3099 N.am      9 UNK        -0.4200 
     55 CA         19.0581  -32.7363  -41.5166 C.3       9 UNK         0.0839 
     56 C          18.2618  -32.0781  -40.3492 C.2       9 UNK         0.5513 
     57 N          18.8903  -31.6713  -39.2535 N.am      9 UNK        -0.7519 
     58 O          17.0400  -31.9814  -40.4163 O.2       9 UNK        -0.4960 
     59 C59        18.6865  -32.1198  -42.8975 C.3       10 UNK        -0.0876 
     60 S60        19.5377  -32.9378  -44.2909 S.3       10 UNK        -0.2414 
     61 C61        18.3833  -32.6149  -45.6635 C.3       10 UNK         0.0169 
     62 H62        14.4413  -24.1646  -41.4498 H         1 UNK         0.0903 
     63 H63        13.9747  -23.5662  -43.0441 H         1 UNK         0.0903 
     64 H64        13.1066  -24.9220  -42.3217 H         1 UNK         0.0903 
     65 H65        13.7036  -26.8937  -43.1953 H         1 UNK         0.3096 
     66 H66        16.1841  -27.2058  -44.7056 H         1 UNK         0.1121 
     67 H67        15.0198  -29.6427  -44.9745 H         1 UNK         0.0849 
     68 H68        13.6130  -28.7899  -44.4383 H         1 UNK         0.0849 
     69 H69        15.6102  -28.5342  -48.5620 H         1 UNK         0.0865 
     70 H70        14.8415  -29.9262  -47.8544 H         1 UNK         0.0865 
     71 H71        16.2025  -31.4882  -46.7537 H         1 UNK         0.1346 
     72 H72        20.1346  -30.4775  -45.4005 H         1 UNK         0.1412 
     73 H73        17.5972  -27.4540  -47.0830 H         1 UNK         0.1426 
     74 H74        19.8731  -27.2366  -45.0864 H         1 UNK         0.0716 
     75 H75        19.9529  -27.0248  -46.8006 H         1 UNK         0.0716 
     76 H76        23.3985  -28.8787  -44.4616 H         1 UNK         0.0695 
     77 H77        21.9752  -29.8262  -44.1899 H         1 UNK         0.0695 
     78 H78        21.7635  -26.8323  -43.7317 H         1 UNK         0.0983 
     79 H79        20.6017  -29.2256  -42.3628 H         1 UNK         0.3095 
     80 H80        18.5130  -29.1787  -41.6762 H         1 UNK         0.0454 
     81 H81        17.3753  -28.1287  -39.7109 H         1 UNK         0.0851 
     82 H82        18.1769  -26.5941  -40.0460 H         1 UNK         0.0851 
     83 H83        19.1215  -28.0008  -39.5684 H         1 UNK         0.0851 
     84 H84        17.2898  -26.6478  -42.6498 H         1 UNK         0.2976 
     85 H85        21.9530  -25.9945  -41.5545 H         1 UNK         0.3116 
     86 H86        23.3573  -27.1737  -39.4586 H         1 UNK         0.0646 
     87 H87        23.4254  -24.8546  -38.5224 H         1 UNK         0.0847 
     88 H88        21.8475  -25.2281  -39.1926 H         1 UNK         0.0847 
     89 H89        22.9665  -24.1979  -40.0869 H         1 UNK         0.0847 
     90 H90        24.6986  -25.5171  -42.2494 H         1 UNK         0.3040 
     91 H91        27.3444  -25.0565  -41.2458 H         1 UNK         0.1015 
     92 H92        26.4566  -23.9124  -43.2679 H         1 UNK         0.0786 
     93 H93        26.3362  -25.4533  -44.1194 H         1 UNK         0.0786 
     94 H94        27.9096  -24.8111  -43.6696 H         1 UNK         0.0786 
     95 H95        25.7411  -27.9200  -42.5386 H         1 UNK         0.3172 
     96 H96        28.2660  -29.5116  -42.5276 H         1 UNK         0.0595 
     97 H97        25.4521  -30.1721  -43.5594 H         1 UNK         0.0839 
     98 H98        26.8691  -31.2016  -43.6992 H         1 UNK         0.0839 
     99 H99        26.8152  -29.6726  -44.5608 H         1 UNK         0.0839 
    100 H100       25.6335  -28.6818  -40.5667 H         1 UNK         0.2998 
    101 H101       24.6131  -29.3721  -38.7431 H         1 UNK         0.0822 
    102 H102       26.8978  -29.6277  -37.7424 H         1 UNK         0.0787 
    103 H103       25.7565  -30.7842  -37.0766 H         1 UNK         0.0787 
    104 H104       26.9390  -31.3120  -38.2634 H         1 UNK         0.0787 
    105 H105       23.7189  -30.3321  -41.1435 H         1 UNK         0.3055 
    106 H106       22.9566  -33.1970  -40.6851 H         1 UNK         0.1106 
    107 H107       22.8206  -33.2972  -43.1808 H         1 UNK         0.0828 
    108 H108       23.3320  -31.6197  -43.2953 H         1 UNK         0.0828 
    109 H109       24.4377  -32.8388  -42.6686 H         1 UNK         0.0828 
    110 H110       20.8551  -33.8022  -41.2317 H         1 UNK         0.2931 
    111 H111       18.7053  -33.7682  -41.5315 H         1 UNK         0.0412 
    112 H112       18.3577  -31.2697  -38.4983 H         1 UNK         0.3472 
    113 H113       19.8929  -31.7390  -39.1875 H         1 UNK         0.3472 
    114 H114       17.6087  -32.1824  -43.0601 H         1 UNK         0.0970 
    115 H115       18.9302  -31.0582  -42.9288 H         1 UNK         0.0970 
    116 H116       18.7508  -33.1358  -46.5483 H         1 UNK         0.0612 
    117 H117       17.4237  -33.0705  -45.4137 H         1 UNK         0.0612 
@<TRIPOS>BOND
     1    1    2 1    
     2    1   62 1    
     3    1   63 1    
     4    1   64 1    
     5    2    3 2    
     6    2    4 am   BACKBONE|DICT|INTERRES
     7    4    5 1    
     8    4   65 1    
     9    5    6 1    
    10    5   25 1    
    11    5   66 1    
    12    6    7 1    
    13    6   67 1    
    14    6   68 1    
    15    7    8 1    
    16    8    9 1    
    17    8   69 1    
    18    8   70 1    
    19    9   10 ar   
    20    9   14 ar   
    21   10   11 ar   
    22   10   71 1    
    23   11   12 ar   
    24   11   61 1    
    25   12   13 ar   
    26   12   72 1    
    27   13   14 ar   
    28   13   15 1    
    29   14   73 1    
    30   15   16 1    
    31   15   74 1    
    32   15   75 1    
    33   16   17 1    
    34   17   18 1    
    35   17   76 1    
    36   17   77 1    
    37   18   19 1    
    38   18   27 1    
    39   18   78 1    
    40   19   20 am   BACKBONE|DICT|INTERRES
    41   19   79 1    
    42   20   21 2    
    43   20   22 1    
    44   22   23 1    
    45   22   24 1    
    46   22   80 1    
    47   23   81 1    
    48   23   82 1    
    49   23   83 1    
    50   24   25 am   BACKBONE|DICT|INTERRES
    51   24   84 1    
    52   25   26 2    
    53   27   28 2    
    54   27   29 am   BACKBONE|DICT|INTERRES
    55   29   30 1    
    56   29   85 1    
    57   30   31 1    
    58   30   32 1    
    59   30   86 1    
    60   31   87 1    
    61   31   88 1    
    62   31   89 1    
    63   32   33 2    
    64   32   34 am   BACKBONE|DICT|INTERRES
    65   34   35 1    
    66   34   90 1    
    67   35   36 1    
    68   35   37 1    
    69   35   91 1    
    70   36   92 1    
    71   36   93 1    
    72   36   94 1    
    73   37   38 2    
    74   37   39 am   BACKBONE|DICT|INTERRES
    75   39   40 1    
    76   39   95 1    
    77   40   41 1    
    78   40   42 1    
    79   40   96 1    
    80   41   97 1    
    81   41   98 1    
    82   41   99 1    
    83   42   43 2    
    84   42   44 am   BACKBONE|DICT|INTERRES
    85   44   45 1    
    86   44  100 1    
    87   45   46 1    
    88   45   47 1    
    89   45  101 1    
    90   46  102 1    
    91   46  103 1    
    92   46  104 1    
    93   47   48 2    
    94   47   49 am   BACKBONE|DICT|INTERRES
    95   49   50 1    
    96   49  105 1    
    97   50   51 1    
    98   50   52 1    
    99   50  106 1    
   100   51  107 1    
   101   51  108 1    
   102   51  109 1    
   103   52   53 2    
   104   52   54 am   BACKBONE|DICT|INTERRES
   105   54   55 1    
   106   54  110 1    
   107   55   56 1    
   108   55   59 1    
   109   55  111 1    
   110   56   57 am   BACKBONE|DICT|INTERRES
   111   56   58 2    
   112   57  112 1    
   113   57  113 1    
   114   59   60 1    
   115   59  114 1    
   116   59  115 1    
   117   60   61 1    
   118   61  116 1    
   119   61  117 1    
@<TRIPOS>SUBSTRUCTURE
     1 UNK         1 GROUP             0       ****    0 ROOT    
