@<TRIPOS>MOLECULE
3R8
117   119    1
SMALL
USER_CHARGES


@<TRIPOS>ATOM
      1 CA         15.8465  -26.0835  -46.5843 C.3       0 UNK        -0.2013 
      2 C          17.3081  -25.9342  -46.9764 C.2       0 UNK         0.4866 
      3 O          17.6434  -25.0601  -47.7752 O.2       0 UNK        -0.5176 
      4 N          18.1858  -26.7727  -46.4132 N.am      1 UNK        -0.4884 
      5 CA         19.6178  -26.8517  -46.7442 C.3       1 UNK         0.0853 
      6 C6         20.1536  -28.3108  -46.6807 C.3       10 UNK        -0.0849 
      7 S7         19.0775  -29.5402  -47.5004 S.3       10 UNK        -0.2776 
      8 C8         19.1072  -30.9345  -46.3171 C.3       10 UNK         0.0316 
      9 C9         18.7062  -30.5524  -44.8933 C.ar      10 UNK        -0.0863 
     10 C10        19.5208  -30.9269  -43.8189 C.ar      10 UNK        -0.1009 
     11 C11        19.1694  -30.5929  -42.5075 C.ar      10 UNK        -0.0712 
     12 C12        17.9952  -29.8761  -42.2726 C.ar      10 UNK        -0.0894 
     13 C13        17.1834  -29.4744  -43.3366 C.ar      10 UNK        -0.0745 
     14 C14        17.5324  -29.8325  -44.6429 C.ar      10 UNK        -0.0972 
     15 C15        15.9360  -28.6457  -43.0736 C.3       10 UNK         0.0209 
     16 S16        16.3101  -26.8626  -43.0779 S.3       10 UNK        -0.2568 
     17 C17        17.1389  -26.6326  -41.4657 C.3       10 UNK        -0.0983 
     18 CA         18.6777  -26.4799  -41.5861 C.3       3 UNK         0.0876 
     19 N          19.0283  -25.3845  -42.5017 N.am      3 UNK        -0.4424 
     20 C          20.2514  -24.9949  -42.8856 C.2       2 UNK         0.4918 
     21 O          21.2986  -25.3665  -42.3580 O.2       2 UNK        -0.4875 
     22 CA         20.2777  -24.0850  -44.1258 C.3       2 UNK         0.0481 
     23 CB         21.6381  -23.3901  -44.3502 C.3       2 UNK        -0.1831 
     24 N          19.8434  -24.8641  -45.2932 N.am      2 UNK        -0.4498 
     25 C          20.4651  -25.9215  -45.8432 C.2       1 UNK         0.5027 
     26 O          21.6418  -26.2108  -45.6233 O.2       1 UNK        -0.4969 
     27 C          19.3175  -26.4274  -40.1805 C.2       3 UNK         0.5005 
     28 O          19.3435  -27.4540  -39.5000 O.2       3 UNK        -0.5279 
     29 N          19.8141  -25.2553  -39.7607 N.am      4 UNK        -0.4463 
     30 CA         20.5818  -25.0719  -38.5269 C.3       4 UNK         0.0283 
     31 CB         20.6867  -23.5697  -38.2173 C.3       4 UNK        -0.1875 
     32 C          21.9858  -25.7075  -38.5800 C.2       4 UNK         0.4949 
     33 O          22.5331  -26.0295  -37.5247 O.2       4 UNK        -0.5039 
     34 N          22.5501  -25.8657  -39.7851 N.am      5 UNK        -0.4663 
     35 CA         23.8450  -26.5021  -40.0203 C.3       5 UNK         0.0242 
     36 CB         24.5040  -25.8445  -41.2449 C.3       5 UNK        -0.1982 
     37 C          23.6762  -28.0095  -40.2594 C.2       5 UNK         0.5017 
     38 O          22.6202  -28.4563  -40.7161 O.2       5 UNK        -0.5012 
     39 N          24.7521  -28.7675  -40.0129 N.am      6 UNK        -0.4439 
     40 CA         24.8547  -30.2078  -40.2673 C.3       6 UNK         0.0297 
     41 CB         25.9687  -30.7926  -39.3790 C.3       6 UNK        -0.2006 
     42 C          25.0716  -30.5082  -41.7652 C.2       6 UNK         0.4892 
     43 O          26.0835  -31.1012  -42.1417 O.2       6 UNK        -0.5089 
     44 N          24.1167  -30.0731  -42.5975 N.am      7 UNK        -0.4243 
     45 CA         24.1200  -30.2237  -44.0574 C.3       7 UNK         0.0196 
     46 CB         23.0622  -29.2785  -44.6471 C.3       7 UNK        -0.2007 
     47 C          23.8798  -31.6683  -44.5368 C.2       7 UNK         0.5020 
     48 O          24.1975  -31.9884  -45.6820 O.2       7 UNK        -0.5147 
     49 N          23.3291  -32.5058  -43.6533 N.am      8 UNK        -0.4734 
     50 CA         23.0880  -33.9389  -43.8350 C.3       8 UNK         0.0238 
     51 CB         21.9154  -34.1929  -44.8031 C.3       8 UNK        -0.1912 
     52 C          22.8190  -34.5868  -42.4707 C.2       8 UNK         0.5038 
     53 O          23.2680  -35.7066  -42.2270 O.2       8 UNK        -0.5046 
     54 N          22.0988  -33.8492  -41.6146 N.am      9 UNK        -0.4200 
     55 CA         21.7544  -34.1684  -40.2232 C.3       9 UNK         0.0839 
     56 C          22.9919  -34.4862  -39.3408 C.2       9 UNK         0.5513 
     57 N          22.8945  -35.4771  -38.4657 N.am      9 UNK        -0.7519 
     58 O          24.0145  -33.8087  -39.4122 O.2       9 UNK        -0.4960 
     59 C59        20.9305  -33.0160  -39.5868 C.3       10 UNK        -0.0876 
     60 S60        19.4775  -32.5477  -40.5894 S.3       10 UNK        -0.2414 
     61 C61        20.0584  -30.9955  -41.3427 C.3       10 UNK         0.0169 
     62 H62        15.5525  -25.2791  -45.9107 H         1 UNK         0.0903 
     63 H63        15.2124  -26.0372  -47.4692 H         1 UNK         0.0903 
     64 H64        15.6564  -27.0343  -46.0870 H         1 UNK         0.0903 
     65 H65        17.8650  -27.4516  -45.7371 H         1 UNK         0.3096 
     66 H66        19.7613  -26.4999  -47.7684 H         1 UNK         0.1121 
     67 H67        21.1384  -28.3693  -47.1477 H         1 UNK         0.0849 
     68 H68        20.3023  -28.6038  -45.6413 H         1 UNK         0.0849 
     69 H69        20.1076  -31.3708  -46.3301 H         1 UNK         0.0865 
     70 H70        18.4311  -31.7124  -46.6738 H         1 UNK         0.0865 
     71 H71        20.4309  -31.4799  -44.0023 H         1 UNK         0.1346 
     72 H72        17.7261  -29.6170  -41.2580 H         1 UNK         0.1412 
     73 H73        16.8976  -29.5409  -45.4686 H         1 UNK         0.1426 
     74 H74        15.4776  -28.9294  -42.1250 H         1 UNK         0.0716 
     75 H75        15.1887  -28.8480  -43.8424 H         1 UNK         0.0716 
     76 H76        16.8766  -27.4638  -40.8091 H         1 UNK         0.0695 
     77 H77        16.7108  -25.7435  -40.9987 H         1 UNK         0.0695 
     78 H78        19.0767  -27.3833  -42.0499 H         1 UNK         0.0983 
     79 H79        18.2395  -25.0076  -43.0067 H         1 UNK         0.3095 
     80 H80        19.5319  -23.3031  -43.9744 H         1 UNK         0.0454 
     81 H81        21.6302  -22.7864  -45.2572 H         1 UNK         0.0851 
     82 H82        22.4622  -24.0996  -44.4268 H         1 UNK         0.0851 
     83 H83        21.8702  -22.7248  -43.5180 H         1 UNK         0.0851 
     84 H84        18.8887  -24.7112  -45.5883 H         1 UNK         0.2976 
     85 H85        19.7519  -24.4640  -40.3846 H         1 UNK         0.3116 
     86 H86        20.0351  -25.5503  -37.7114 H         1 UNK         0.0646 
     87 H87        21.2282  -23.4012  -37.2853 H         1 UNK         0.0847 
     88 H88        19.7018  -23.1166  -38.1033 H         1 UNK         0.0847 
     89 H89        21.2177  -23.0309  -39.0032 H         1 UNK         0.0847 
     90 H90        22.0097  -25.6471  -40.6189 H         1 UNK         0.3040 
     91 H91        24.4904  -26.3509  -39.1518 H         1 UNK         0.1015 
     92 H92        24.6104  -24.7682  -41.1081 H         1 UNK         0.0786 
     93 H93        23.9229  -26.0094  -42.1536 H         1 UNK         0.0786 
     94 H94        25.5018  -26.2486  -41.4204 H         1 UNK         0.0786 
     95 H95        25.5937  -28.3149  -39.6848 H         1 UNK         0.3172 
     96 H96        23.9166  -30.6850  -39.9748 H         1 UNK         0.0595 
     97 H97        26.9424  -30.3580  -39.6084 H         1 UNK         0.0839 
     98 H98        26.0522  -31.8713  -39.5194 H         1 UNK         0.0839 
     99 H99        25.7639  -30.6232  -38.3219 H         1 UNK         0.0839 
    100 H100       23.3507  -29.5456  -42.1873 H         1 UNK         0.2998 
    101 H101       25.1005  -29.9182  -44.4288 H         1 UNK         0.0822 
    102 H102       22.0657  -29.5050  -44.2685 H         1 UNK         0.0787 
    103 H103       23.2797  -28.2375  -44.4055 H         1 UNK         0.0787 
    104 H104       23.0274  -29.3561  -45.7345 H         1 UNK         0.0787 
    105 H105       23.2119  -32.1553  -42.7143 H         1 UNK         0.3055 
    106 H106       23.9936  -34.3913  -44.2457 H         1 UNK         0.1106 
    107 H107       21.7508  -35.2627  -44.9377 H         1 UNK         0.0828 
    108 H108       20.9824  -33.7663  -44.4347 H         1 UNK         0.0828 
    109 H109       22.1090  -33.7732  -45.7901 H         1 UNK         0.0828 
    110 H110       21.6900  -32.9956  -41.9567 H         1 UNK         0.2931 
    111 H111       21.1232  -35.0586  -40.2598 H         1 UNK         0.0412 
    112 H112       23.6828  -35.6854  -37.8724 H         1 UNK         0.3472 
    113 H113       22.0538  -36.0296  -38.3934 H         1 UNK         0.3472 
    114 H114       21.5549  -32.1355  -39.4196 H         1 UNK         0.0970 
    115 H115       20.5697  -33.3154  -38.6009 H         1 UNK         0.0970 
    116 H116       20.0674  -30.2072  -40.5874 H         1 UNK         0.0612 
    117 H117       21.0891  -31.1023  -41.6820 H         1 UNK         0.0612 
@<TRIPOS>BOND
     1    1    2 1    
     2    1   62 1    
     3    1   63 1    
     4    1   64 1    
     5    2    3 2    
     6    2    4 am   BACKBONE|DICT|INTERRES
     7    4    5 1    
     8    4   65 1    
     9    5    6 1    
    10    5   25 1    
    11    5   66 1    
    12    6    7 1    
    13    6   67 1    
    14    6   68 1    
    15    7    8 1    
    16    8    9 1    
    17    8   69 1    
    18    8   70 1    
    19    9   10 ar   
    20    9   14 ar   
    21   10   11 ar   
    22   10   71 1    
    23   11   12 ar   
    24   11   61 1    
    25   12   13 ar   
    26   12   72 1    
    27   13   14 ar   
    28   13   15 1    
    29   14   73 1    
    30   15   16 1    
    31   15   74 1    
    32   15   75 1    
    33   16   17 1    
    34   17   18 1    
    35   17   76 1    
    36   17   77 1    
    37   18   19 1    
    38   18   27 1    
    39   18   78 1    
    40   19   20 am   BACKBONE|DICT|INTERRES
    41   19   79 1    
    42   20   21 2    
    43   20   22 1    
    44   22   23 1    
    45   22   24 1    
    46   22   80 1    
    47   23   81 1    
    48   23   82 1    
    49   23   83 1    
    50   24   25 am   BACKBONE|DICT|INTERRES
    51   24   84 1    
    52   25   26 2    
    53   27   28 2    
    54   27   29 am   BACKBONE|DICT|INTERRES
    55   29   30 1    
    56   29   85 1    
    57   30   31 1    
    58   30   32 1    
    59   30   86 1    
    60   31   87 1    
    61   31   88 1    
    62   31   89 1    
    63   32   33 2    
    64   32   34 am   BACKBONE|DICT|INTERRES
    65   34   35 1    
    66   34   90 1    
    67   35   36 1    
    68   35   37 1    
    69   35   91 1    
    70   36   92 1    
    71   36   93 1    
    72   36   94 1    
    73   37   38 2    
    74   37   39 am   BACKBONE|DICT|INTERRES
    75   39   40 1    
    76   39   95 1    
    77   40   41 1    
    78   40   42 1    
    79   40   96 1    
    80   41   97 1    
    81   41   98 1    
    82   41   99 1    
    83   42   43 2    
    84   42   44 am   BACKBONE|DICT|INTERRES
    85   44   45 1    
    86   44  100 1    
    87   45   46 1    
    88   45   47 1    
    89   45  101 1    
    90   46  102 1    
    91   46  103 1    
    92   46  104 1    
    93   47   48 2    
    94   47   49 am   BACKBONE|DICT|INTERRES
    95   49   50 1    
    96   49  105 1    
    97   50   51 1    
    98   50   52 1    
    99   50  106 1    
   100   51  107 1    
   101   51  108 1    
   102   51  109 1    
   103   52   53 2    
   104   52   54 am   BACKBONE|DICT|INTERRES
   105   54   55 1    
   106   54  110 1    
   107   55   56 1    
   108   55   59 1    
   109   55  111 1    
   110   56   57 am   BACKBONE|DICT|INTERRES
   111   56   58 2    
   112   57  112 1    
   113   57  113 1    
   114   59   60 1    
   115   59  114 1    
   116   59  115 1    
   117   60   61 1    
   118   61  116 1    
   119   61  117 1    
@<TRIPOS>SUBSTRUCTURE
     1 UNK         1 GROUP             0       ****    0 ROOT    
