@<TRIPOS>MOLECULE
3R8
117   119    1
SMALL
USER_CHARGES


@<TRIPOS>ATOM
      1 CA         17.2730  -27.9463  -49.6651 C.3       0 UNK        -0.2013 
      2 C          17.7452  -28.1611  -48.2348 C.2       0 UNK         0.4866 
      3 O          18.5763  -29.0357  -47.9899 O.2       0 UNK        -0.5176 
      4 N          17.2137  -27.3772  -47.2892 N.am      1 UNK        -0.4884 
      5 CA         17.5820  -27.4115  -45.8703 C.3       1 UNK         0.0853 
      6 C6         16.5344  -26.6779  -44.9953 C.3       10 UNK        -0.0849 
      7 S7         14.8308  -27.3485  -45.0733 S.3       10 UNK        -0.2776 
      8 C8         14.9932  -29.1401  -44.7201 C.3       10 UNK         0.0316 
      9 C9         16.0202  -29.4788  -43.6439 C.ar      10 UNK        -0.0863 
     10 C10        16.9615  -30.4833  -43.8781 C.ar      10 UNK        -0.1009 
     11 C11        17.9773  -30.7386  -42.9541 C.ar      10 UNK        -0.0712 
     12 C12        18.0545  -29.9765  -41.7830 C.ar      10 UNK        -0.0894 
     13 C13        17.1006  -28.9853  -41.5241 C.ar      10 UNK        -0.0745 
     14 C14        16.0653  -28.7724  -42.4401 C.ar      10 UNK        -0.0972 
     15 C15        17.1900  -28.1146  -40.2780 C.3       10 UNK         0.0209 
     16 S16        17.2810  -26.3499  -40.7342 S.3       10 UNK        -0.2568 
     17 C17        18.8015  -25.7759  -39.9126 C.3       10 UNK        -0.0983 
     18 CA         20.1191  -26.3727  -40.4723 C.3       3 UNK         0.0876 
     19 N          20.1686  -26.3960  -41.9412 N.am      3 UNK        -0.4424 
     20 C          21.1944  -26.8513  -42.6766 C.2       2 UNK         0.4918 
     21 O          22.2436  -27.2754  -42.1898 O.2       2 UNK        -0.4875 
     22 CA         21.0162  -26.8380  -44.2033 C.3       2 UNK         0.0481 
     23 CB         22.0738  -27.6922  -44.9310 C.3       2 UNK        -0.1831 
     24 N          19.6709  -27.2795  -44.5831 N.am      2 UNK        -0.4498 
     25 C          18.9840  -26.8094  -45.6336 C.2       1 UNK         0.5027 
     26 O          19.3969  -25.9135  -46.3757 O.2       1 UNK        -0.4969 
     27 C          21.3228  -25.6215  -39.8648 C.2       3 UNK         0.5005 
     28 O          21.6891  -24.5559  -40.3680 O.2       3 UNK        -0.5279 
     29 N          21.9234  -26.2010  -38.8156 N.am      4 UNK        -0.4463 
     30 CA         23.1316  -25.7694  -38.0931 C.3       4 UNK         0.0283 
     31 CB         22.9454  -24.3816  -37.4489 C.3       4 UNK        -0.1875 
     32 C          24.4363  -25.8266  -38.9141 C.2       4 UNK         0.4949 
     33 O          25.4605  -26.2395  -38.3710 O.2       4 UNK        -0.5039 
     34 N          24.3867  -25.4264  -40.1910 N.am      5 UNK        -0.4663 
     35 CA         25.5083  -25.4334  -41.1340 C.3       5 UNK         0.0242 
     36 CB         25.1022  -24.6809  -42.4120 C.3       5 UNK        -0.1982 
     37 C          25.9961  -26.8516  -41.4709 C.2       5 UNK         0.5017 
     38 O          27.2031  -27.0964  -41.4681 O.2       5 UNK        -0.5012 
     39 N          25.0479  -27.7562  -41.7333 N.am      6 UNK        -0.4439 
     40 CA         25.2682  -29.1731  -41.9998 C.3       6 UNK         0.0297 
     41 CB         25.6931  -29.3858  -43.4672 C.3       6 UNK        -0.2006 
     42 C          23.9699  -29.8985  -41.6372 C.2       6 UNK         0.4892 
     43 O          23.2974  -30.4309  -42.5178 O.2       6 UNK        -0.5089 
     44 N          23.6148  -29.8463  -40.3451 N.am      7 UNK        -0.4243 
     45 CA         22.3066  -30.2191  -39.7895 C.3       7 UNK         0.0196 
     46 CB         22.3182  -29.9535  -38.2751 C.3       7 UNK        -0.2007 
     47 C          21.8310  -31.6574  -40.0679 C.2       7 UNK         0.5020 
     48 O          20.6277  -31.9062  -40.0065 O.2       7 UNK        -0.5147 
     49 N          22.7616  -32.5749  -40.3576 N.am      8 UNK        -0.4734 
     50 CA         22.4621  -33.9502  -40.7657 C.3       8 UNK         0.0238 
     51 CB         23.6663  -34.8434  -40.4235 C.3       8 UNK        -0.1912 
     52 C          22.1108  -34.0787  -42.2611 C.2       8 UNK         0.5038 
     53 O          21.5229  -35.0916  -42.6437 O.2       8 UNK        -0.5046 
     54 N          22.4847  -33.0786  -43.0730 N.am      9 UNK        -0.4200 
     55 CA         22.3831  -33.0457  -44.5408 C.3       9 UNK         0.0839 
     56 C          23.1633  -34.2056  -45.2374 C.2       9 UNK         0.5513 
     57 N          22.8314  -34.5627  -46.4718 N.am      9 UNK        -0.7519 
     58 O          24.1195  -34.7530  -44.6908 O.2       9 UNK        -0.4960 
     59 C59        20.9181  -32.8606  -45.0306 C.3       10 UNK        -0.0876 
     60 S60        20.1979  -31.2736  -44.4858 S.3       10 UNK        -0.2414 
     61 C61        18.9896  -31.8323  -43.2501 C.3       10 UNK         0.0169 
     62 H62        16.5263  -27.1554  -49.7341 H         1 UNK         0.0903 
     63 H63        18.1150  -27.6739  -50.3007 H         1 UNK         0.0903 
     64 H64        16.8327  -28.8629  -50.0565 H         1 UNK         0.0903 
     65 H65        16.5430  -26.6675  -47.5473 H         1 UNK         0.3096 
     66 H66        17.6347  -28.4588  -45.5748 H         1 UNK         0.1121 
     67 H67        16.4810  -25.6263  -45.2843 H         1 UNK         0.0849 
     68 H68        16.8448  -26.6692  -43.9496 H         1 UNK         0.0849 
     69 H69        14.0209  -29.5294  -44.4157 H         1 UNK         0.0865 
     70 H70        15.2431  -29.6437  -45.6555 H         1 UNK         0.0865 
     71 H71        16.9281  -31.0515  -44.7983 H         1 UNK         0.1346 
     72 H72        18.8555  -30.1565  -41.0790 H         1 UNK         0.1412 
     73 H73        15.3324  -28.0005  -42.2471 H         1 UNK         0.1426 
     74 H74        18.0457  -28.3971  -39.6639 H         1 UNK         0.0716 
     75 H75        16.3033  -28.2768  -39.6638 H         1 UNK         0.0716 
     76 H76        18.7139  -25.9822  -38.8441 H         1 UNK         0.0695 
     77 H77        18.8080  -24.6878  -40.0078 H         1 UNK         0.0695 
     78 H78        20.1801  -27.4160  -40.1583 H         1 UNK         0.0983 
     79 H79        19.3503  -26.0390  -42.4113 H         1 UNK         0.3095 
     80 H80        21.1550  -25.7982  -44.5056 H         1 UNK         0.0454 
     81 H81        21.9397  -27.6605  -46.0120 H         1 UNK         0.0851 
     82 H82        22.0300  -28.7361  -44.6167 H         1 UNK         0.0851 
     83 H83        23.0810  -27.3314  -44.7198 H         1 UNK         0.0851 
     84 H84        19.2682  -28.0099  -44.0094 H         1 UNK         0.2976 
     85 H85        21.5351  -27.0733  -38.4861 H         1 UNK         0.3116 
     86 H86        23.2514  -26.4862  -37.2789 H         1 UNK         0.0646 
     87 H87        22.8474  -23.5921  -38.1943 H         1 UNK         0.0847 
     88 H88        23.8019  -24.1271  -36.8232 H         1 UNK         0.0847 
     89 H89        22.0609  -24.3542  -36.8127 H         1 UNK         0.0847 
     90 H90        23.4917  -25.0815  -40.5304 H         1 UNK         0.3040 
     91 H91        26.3403  -24.8997  -40.6693 H         1 UNK         0.1015 
     92 H92        24.2458  -25.1471  -42.9015 H         1 UNK         0.0786 
     93 H93        25.9214  -24.6632  -43.1322 H         1 UNK         0.0786 
     94 H94        24.8397  -23.6453  -42.1948 H         1 UNK         0.0786 
     95 H95        24.0704  -27.4648  -41.7375 H         1 UNK         0.3172 
     96 H96        26.0553  -29.5520  -41.3445 H         1 UNK         0.0595 
     97 H97        24.9448  -29.0025  -44.1617 H         1 UNK         0.0839 
     98 H98        25.8272  -30.4463  -43.6841 H         1 UNK         0.0839 
     99 H99        26.6380  -28.8885  -43.6853 H         1 UNK         0.0839 
    100 H100       24.2537  -29.3948  -39.7064 H         1 UNK         0.2998 
    101 H101       21.5734  -29.5546  -40.2511 H         1 UNK         0.0822 
    102 H102       22.5966  -28.9260  -38.0463 H         1 UNK         0.0787 
    103 H103       21.3332  -30.1284  -37.8394 H         1 UNK         0.0787 
    104 H104       23.0215  -30.6095  -37.7603 H         1 UNK         0.0787 
    105 H105       23.7292  -32.2869  -40.3757 H         1 UNK         0.3055 
    106 H106       21.5998  -34.3099  -40.1991 H         1 UNK         0.1106 
    107 H107       23.4655  -35.8842  -40.6815 H         1 UNK         0.0828 
    108 H108       24.5617  -34.5412  -40.9683 H         1 UNK         0.0828 
    109 H109       23.8933  -34.8140  -39.3576 H         1 UNK         0.0828 
    110 H110       22.8987  -32.2438  -42.6677 H         1 UNK         0.2931 
    111 H111       22.9328  -32.1501  -44.8329 H         1 UNK         0.0412 
    112 H112       23.3554  -35.2968  -46.9228 H         1 UNK         0.3472 
    113 H113       22.0753  -34.1154  -46.9647 H         1 UNK         0.3472 
    114 H114       20.2965  -33.6986  -44.7121 H         1 UNK         0.0970 
    115 H115       20.8689  -32.8476  -46.1196 H         1 UNK         0.0970 
    116 H116       19.5131  -32.1406  -42.3459 H         1 UNK         0.0612 
    117 H117       18.4624  -32.7130  -43.6194 H         1 UNK         0.0612 
@<TRIPOS>BOND
     1    1    2 1    
     2    1   62 1    
     3    1   63 1    
     4    1   64 1    
     5    2    3 2    
     6    2    4 am   BACKBONE|DICT|INTERRES
     7    4    5 1    
     8    4   65 1    
     9    5    6 1    
    10    5   25 1    
    11    5   66 1    
    12    6    7 1    
    13    6   67 1    
    14    6   68 1    
    15    7    8 1    
    16    8    9 1    
    17    8   69 1    
    18    8   70 1    
    19    9   10 ar   
    20    9   14 ar   
    21   10   11 ar   
    22   10   71 1    
    23   11   12 ar   
    24   11   61 1    
    25   12   13 ar   
    26   12   72 1    
    27   13   14 ar   
    28   13   15 1    
    29   14   73 1    
    30   15   16 1    
    31   15   74 1    
    32   15   75 1    
    33   16   17 1    
    34   17   18 1    
    35   17   76 1    
    36   17   77 1    
    37   18   19 1    
    38   18   27 1    
    39   18   78 1    
    40   19   20 am   BACKBONE|DICT|INTERRES
    41   19   79 1    
    42   20   21 2    
    43   20   22 1    
    44   22   23 1    
    45   22   24 1    
    46   22   80 1    
    47   23   81 1    
    48   23   82 1    
    49   23   83 1    
    50   24   25 am   BACKBONE|DICT|INTERRES
    51   24   84 1    
    52   25   26 2    
    53   27   28 2    
    54   27   29 am   BACKBONE|DICT|INTERRES
    55   29   30 1    
    56   29   85 1    
    57   30   31 1    
    58   30   32 1    
    59   30   86 1    
    60   31   87 1    
    61   31   88 1    
    62   31   89 1    
    63   32   33 2    
    64   32   34 am   BACKBONE|DICT|INTERRES
    65   34   35 1    
    66   34   90 1    
    67   35   36 1    
    68   35   37 1    
    69   35   91 1    
    70   36   92 1    
    71   36   93 1    
    72   36   94 1    
    73   37   38 2    
    74   37   39 am   BACKBONE|DICT|INTERRES
    75   39   40 1    
    76   39   95 1    
    77   40   41 1    
    78   40   42 1    
    79   40   96 1    
    80   41   97 1    
    81   41   98 1    
    82   41   99 1    
    83   42   43 2    
    84   42   44 am   BACKBONE|DICT|INTERRES
    85   44   45 1    
    86   44  100 1    
    87   45   46 1    
    88   45   47 1    
    89   45  101 1    
    90   46  102 1    
    91   46  103 1    
    92   46  104 1    
    93   47   48 2    
    94   47   49 am   BACKBONE|DICT|INTERRES
    95   49   50 1    
    96   49  105 1    
    97   50   51 1    
    98   50   52 1    
    99   50  106 1    
   100   51  107 1    
   101   51  108 1    
   102   51  109 1    
   103   52   53 2    
   104   52   54 am   BACKBONE|DICT|INTERRES
   105   54   55 1    
   106   54  110 1    
   107   55   56 1    
   108   55   59 1    
   109   55  111 1    
   110   56   57 am   BACKBONE|DICT|INTERRES
   111   56   58 2    
   112   57  112 1    
   113   57  113 1    
   114   59   60 1    
   115   59  114 1    
   116   59  115 1    
   117   60   61 1    
   118   61  116 1    
   119   61  117 1    
@<TRIPOS>SUBSTRUCTURE
     1 UNK         1 GROUP             0       ****    0 ROOT    
