@<TRIPOS>MOLECULE
3R8
117   119    1
SMALL
USER_CHARGES


@<TRIPOS>ATOM
      1 CA         18.2819  -25.9108  -49.1566 C.3       0 UNK        -0.2013 
      2 C          18.4350  -26.4114  -47.7287 C.2       0 UNK         0.4866 
      3 O          19.4992  -26.9129  -47.3641 O.2       0 UNK        -0.5176 
      4 N          17.3871  -26.2685  -46.9075 N.am      1 UNK        -0.4884 
      5 CA         17.3260  -26.7130  -45.5075 C.3       1 UNK         0.0853 
      6 C6         15.8674  -26.9916  -45.0606 C.3       10 UNK        -0.0849 
      7 S7         15.1759  -28.4279  -45.9491 S.3       10 UNK        -0.2776 
      8 C8         15.0735  -29.6859  -44.6289 C.3       10 UNK         0.0316 
      9 C9         16.3881  -29.9007  -43.8830 C.ar      10 UNK        -0.0863 
     10 C10        17.5516  -30.2581  -44.5722 C.ar      10 UNK        -0.1009 
     11 C11        18.7483  -30.4688  -43.8815 C.ar      10 UNK        -0.0712 
     12 C12        18.7739  -30.3369  -42.4907 C.ar      10 UNK        -0.0894 
     13 C13        17.6173  -29.9925  -41.7842 C.ar      10 UNK        -0.0745 
     14 C14        16.4305  -29.7694  -42.4903 C.ar      10 UNK        -0.0972 
     15 C15        17.6147  -29.9118  -40.2582 C.3       10 UNK         0.0209 
     16 S16        19.0738  -29.0831  -39.5390 S.3       10 UNK        -0.2568 
     17 C17        18.8987  -27.3854  -40.1813 C.3       10 UNK        -0.0983 
     18 CA         20.2009  -26.9084  -40.8722 C.3       3 UNK         0.0876 
     19 N          19.9147  -26.0231  -42.0015 N.am      3 UNK        -0.4424 
     20 C          20.8190  -25.5971  -42.8899 C.2       2 UNK         0.4918 
     21 O          22.0094  -25.9091  -42.8485 O.2       2 UNK        -0.4875 
     22 CA         20.2857  -24.7214  -44.0380 C.3       2 UNK         0.0481 
     23 CB         21.4121  -24.1786  -44.9364 C.3       2 UNK        -0.1831 
     24 N          19.3469  -25.4826  -44.8621 N.am      2 UNK        -0.4498 
     25 C          18.0693  -25.7459  -44.5608 C.2       1 UNK         0.5027 
     26 O          17.5011  -25.2744  -43.5729 O.2       1 UNK        -0.4969 
     27 C          21.1760  -26.2531  -39.8701 C.2       3 UNK         0.5005 
     28 O          21.1625  -25.0299  -39.7110 O.2       3 UNK        -0.5279 
     29 N          22.0184  -27.0814  -39.2410 N.am      4 UNK        -0.4463 
     30 CA         23.1265  -26.7578  -38.3312 C.3       4 UNK         0.0283 
     31 CB         22.7198  -25.8035  -37.1907 C.3       4 UNK        -0.1875 
     32 C          24.3896  -26.2760  -39.0645 C.2       4 UNK         0.4949 
     33 O          25.4891  -26.6087  -38.6217 O.2       4 UNK        -0.5039 
     34 N          24.2330  -25.5646  -40.1912 N.am      5 UNK        -0.4663 
     35 CA         25.3010  -25.3605  -41.1747 C.3       5 UNK         0.0242 
     36 CB         24.9610  -24.1855  -42.1065 C.3       5 UNK        -0.1982 
     37 C          25.5397  -26.6661  -41.9515 C.2       5 UNK         0.5017 
     38 O          26.6694  -27.1547  -41.9905 O.2       5 UNK        -0.5012 
     39 N          24.4524  -27.2473  -42.4767 N.am      6 UNK        -0.4439 
     40 CA         24.3744  -28.6471  -42.8801 C.3       6 UNK         0.0297 
     41 CB         23.2712  -28.8197  -43.9370 C.3       6 UNK        -0.2006 
     42 C          24.0675  -29.4845  -41.6309 C.2       6 UNK         0.4892 
     43 O          23.0504  -29.2449  -40.9718 O.2       6 UNK        -0.5089 
     44 N          24.9443  -30.4467  -41.3229 N.am      7 UNK        -0.4243 
     45 CA         24.8627  -31.3201  -40.1489 C.3       7 UNK         0.0196 
     46 CB         26.2667  -31.8752  -39.8444 C.3       7 UNK        -0.2007 
     47 C          23.8130  -32.4322  -40.3336 C.2       7 UNK         0.5020 
     48 O          24.1674  -33.6074  -40.4263 O.2       7 UNK        -0.5147 
     49 N          22.5403  -32.0249  -40.4304 N.am      8 UNK        -0.4734 
     50 CA         21.3246  -32.8372  -40.6047 C.3       8 UNK         0.0238 
     51 CB         21.1552  -33.8408  -39.4445 C.3       8 UNK        -0.1912 
     52 C          21.1802  -33.5263  -41.9793 C.2       8 UNK         0.5038 
     53 O          20.1541  -34.1708  -42.1994 O.2       8 UNK        -0.5046 
     54 N          22.1749  -33.3585  -42.8658 N.am      9 UNK        -0.4200 
     55 CA         22.2920  -33.9089  -44.2289 C.3       9 UNK         0.0839 
     56 C          21.9209  -35.4187  -44.3629 C.2       9 UNK         0.5513 
     57 N          21.1959  -35.8275  -45.3961 N.am      9 UNK        -0.7519 
     58 O          22.3539  -36.2410  -43.5582 O.2       9 UNK        -0.4960 
     59 C59        21.7371  -32.9559  -45.3323 C.3       10 UNK        -0.0876 
     60 S60        19.9571  -32.5721  -45.1991 S.3       10 UNK        -0.2414 
     61 C61        20.0153  -30.8451  -44.6308 C.3       10 UNK         0.0169 
     62 H62        19.0210  -25.1374  -49.3642 H         1 UNK         0.0903 
     63 H63        18.4383  -26.7292  -49.8588 H         1 UNK         0.0903 
     64 H64        17.2921  -25.4924  -49.3386 H         1 UNK         0.0903 
     65 H65        16.5443  -25.8350  -47.2578 H         1 UNK         0.3096 
     66 H66        17.8734  -27.6545  -45.4308 H         1 UNK         0.1121 
     67 H67        15.2342  -26.1215  -45.2423 H         1 UNK         0.0849 
     68 H68        15.8103  -27.1827  -43.9873 H         1 UNK         0.0849 
     69 H69        14.2799  -29.3966  -43.9381 H         1 UNK         0.0865 
     70 H70        14.7608  -30.6333  -45.0698 H         1 UNK         0.0865 
     71 H71        17.5265  -30.3714  -45.6476 H         1 UNK         0.1346 
     72 H72        19.6968  -30.5085  -41.9571 H         1 UNK         0.1412 
     73 H73        15.5297  -29.5111  -41.9500 H         1 UNK         0.1426 
     74 H74        17.5644  -30.9266  -39.8618 H         1 UNK         0.0716 
     75 H75        16.7199  -29.3988  -39.9019 H         1 UNK         0.0716 
     76 H76        18.5964  -26.7194  -39.3705 H         1 UNK         0.0695 
     77 H77        18.0691  -27.3735  -40.8902 H         1 UNK         0.0695 
     78 H78        20.7050  -27.7741  -41.3096 H         1 UNK         0.0983 
     79 H79        18.9553  -25.7205  -42.1200 H         1 UNK         0.3095 
     80 H80        19.7677  -23.8684  -43.5950 H         1 UNK         0.0454 
     81 H81        21.9703  -24.9835  -45.4167 H         1 UNK         0.0851 
     82 H82        22.1234  -23.5891  -44.3567 H         1 UNK         0.0851 
     83 H83        21.0178  -23.5309  -45.7194 H         1 UNK         0.0851 
     84 H84        19.7237  -25.9330  -45.6919 H         1 UNK         0.2976 
     85 H85        22.0008  -28.0534  -39.5336 H         1 UNK         0.3116 
     86 H86        23.3897  -27.7106  -37.8688 H         1 UNK         0.0646 
     87 H87        22.5366  -24.7896  -37.5467 H         1 UNK         0.0847 
     88 H88        23.5120  -25.7390  -36.4439 H         1 UNK         0.0847 
     89 H89        21.8211  -26.1510  -36.6814 H         1 UNK         0.0847 
     90 H90        23.2921  -25.3110  -40.4658 H         1 UNK         0.3040 
     91 H91        26.2238  -25.1119  -40.6453 H         1 UNK         0.1015 
     92 H92        24.0475  -24.3557  -42.6742 H         1 UNK         0.0786 
     93 H93        25.7630  -24.0192  -42.8267 H         1 UNK         0.0786 
     94 H94        24.8352  -23.2604  -41.5437 H         1 UNK         0.0786 
     95 H95        23.5635  -26.7515  -42.4333 H         1 UNK         0.3172 
     96 H96        25.3254  -28.9589  -43.3172 H         1 UNK         0.0595 
     97 H97        23.2328  -29.8497  -44.2922 H         1 UNK         0.0839 
     98 H98        23.4498  -28.1833  -44.8037 H         1 UNK         0.0839 
     99 H99        22.2851  -28.5719  -43.5415 H         1 UNK         0.0839 
    100 H100       25.7423  -30.5842  -41.9269 H         1 UNK         0.2998 
    101 H101       24.5521  -30.7217  -39.2891 H         1 UNK         0.0822 
    102 H102       26.2502  -32.5156  -38.9614 H         1 UNK         0.0787 
    103 H103       26.6564  -32.4701  -40.6716 H         1 UNK         0.0787 
    104 H104       26.9760  -31.0714  -39.6456 H         1 UNK         0.0787 
    105 H105       22.3964  -31.0179  -40.4249 H         1 UNK         0.3055 
    106 H106       20.4913  -32.1370  -40.5384 H         1 UNK         0.1106 
    107 H107       20.1810  -34.3292  -39.4900 H         1 UNK         0.0828 
    108 H108       21.9096  -34.6273  -39.4722 H         1 UNK         0.0828 
    109 H109       21.2207  -33.3443  -38.4764 H         1 UNK         0.0828 
    110 H110       22.9848  -32.8568  -42.5355 H         1 UNK         0.2931 
    111 H111       23.3700  -33.9212  -44.3952 H         1 UNK         0.0412 
    112 H112       20.8113  -35.1617  -46.0481 H         1 UNK         0.3472 
    113 H113       20.9807  -36.8079  -45.4902 H         1 UNK         0.3472 
    114 H114       21.9275  -33.3685  -46.3244 H         1 UNK         0.0970 
    115 H115       22.3036  -32.0242  -45.3157 H         1 UNK         0.0970 
    116 H116       20.8808  -30.7052  -43.9819 H         1 UNK         0.0612 
    117 H117       20.1554  -30.1830  -45.4866 H         1 UNK         0.0612 
@<TRIPOS>BOND
     1    1    2 1    
     2    1   62 1    
     3    1   63 1    
     4    1   64 1    
     5    2    3 2    
     6    2    4 am   BACKBONE|DICT|INTERRES
     7    4    5 1    
     8    4   65 1    
     9    5    6 1    
    10    5   25 1    
    11    5   66 1    
    12    6    7 1    
    13    6   67 1    
    14    6   68 1    
    15    7    8 1    
    16    8    9 1    
    17    8   69 1    
    18    8   70 1    
    19    9   10 ar   
    20    9   14 ar   
    21   10   11 ar   
    22   10   71 1    
    23   11   12 ar   
    24   11   61 1    
    25   12   13 ar   
    26   12   72 1    
    27   13   14 ar   
    28   13   15 1    
    29   14   73 1    
    30   15   16 1    
    31   15   74 1    
    32   15   75 1    
    33   16   17 1    
    34   17   18 1    
    35   17   76 1    
    36   17   77 1    
    37   18   19 1    
    38   18   27 1    
    39   18   78 1    
    40   19   20 am   BACKBONE|DICT|INTERRES
    41   19   79 1    
    42   20   21 2    
    43   20   22 1    
    44   22   23 1    
    45   22   24 1    
    46   22   80 1    
    47   23   81 1    
    48   23   82 1    
    49   23   83 1    
    50   24   25 am   BACKBONE|DICT|INTERRES
    51   24   84 1    
    52   25   26 2    
    53   27   28 2    
    54   27   29 am   BACKBONE|DICT|INTERRES
    55   29   30 1    
    56   29   85 1    
    57   30   31 1    
    58   30   32 1    
    59   30   86 1    
    60   31   87 1    
    61   31   88 1    
    62   31   89 1    
    63   32   33 2    
    64   32   34 am   BACKBONE|DICT|INTERRES
    65   34   35 1    
    66   34   90 1    
    67   35   36 1    
    68   35   37 1    
    69   35   91 1    
    70   36   92 1    
    71   36   93 1    
    72   36   94 1    
    73   37   38 2    
    74   37   39 am   BACKBONE|DICT|INTERRES
    75   39   40 1    
    76   39   95 1    
    77   40   41 1    
    78   40   42 1    
    79   40   96 1    
    80   41   97 1    
    81   41   98 1    
    82   41   99 1    
    83   42   43 2    
    84   42   44 am   BACKBONE|DICT|INTERRES
    85   44   45 1    
    86   44  100 1    
    87   45   46 1    
    88   45   47 1    
    89   45  101 1    
    90   46  102 1    
    91   46  103 1    
    92   46  104 1    
    93   47   48 2    
    94   47   49 am   BACKBONE|DICT|INTERRES
    95   49   50 1    
    96   49  105 1    
    97   50   51 1    
    98   50   52 1    
    99   50  106 1    
   100   51  107 1    
   101   51  108 1    
   102   51  109 1    
   103   52   53 2    
   104   52   54 am   BACKBONE|DICT|INTERRES
   105   54   55 1    
   106   54  110 1    
   107   55   56 1    
   108   55   59 1    
   109   55  111 1    
   110   56   57 am   BACKBONE|DICT|INTERRES
   111   56   58 2    
   112   57  112 1    
   113   57  113 1    
   114   59   60 1    
   115   59  114 1    
   116   59  115 1    
   117   60   61 1    
   118   61  116 1    
   119   61  117 1    
@<TRIPOS>SUBSTRUCTURE
     1 UNK         1 GROUP             0       ****    0 ROOT    
