@<TRIPOS>MOLECULE
3R8
117   119    1
SMALL
USER_CHARGES


@<TRIPOS>ATOM
      1 CA         20.4218  -26.3024  -50.4554 C.3       0 UNK        -0.2013 
      2 C          19.9067  -26.5515  -49.0447 C.2       0 UNK         0.4866 
      3 O          18.7122  -26.3824  -48.8071 O.2       0 UNK        -0.5176 
      4 N          20.8114  -26.9482  -48.1370 N.am      1 UNK        -0.4884 
      5 CA         20.6328  -27.2432  -46.7052 C.3       1 UNK         0.0853 
      6 C6         19.7660  -28.5106  -46.4145 C.3       10 UNK        -0.0849 
      7 S7         17.9538  -28.2745  -46.3241 S.3       10 UNK        -0.2776 
      8 C8         17.3967  -29.8905  -45.7004 C.3       10 UNK         0.0316 
      9 C9         17.5529  -30.0053  -44.1907 C.ar      10 UNK        -0.0863 
     10 C10        18.5806  -30.7739  -43.6392 C.ar      10 UNK        -0.1009 
     11 C11        18.6996  -30.9133  -42.2533 C.ar      10 UNK        -0.0712 
     12 C12        17.7830  -30.2720  -41.4132 C.ar      10 UNK        -0.0894 
     13 C13        16.7495  -29.4990  -41.9535 C.ar      10 UNK        -0.0745 
     14 C14        16.6406  -29.3719  -43.3421 C.ar      10 UNK        -0.0972 
     15 C15        15.7193  -28.8325  -41.0515 C.3       10 UNK         0.0209 
     16 S16        15.8473  -27.0160  -41.0947 S.3       10 UNK        -0.2568 
     17 C17        17.0547  -26.6773  -39.7697 C.3       10 UNK        -0.0983 
     18 CA         18.5321  -26.7530  -40.2276 C.3       3 UNK         0.0876 
     19 N          18.7907  -25.9714  -41.4445 N.am      3 UNK        -0.4424 
     20 C          19.9077  -26.0643  -42.1735 C.2       2 UNK         0.4918 
     21 O          20.8852  -26.7452  -41.8536 O.2       2 UNK        -0.4875 
     22 CA         19.9598  -25.2647  -43.4746 C.3       2 UNK         0.0481 
     23 CB         20.9613  -24.0994  -43.3620 C.3       2 UNK        -0.1831 
     24 N          20.3507  -26.2048  -44.5173 N.am      2 UNK        -0.4498 
     25 C          20.2708  -26.0124  -45.8382 C.2       1 UNK         0.5027 
     26 O          19.9523  -24.9363  -46.3512 O.2       1 UNK        -0.4969 
     27 C          19.4692  -26.3793  -39.0602 C.2       3 UNK         0.5005 
     28 O          19.7664  -27.2350  -38.2265 O.2       3 UNK        -0.5279 
     29 N          19.9218  -25.1164  -39.0259 N.am      4 UNK        -0.4463 
     30 CA         20.8829  -24.6023  -38.0469 C.3       4 UNK         0.0283 
     31 CB         20.8861  -23.0657  -38.0915 C.3       4 UNK        -0.1875 
     32 C          22.3053  -25.1490  -38.2605 C.2       4 UNK         0.4949 
     33 O          23.0338  -25.3247  -37.2838 O.2       4 UNK        -0.5039 
     34 N          22.6742  -25.4045  -39.5238 N.am      5 UNK        -0.4663 
     35 CA         23.9495  -26.0171  -39.8983 C.3       5 UNK         0.0242 
     36 CB         24.3242  -25.6033  -41.3319 C.3       5 UNK        -0.1982 
     37 C          23.8806  -27.5448  -39.7717 C.2       5 UNK         0.5017 
     38 O          24.7823  -28.1465  -39.1893 O.2       5 UNK        -0.5012 
     39 N          22.8108  -28.1316  -40.3317 N.am      6 UNK        -0.4439 
     40 CA         22.4624  -29.5577  -40.3513 C.3       6 UNK         0.0297 
     41 CB         22.1766  -30.0722  -38.9254 C.3       6 UNK        -0.2006 
     42 C          23.4572  -30.4660  -41.1047 C.2       6 UNK         0.4892 
     43 O          23.3462  -31.6877  -41.0048 O.2       6 UNK        -0.5089 
     44 N          24.3850  -29.8750  -41.8717 N.am      7 UNK        -0.4243 
     45 CA         25.4771  -30.5591  -42.5750 C.3       7 UNK         0.0196 
     46 CB         26.4220  -29.5033  -43.1720 C.3       7 UNK        -0.2007 
     47 C          25.0241  -31.5512  -43.6616 C.2       7 UNK         0.5020 
     48 O          25.7756  -32.4687  -43.9911 O.2       7 UNK        -0.5147 
     49 N          23.8127  -31.3551  -44.1977 N.am      8 UNK        -0.4734 
     50 CA         23.1855  -32.2447  -45.1776 C.3       8 UNK         0.0238 
     51 CB         22.0876  -31.4674  -45.9220 C.3       8 UNK        -0.1912 
     52 C          22.6165  -33.5382  -44.5614 C.2       8 UNK         0.5038 
     53 O          22.3805  -34.4909  -45.3058 O.2       8 UNK        -0.5046 
     54 N          22.3926  -33.5538  -43.2407 N.am      9 UNK        -0.4200 
     55 CA         21.8983  -34.7161  -42.4903 C.3       9 UNK         0.0839 
     56 C          23.0656  -35.6287  -42.0305 C.2       9 UNK         0.5513 
     57 N          22.8049  -36.9165  -41.8521 N.am      9 UNK        -0.7519 
     58 O          24.1895  -35.1859  -41.8031 O.2       9 UNK        -0.4960 
     59 C59        21.0159  -34.2842  -41.2894 C.3       10 UNK        -0.0876 
     60 S60        19.4411  -33.5377  -41.8306 S.3       10 UNK        -0.2414 
     61 C61        19.8163  -31.7671  -41.6755 C.3       10 UNK         0.0169 
     62 H62        20.2398  -25.2672  -50.7431 H         1 UNK         0.0903 
     63 H63        21.4909  -26.4948  -50.5431 H         1 UNK         0.0903 
     64 H64        19.9031  -26.9484  -51.1633 H         1 UNK         0.0903 
     65 H65        21.7705  -27.0233  -48.4472 H         1 UNK         0.3096 
     66 H66        21.6456  -27.4987  -46.3872 H         1 UNK         0.1121 
     67 H67        19.9755  -29.2804  -47.1588 H         1 UNK         0.0849 
     68 H68        20.0788  -28.9404  -45.4622 H         1 UNK         0.0849 
     69 H69        16.3453  -30.0216  -45.9609 H         1 UNK         0.0865 
     70 H70        17.9348  -30.6896  -46.2129 H         1 UNK         0.0865 
     71 H71        19.2754  -31.2875  -44.2873 H         1 UNK         0.1346 
     72 H72        17.8671  -30.3854  -40.3410 H         1 UNK         0.1412 
     73 H73        15.8386  -28.7810  -43.7639 H         1 UNK         0.1426 
     74 H74        15.7999  -29.1916  -40.0246 H         1 UNK         0.0716 
     75 H75        14.7224  -29.1165  -41.3920 H         1 UNK         0.0716 
     76 H76        16.8313  -25.6811  -39.3825 H         1 UNK         0.0695 
     77 H77        16.8744  -27.3659  -38.9419 H         1 UNK         0.0695 
     78 H78        18.7514  -27.7943  -40.4711 H         1 UNK         0.0983 
     79 H79        18.0207  -25.4124  -41.7835 H         1 UNK         0.3095 
     80 H80        18.9660  -24.8740  -43.7032 H         1 UNK         0.0454 
     81 H81        21.9776  -24.4546  -43.1906 H         1 UNK         0.0851 
     82 H82        20.9710  -23.4914  -44.2663 H         1 UNK         0.0851 
     83 H83        20.7012  -23.4376  -42.5351 H         1 UNK         0.0851 
     84 H84        20.6334  -27.1088  -44.1614 H         1 UNK         0.2976 
     85 H85        19.6028  -24.4757  -39.7382 H         1 UNK         0.3116 
     86 H86        20.5547  -24.9129  -37.0524 H         1 UNK         0.0646 
     87 H87        21.5766  -22.6568  -37.3524 H         1 UNK         0.0847 
     88 H88        19.8995  -22.6591  -37.8685 H         1 UNK         0.0847 
     89 H89        21.1941  -22.6878  -39.0672 H         1 UNK         0.0847 
     90 H90        21.9995  -25.2627  -40.2612 H         1 UNK         0.3040 
     91 H91        24.7328  -25.6577  -39.2263 H         1 UNK         0.1015 
     92 H92        24.4052  -24.5199  -41.4218 H         1 UNK         0.0786 
     93 H93        23.5916  -25.9455  -42.0635 H         1 UNK         0.0786 
     94 H94        25.2898  -26.0233  -41.6174 H         1 UNK         0.0786 
     95 H95        22.1457  -27.5325  -40.8194 H         1 UNK         0.3172 
     96 H96        21.5289  -29.6082  -40.9115 H         1 UNK         0.0595 
     97 H97        21.4328  -29.4537  -38.4233 H         1 UNK         0.0839 
     98 H98        23.0768  -30.0798  -38.3104 H         1 UNK         0.0839 
     99 H99        21.7892  -31.0915  -38.9419 H         1 UNK         0.0839 
    100 H100       24.3919  -28.8665  -41.9002 H         1 UNK         0.2998 
    101 H101       26.0324  -31.1343  -41.8310 H         1 UNK         0.0822 
    102 H102       26.8321  -28.8539  -42.3981 H         1 UNK         0.0787 
    103 H103       27.2665  -29.9751  -43.6765 H         1 UNK         0.0787 
    104 H104       25.9139  -28.8753  -43.9051 H         1 UNK         0.0787 
    105 H105       23.2723  -30.5658  -43.8760 H         1 UNK         0.3055 
    106 H106       23.9410  -32.5466  -45.9070 H         1 UNK         0.1106 
    107 H107       21.5837  -32.1006  -46.6538 H         1 UNK         0.0828 
    108 H108       21.3294  -31.0919  -45.2370 H         1 UNK         0.0828 
    109 H109       22.5019  -30.6171  -46.4640 H         1 UNK         0.0828 
    110 H110       22.7092  -32.7742  -42.6764 H         1 UNK         0.2931 
    111 H111       21.2710  -35.3133  -43.1558 H         1 UNK         0.0412 
    112 H112       21.8861  -37.2928  -42.0299 H         1 UNK         0.3472 
    113 H113       23.5443  -37.5281  -41.5417 H         1 UNK         0.3472 
    114 H114       20.7597  -35.1493  -40.6749 H         1 UNK         0.0970 
    115 H115       21.5531  -33.6008  -40.6297 H         1 UNK         0.0970 
    116 H116       20.7442  -31.5456  -42.2023 H         1 UNK         0.0612 
    117 H117       19.9819  -31.5274  -40.6245 H         1 UNK         0.0612 
@<TRIPOS>BOND
     1    1    2 1    
     2    1   62 1    
     3    1   63 1    
     4    1   64 1    
     5    2    3 2    
     6    2    4 am   BACKBONE|DICT|INTERRES
     7    4    5 1    
     8    4   65 1    
     9    5    6 1    
    10    5   25 1    
    11    5   66 1    
    12    6    7 1    
    13    6   67 1    
    14    6   68 1    
    15    7    8 1    
    16    8    9 1    
    17    8   69 1    
    18    8   70 1    
    19    9   10 ar   
    20    9   14 ar   
    21   10   11 ar   
    22   10   71 1    
    23   11   12 ar   
    24   11   61 1    
    25   12   13 ar   
    26   12   72 1    
    27   13   14 ar   
    28   13   15 1    
    29   14   73 1    
    30   15   16 1    
    31   15   74 1    
    32   15   75 1    
    33   16   17 1    
    34   17   18 1    
    35   17   76 1    
    36   17   77 1    
    37   18   19 1    
    38   18   27 1    
    39   18   78 1    
    40   19   20 am   BACKBONE|DICT|INTERRES
    41   19   79 1    
    42   20   21 2    
    43   20   22 1    
    44   22   23 1    
    45   22   24 1    
    46   22   80 1    
    47   23   81 1    
    48   23   82 1    
    49   23   83 1    
    50   24   25 am   BACKBONE|DICT|INTERRES
    51   24   84 1    
    52   25   26 2    
    53   27   28 2    
    54   27   29 am   BACKBONE|DICT|INTERRES
    55   29   30 1    
    56   29   85 1    
    57   30   31 1    
    58   30   32 1    
    59   30   86 1    
    60   31   87 1    
    61   31   88 1    
    62   31   89 1    
    63   32   33 2    
    64   32   34 am   BACKBONE|DICT|INTERRES
    65   34   35 1    
    66   34   90 1    
    67   35   36 1    
    68   35   37 1    
    69   35   91 1    
    70   36   92 1    
    71   36   93 1    
    72   36   94 1    
    73   37   38 2    
    74   37   39 am   BACKBONE|DICT|INTERRES
    75   39   40 1    
    76   39   95 1    
    77   40   41 1    
    78   40   42 1    
    79   40   96 1    
    80   41   97 1    
    81   41   98 1    
    82   41   99 1    
    83   42   43 2    
    84   42   44 am   BACKBONE|DICT|INTERRES
    85   44   45 1    
    86   44  100 1    
    87   45   46 1    
    88   45   47 1    
    89   45  101 1    
    90   46  102 1    
    91   46  103 1    
    92   46  104 1    
    93   47   48 2    
    94   47   49 am   BACKBONE|DICT|INTERRES
    95   49   50 1    
    96   49  105 1    
    97   50   51 1    
    98   50   52 1    
    99   50  106 1    
   100   51  107 1    
   101   51  108 1    
   102   51  109 1    
   103   52   53 2    
   104   52   54 am   BACKBONE|DICT|INTERRES
   105   54   55 1    
   106   54  110 1    
   107   55   56 1    
   108   55   59 1    
   109   55  111 1    
   110   56   57 am   BACKBONE|DICT|INTERRES
   111   56   58 2    
   112   57  112 1    
   113   57  113 1    
   114   59   60 1    
   115   59  114 1    
   116   59  115 1    
   117   60   61 1    
   118   61  116 1    
   119   61  117 1    
@<TRIPOS>SUBSTRUCTURE
     1 UNK         1 GROUP             0       ****    0 ROOT    
