@<TRIPOS>MOLECULE
3R8
117   119    1
SMALL
USER_CHARGES


@<TRIPOS>ATOM
      1 CA         14.3476  -23.0604  -42.8136 C.3       0 UNK        -0.2013 
      2 C          15.3005  -23.5696  -43.8849 C.2       0 UNK         0.4866 
      3 O          16.0053  -22.7725  -44.5036 O.2       0 UNK        -0.5176 
      4 N          15.3149  -24.8885  -44.1127 N.am      1 UNK        -0.4884 
      5 CA         16.2030  -25.5892  -45.0450 C.3       1 UNK         0.0853 
      6 C6         15.6508  -26.9866  -45.4434 C.3       10 UNK        -0.0849 
      7 S7         14.9984  -27.9750  -44.0455 S.3       10 UNK        -0.2776 
      8 C8         15.4613  -29.6682  -44.5246 C.3       10 UNK         0.0316 
      9 C9         16.9463  -29.9286  -44.3253 C.ar      10 UNK        -0.0863 
     10 C10        17.4626  -30.0765  -43.0349 C.ar      10 UNK        -0.1009 
     11 C11        18.8217  -30.3358  -42.8403 C.ar      10 UNK        -0.0712 
     12 C12        19.6661  -30.4516  -43.9486 C.ar      10 UNK        -0.0894 
     13 C13        19.1614  -30.3061  -45.2433 C.ar      10 UNK        -0.0745 
     14 C14        17.8003  -30.0448  -45.4259 C.ar      10 UNK        -0.0972 
     15 C15        20.0753  -30.4572  -46.4496 C.3       10 UNK         0.0209 
     16 S16        20.5286  -28.8488  -47.1700 S.3       10 UNK        -0.2568 
     17 C17        21.8962  -28.3093  -46.0894 C.3       10 UNK        -0.0983 
     18 CA         21.7127  -26.8415  -45.6192 C.3       3 UNK         0.0876 
     19 N          20.5541  -26.6608  -44.7345 N.am      3 UNK        -0.4424 
     20 C          20.4135  -27.0851  -43.4722 C.2       2 UNK         0.4918 
     21 O          21.2757  -27.7252  -42.8659 O.2       2 UNK        -0.4875 
     22 CA         19.1211  -26.6965  -42.7225 C.3       2 UNK         0.0481 
     23 CB         19.3716  -25.4590  -41.8402 C.3       2 UNK        -0.1831 
     24 N          17.9033  -26.5129  -43.5320 N.am      2 UNK        -0.4498 
     25 C          17.6455  -25.6213  -44.5002 C.2       1 UNK         0.5027 
     26 O          18.4822  -24.8378  -44.9517 O.2       1 UNK        -0.4969 
     27 C          22.9904  -26.2240  -45.0050 C.2       3 UNK         0.5005 
     28 O          24.0494  -26.8529  -45.0040 O.2       3 UNK        -0.5279 
     29 N          22.8447  -25.0025  -44.4625 N.am      4 UNK        -0.4463 
     30 CA         23.8470  -24.2456  -43.6979 C.3       4 UNK         0.0283 
     31 CB         25.0498  -23.8546  -44.5840 C.3       4 UNK        -0.1875 
     32 C          24.2625  -24.9553  -42.3914 C.2       4 UNK         0.4949 
     33 O          25.4273  -24.8845  -41.9978 O.2       4 UNK        -0.5039 
     34 N          23.2847  -25.6156  -41.7502 N.am      5 UNK        -0.4663 
     35 CA         23.3903  -26.4382  -40.5395 C.3       5 UNK         0.0242 
     36 CB         23.7832  -25.5816  -39.3168 C.3       5 UNK        -0.1982 
     37 C          24.3173  -27.6460  -40.7605 C.2       5 UNK         0.5017 
     38 O          25.3560  -27.7605  -40.1054 O.2       5 UNK        -0.5012 
     39 N          23.9278  -28.5191  -41.7001 N.am      6 UNK        -0.4439 
     40 CA         24.6728  -29.7066  -42.1393 C.3       6 UNK         0.0297 
     41 CB         24.1128  -30.1684  -43.4975 C.3       6 UNK        -0.2006 
     42 C          24.7005  -30.8535  -41.1044 C.2       6 UNK         0.4892 
     43 O          24.3177  -31.9792  -41.4295 O.2       6 UNK        -0.5089 
     44 N          25.1556  -30.5540  -39.8798 N.am      7 UNK        -0.4243 
     45 CA         25.2743  -31.4487  -38.7228 C.3       7 UNK         0.0196 
     46 CB         26.4189  -32.4646  -38.9455 C.3       7 UNK        -0.2007 
     47 C          23.9183  -32.0883  -38.3657 C.2       7 UNK         0.5020 
     48 O          22.9822  -31.3612  -38.0335 O.2       7 UNK        -0.5147 
     49 N          23.8177  -33.4187  -38.4766 N.am      8 UNK        -0.4734 
     50 CA         22.5928  -34.2027  -38.2825 C.3       8 UNK         0.0238 
     51 CB         22.9753  -35.5794  -37.7066 C.3       8 UNK        -0.1912 
     52 C          21.7550  -34.3254  -39.5747 C.2       8 UNK         0.5038 
     53 O          21.0506  -35.3218  -39.7467 O.2       8 UNK        -0.5046 
     54 N          21.8546  -33.3242  -40.4579 N.am      9 UNK        -0.4200 
     55 CA         21.2377  -33.2501  -41.7899 C.3       9 UNK         0.0839 
     56 C          21.8814  -34.2502  -42.7888 C.2       9 UNK         0.5513 
     57 N          23.2057  -34.2780  -42.8665 N.am      9 UNK        -0.7519 
     58 O          21.1991  -34.9912  -43.4924 O.2       9 UNK        -0.4960 
     59 C59        19.6820  -33.2831  -41.7755 C.3       10 UNK        -0.0876 
     60 S60        18.9252  -32.0544  -40.6538 S.3       10 UNK        -0.2414 
     61 C61        19.3790  -30.4707  -41.4312 C.3       10 UNK         0.0169 
     62 H62        13.6411  -22.3521  -43.2456 H         1 UNK         0.0903 
     63 H63        13.7788  -23.8692  -42.3550 H         1 UNK         0.0903 
     64 H64        14.9046  -22.5503  -42.0282 H         1 UNK         0.0903 
     65 H65        14.7125  -25.4942  -43.5714 H         1 UNK         0.3096 
     66 H66        16.2457  -24.9968  -45.9624 H         1 UNK         0.1121 
     67 H67        14.8275  -26.8529  -46.1470 H         1 UNK         0.0849 
     68 H68        16.4050  -27.5545  -45.9911 H         1 UNK         0.0849 
     69 H69        14.8917  -30.3736  -43.9176 H         1 UNK         0.0865 
     70 H70        15.1639  -29.8507  -45.5586 H         1 UNK         0.0865 
     71 H71        16.8061  -29.9899  -42.1796 H         1 UNK         0.1346 
     72 H72        20.7184  -30.6462  -43.8035 H         1 UNK         0.1412 
     73 H73        17.4087  -29.9370  -46.4283 H         1 UNK         0.1426 
     74 H74        19.5651  -31.0478  -47.2119 H         1 UNK         0.0716 
     75 H75        20.9773  -31.0145  -46.1913 H         1 UNK         0.0716 
     76 H76        22.8162  -28.4233  -46.6654 H         1 UNK         0.0695 
     77 H77        21.9863  -28.9772  -45.2328 H         1 UNK         0.0695 
     78 H78        21.5117  -26.2396  -46.5071 H         1 UNK         0.0983 
     79 H79        19.8063  -26.0749  -45.0970 H         1 UNK         0.3095 
     80 H80        18.8970  -27.5274  -42.0541 H         1 UNK         0.0454 
     81 H81        19.6178  -24.5777  -42.4334 H         1 UNK         0.0851 
     82 H82        20.1976  -25.6293  -41.1489 H         1 UNK         0.0851 
     83 H83        18.4954  -25.2202  -41.2375 H         1 UNK         0.0851 
     84 H84        17.1458  -27.1448  -43.3026 H         1 UNK         0.2976 
     85 H85        21.9332  -24.5698  -44.5306 H         1 UNK         0.3116 
     86 H86        23.3573  -23.3202  -43.3909 H         1 UNK         0.0646 
     87 H87        25.6425  -24.7233  -44.8719 H         1 UNK         0.0847 
     88 H88        25.7161  -23.1705  -44.0572 H         1 UNK         0.0847 
     89 H89        24.7262  -23.3515  -45.4949 H         1 UNK         0.0847 
     90 H90        22.3862  -25.6489  -42.2087 H         1 UNK         0.3040 
     91 H91        22.3958  -26.8444  -40.3460 H         1 UNK         0.1015 
     92 H92        23.0837  -24.7590  -39.1683 H         1 UNK         0.0786 
     93 H93        24.7828  -25.1574  -39.4167 H         1 UNK         0.0786 
     94 H94        23.7771  -26.1811  -38.4057 H         1 UNK         0.0786 
     95 H95        23.0512  -28.3334  -42.1805 H         1 UNK         0.3172 
     96 H96        25.7108  -29.4083  -42.2994 H         1 UNK         0.0595 
     97 H97        23.0623  -30.4485  -43.4240 H         1 UNK         0.0839 
     98 H98        24.6568  -31.0351  -43.8757 H         1 UNK         0.0839 
     99 H99        24.2036  -29.3856  -44.2491 H         1 UNK         0.0839 
    100 H100       25.3994  -29.5792  -39.7178 H         1 UNK         0.2998 
    101 H101       25.5476  -30.8224  -37.8724 H         1 UNK         0.0822 
    102 H102       27.3648  -31.9504  -39.1167 H         1 UNK         0.0787 
    103 H103       26.5597  -33.1010  -38.0706 H         1 UNK         0.0787 
    104 H104       26.2403  -33.1106  -39.8059 H         1 UNK         0.0787 
    105 H105       24.6277  -33.9266  -38.8036 H         1 UNK         0.3055 
    106 H106       21.9585  -33.6994  -37.5492 H         1 UNK         0.1106 
    107 H107       22.0878  -36.1645  -37.4618 H         1 UNK         0.0828 
    108 H108       23.5656  -36.1624  -38.4145 H         1 UNK         0.0828 
    109 H109       23.5538  -35.4789  -36.7881 H         1 UNK         0.0828 
    110 H110       22.5191  -32.5891  -40.2577 H         1 UNK         0.2931 
    111 H111       21.5235  -32.2728  -42.1769 H         1 UNK         0.0412 
    112 H112       23.7519  -33.6159  -42.3224 H         1 UNK         0.3472 
    113 H113       23.6595  -34.9134  -43.5029 H         1 UNK         0.3472 
    114 H114       19.3278  -34.2712  -41.4784 H         1 UNK         0.0970 
    115 H115       19.2890  -33.1231  -42.7807 H         1 UNK         0.0970 
    116 H116       18.9898  -29.6608  -40.8131 H         1 UNK         0.0612 
    117 H117       20.4634  -30.3525  -41.4267 H         1 UNK         0.0612 
@<TRIPOS>BOND
     1    1    2 1    
     2    1   62 1    
     3    1   63 1    
     4    1   64 1    
     5    2    3 2    
     6    2    4 am   BACKBONE|DICT|INTERRES
     7    4    5 1    
     8    4   65 1    
     9    5    6 1    
    10    5   25 1    
    11    5   66 1    
    12    6    7 1    
    13    6   67 1    
    14    6   68 1    
    15    7    8 1    
    16    8    9 1    
    17    8   69 1    
    18    8   70 1    
    19    9   10 ar   
    20    9   14 ar   
    21   10   11 ar   
    22   10   71 1    
    23   11   12 ar   
    24   11   61 1    
    25   12   13 ar   
    26   12   72 1    
    27   13   14 ar   
    28   13   15 1    
    29   14   73 1    
    30   15   16 1    
    31   15   74 1    
    32   15   75 1    
    33   16   17 1    
    34   17   18 1    
    35   17   76 1    
    36   17   77 1    
    37   18   19 1    
    38   18   27 1    
    39   18   78 1    
    40   19   20 am   BACKBONE|DICT|INTERRES
    41   19   79 1    
    42   20   21 2    
    43   20   22 1    
    44   22   23 1    
    45   22   24 1    
    46   22   80 1    
    47   23   81 1    
    48   23   82 1    
    49   23   83 1    
    50   24   25 am   BACKBONE|DICT|INTERRES
    51   24   84 1    
    52   25   26 2    
    53   27   28 2    
    54   27   29 am   BACKBONE|DICT|INTERRES
    55   29   30 1    
    56   29   85 1    
    57   30   31 1    
    58   30   32 1    
    59   30   86 1    
    60   31   87 1    
    61   31   88 1    
    62   31   89 1    
    63   32   33 2    
    64   32   34 am   BACKBONE|DICT|INTERRES
    65   34   35 1    
    66   34   90 1    
    67   35   36 1    
    68   35   37 1    
    69   35   91 1    
    70   36   92 1    
    71   36   93 1    
    72   36   94 1    
    73   37   38 2    
    74   37   39 am   BACKBONE|DICT|INTERRES
    75   39   40 1    
    76   39   95 1    
    77   40   41 1    
    78   40   42 1    
    79   40   96 1    
    80   41   97 1    
    81   41   98 1    
    82   41   99 1    
    83   42   43 2    
    84   42   44 am   BACKBONE|DICT|INTERRES
    85   44   45 1    
    86   44  100 1    
    87   45   46 1    
    88   45   47 1    
    89   45  101 1    
    90   46  102 1    
    91   46  103 1    
    92   46  104 1    
    93   47   48 2    
    94   47   49 am   BACKBONE|DICT|INTERRES
    95   49   50 1    
    96   49  105 1    
    97   50   51 1    
    98   50   52 1    
    99   50  106 1    
   100   51  107 1    
   101   51  108 1    
   102   51  109 1    
   103   52   53 2    
   104   52   54 am   BACKBONE|DICT|INTERRES
   105   54   55 1    
   106   54  110 1    
   107   55   56 1    
   108   55   59 1    
   109   55  111 1    
   110   56   57 am   BACKBONE|DICT|INTERRES
   111   56   58 2    
   112   57  112 1    
   113   57  113 1    
   114   59   60 1    
   115   59  114 1    
   116   59  115 1    
   117   60   61 1    
   118   61  116 1    
   119   61  117 1    
@<TRIPOS>SUBSTRUCTURE
     1 UNK         1 GROUP             0       ****    0 ROOT    
