@<TRIPOS>MOLECULE
3R8
117   119    1
SMALL
USER_CHARGES


@<TRIPOS>ATOM
      1 CA         16.7091  -22.2441  -43.2936 C.3       0 UNK        -0.2013 
      2 C          16.7894  -23.6488  -43.8717 C.2       0 UNK         0.4866 
      3 O          17.5938  -23.8975  -44.7709 O.2       0 UNK        -0.5176 
      4 N          15.9656  -24.5746  -43.3631 N.am      1 UNK        -0.4884 
      5 CA         15.9308  -25.9834  -43.7690 C.3       1 UNK         0.0853 
      6 C6         14.5343  -26.6123  -43.5146 C.3       10 UNK        -0.0849 
      7 S7         14.0938  -27.8756  -44.7532 S.3       10 UNK        -0.2776 
      8 C8         14.7966  -29.4045  -44.0374 C.3       10 UNK         0.0316 
      9 C9         16.1814  -29.7819  -44.5693 C.ar      10 UNK        -0.0863 
     10 C10        17.0735  -30.4669  -43.7353 C.ar      10 UNK        -0.1009 
     11 C11        18.3028  -30.9211  -44.2236 C.ar      10 UNK        -0.0712 
     12 C12        18.6492  -30.6716  -45.5536 C.ar      10 UNK        -0.0894 
     13 C13        17.7818  -29.9696  -46.3937 C.ar      10 UNK        -0.0745 
     14 C14        16.5503  -29.5325  -45.8978 C.ar      10 UNK        -0.0972 
     15 C15        18.1439  -29.7299  -47.8524 C.3       10 UNK         0.0209 
     16 S16        19.0516  -28.1695  -48.0865 S.3       10 UNK        -0.2568 
     17 C17        20.7483  -28.6417  -47.6059 C.3       10 UNK        -0.0983 
     18 CA         21.3024  -27.7880  -46.4404 C.3       3 UNK         0.0876 
     19 N          20.4370  -27.8215  -45.2521 N.am      3 UNK        -0.4424 
     20 C          20.5934  -27.0390  -44.1772 C.2       2 UNK         0.4918 
     21 O          21.5131  -26.2305  -44.0505 O.2       2 UNK        -0.4875 
     22 CA         19.5263  -27.1594  -43.0881 C.3       2 UNK         0.0481 
     23 CB         19.9662  -26.5334  -41.7486 C.3       2 UNK        -0.1831 
     24 N          18.3039  -26.5335  -43.5730 N.am      2 UNK        -0.4498 
     25 C          17.0802  -26.7512  -43.0827 C.2       1 UNK         0.5027 
     26 O          16.8541  -27.4750  -42.1107 O.2       1 UNK        -0.4969 
     27 C          22.7702  -28.1697  -46.1440 C.2       3 UNK         0.5005 
     28 O          23.6703  -27.6551  -46.8093 O.2       3 UNK        -0.5279 
     29 N          22.9883  -29.0355  -45.1432 N.am      4 UNK        -0.4463 
     30 CA         24.3107  -29.4284  -44.6434 C.3       4 UNK         0.0283 
     31 CB         24.2997  -30.9355  -44.3364 C.3       4 UNK        -0.1875 
     32 C          24.7629  -28.5917  -43.4266 C.2       4 UNK         0.4949 
     33 O          25.7830  -28.9182  -42.8174 O.2       4 UNK        -0.5039 
     34 N          24.0232  -27.5183  -43.1042 N.am      5 UNK        -0.4663 
     35 CA         24.2468  -26.5808  -42.0007 C.3       5 UNK         0.0242 
     36 CB         25.5216  -25.7399  -42.2481 C.3       5 UNK        -0.1982 
     37 C          24.1965  -27.2887  -40.6337 C.2       5 UNK         0.5017 
     38 O          23.1710  -27.8873  -40.3088 O.2       5 UNK        -0.5012 
     39 N          25.2808  -27.1941  -39.8534 N.am      6 UNK        -0.4439 
     40 CA         25.4047  -27.7806  -38.5173 C.3       6 UNK         0.0297 
     41 CB         26.5916  -27.1244  -37.7923 C.3       6 UNK        -0.2006 
     42 C          25.5559  -29.3133  -38.5148 C.2       6 UNK         0.4892 
     43 O          25.3261  -29.9277  -37.4719 O.2       6 UNK        -0.5089 
     44 N          25.9552  -29.9053  -39.6488 N.am      7 UNK        -0.4243 
     45 CA         26.0870  -31.3513  -39.8083 C.3       7 UNK         0.0196 
     46 CB         27.1448  -31.6503  -40.8829 C.3       7 UNK        -0.2007 
     47 C          24.7340  -31.9554  -40.2025 C.2       7 UNK         0.5020 
     48 O          24.0717  -31.4179  -41.0895 O.2       7 UNK        -0.5147 
     49 N          24.3721  -33.0768  -39.5650 N.am      8 UNK        -0.4734 
     50 CA         23.1955  -33.9319  -39.7969 C.3       8 UNK         0.0238 
     51 CB         23.2386  -34.5610  -41.2045 C.3       8 UNK        -0.1912 
     52 C          21.8238  -33.2782  -39.5367 C.2       8 UNK         0.5038 
     53 O          21.0054  -33.8714  -38.8323 O.2       8 UNK        -0.5046 
     54 N          21.5816  -32.1064  -40.1303 N.am      9 UNK        -0.4200 
     55 CA         20.3190  -31.3598  -40.0781 C.3       9 UNK         0.0839 
     56 C          20.0128  -30.7780  -38.6714 C.2       9 UNK         0.5513 
     57 N          18.7412  -30.5796  -38.3510 N.am      9 UNK        -0.7519 
     58 O          20.9068  -30.4724  -37.8850 O.2       9 UNK        -0.4960 
     59 C59        20.2512  -30.2512  -41.1644 C.3       10 UNK        -0.0876 
     60 S60        20.7113  -30.8221  -42.8383 S.3       10 UNK        -0.2414 
     61 C61        19.2314  -31.7488  -43.3483 C.3       10 UNK         0.0169 
     62 H62        17.6697  -21.9601  -42.8647 H         1 UNK         0.0903 
     63 H63        16.4617  -21.5297  -44.0783 H         1 UNK         0.0903 
     64 H64        15.9524  -22.1660  -42.5132 H         1 UNK         0.0903 
     65 H65        15.3491  -24.3231  -42.6026 H         1 UNK         0.3096 
     66 H66        16.1177  -26.0209  -44.8455 H         1 UNK         0.1121 
     67 H67        14.4162  -27.0030  -42.5023 H         1 UNK         0.0849 
     68 H68        13.7666  -25.8419  -43.6057 H         1 UNK         0.0849 
     69 H69        14.8140  -29.3219  -42.9495 H         1 UNK         0.0865 
     70 H70        14.1182  -30.2273  -44.2658 H         1 UNK         0.0865 
     71 H71        16.7953  -30.6781  -42.7117 H         1 UNK         0.1346 
     72 H72        19.5878  -31.0480  -45.9357 H         1 UNK         0.1412 
     73 H73        15.8678  -29.0216  -46.5628 H         1 UNK         0.1426 
     74 H74        17.2347  -29.6933  -48.4546 H         1 UNK         0.0716 
     75 H75        18.7269  -30.5641  -48.2460 H         1 UNK         0.0716 
     76 H76        20.7883  -29.7030  -47.3594 H         1 UNK         0.0695 
     77 H77        21.3769  -28.5206  -48.4904 H         1 UNK         0.0695 
     78 H78        21.3220  -26.7491  -46.7780 H         1 UNK         0.0983 
     79 H79        19.6342  -28.4347  -45.3014 H         1 UNK         0.3095 
     80 H80        19.3330  -28.2207  -42.9364 H         1 UNK         0.0454 
     81 H81        20.9166  -26.9516  -41.4179 H         1 UNK         0.0851 
     82 H82        20.0950  -25.4537  -41.8313 H         1 UNK         0.0851 
     83 H83        19.2407  -26.7251  -40.9585 H         1 UNK         0.0851 
     84 H84        18.4087  -25.8603  -44.3255 H         1 UNK         0.2976 
     85 H85        22.1921  -29.4043  -44.6404 H         1 UNK         0.3116 
     86 H86        25.0602  -29.2637  -45.4201 H         1 UNK         0.0646 
     87 H87        23.5416  -31.1903  -43.5977 H         1 UNK         0.0847 
     88 H88        25.2605  -31.2690  -43.9425 H         1 UNK         0.0847 
     89 H89        24.0987  -31.5203  -45.2338 H         1 UNK         0.0847 
     90 H90        23.1979  -27.3218  -43.6589 H         1 UNK         0.3040 
     91 H91        23.3984  -25.8944  -42.0086 H         1 UNK         0.1015 
     92 H92        25.4625  -25.2219  -43.2055 H         1 UNK         0.0786 
     93 H93        26.4266  -26.3482  -42.2632 H         1 UNK         0.0786 
     94 H94        25.6450  -24.9722  -41.4829 H         1 UNK         0.0786 
     95 H95        26.0826  -26.6943  -40.2100 H         1 UNK         0.3172 
     96 H96        24.4956  -27.5452  -37.9596 H         1 UNK         0.0595 
     97 H97        26.4621  -26.0449  -37.7117 H         1 UNK         0.0839 
     98 H98        27.5348  -27.3141  -38.3063 H         1 UNK         0.0839 
     99 H99        26.6915  -27.5119  -36.7773 H         1 UNK         0.0839 
    100 H100       26.0318  -29.3512  -40.4928 H         1 UNK         0.2998 
    101 H101       26.4239  -31.7925  -38.8675 H         1 UNK         0.0822 
    102 H102       26.8602  -31.2429  -41.8539 H         1 UNK         0.0787 
    103 H103       28.1137  -31.2294  -40.6142 H         1 UNK         0.0787 
    104 H104       27.2800  -32.7253  -41.0083 H         1 UNK         0.0787 
    105 H105       24.9840  -33.4034  -38.8289 H         1 UNK         0.3055 
    106 H106       23.2824  -34.7484  -39.0776 H         1 UNK         0.1106 
    107 H107       24.1623  -35.1177  -41.3622 H         1 UNK         0.0828 
    108 H108       22.4122  -35.2591  -41.3445 H         1 UNK         0.0828 
    109 H109       23.1624  -33.8096  -41.9914 H         1 UNK         0.0828 
    110 H110       22.3420  -31.6830  -40.6588 H         1 UNK         0.2931 
    111 H111       19.5321  -32.0838  -40.2965 H         1 UNK         0.0412 
    112 H112       18.5198  -30.1904  -37.4476 H         1 UNK         0.3472 
    113 H113       17.9968  -30.8200  -38.9870 H         1 UNK         0.3472 
    114 H114       20.9275  -29.4346  -40.9045 H         1 UNK         0.0970 
    115 H115       19.2502  -29.8174  -41.2029 H         1 UNK         0.0970 
    116 H116       19.5552  -32.6268  -43.9089 H         1 UNK         0.0612 
    117 H117       18.7024  -32.1321  -42.4756 H         1 UNK         0.0612 
@<TRIPOS>BOND
     1    1    2 1    
     2    1   62 1    
     3    1   63 1    
     4    1   64 1    
     5    2    3 2    
     6    2    4 am   BACKBONE|DICT|INTERRES
     7    4    5 1    
     8    4   65 1    
     9    5    6 1    
    10    5   25 1    
    11    5   66 1    
    12    6    7 1    
    13    6   67 1    
    14    6   68 1    
    15    7    8 1    
    16    8    9 1    
    17    8   69 1    
    18    8   70 1    
    19    9   10 ar   
    20    9   14 ar   
    21   10   11 ar   
    22   10   71 1    
    23   11   12 ar   
    24   11   61 1    
    25   12   13 ar   
    26   12   72 1    
    27   13   14 ar   
    28   13   15 1    
    29   14   73 1    
    30   15   16 1    
    31   15   74 1    
    32   15   75 1    
    33   16   17 1    
    34   17   18 1    
    35   17   76 1    
    36   17   77 1    
    37   18   19 1    
    38   18   27 1    
    39   18   78 1    
    40   19   20 am   BACKBONE|DICT|INTERRES
    41   19   79 1    
    42   20   21 2    
    43   20   22 1    
    44   22   23 1    
    45   22   24 1    
    46   22   80 1    
    47   23   81 1    
    48   23   82 1    
    49   23   83 1    
    50   24   25 am   BACKBONE|DICT|INTERRES
    51   24   84 1    
    52   25   26 2    
    53   27   28 2    
    54   27   29 am   BACKBONE|DICT|INTERRES
    55   29   30 1    
    56   29   85 1    
    57   30   31 1    
    58   30   32 1    
    59   30   86 1    
    60   31   87 1    
    61   31   88 1    
    62   31   89 1    
    63   32   33 2    
    64   32   34 am   BACKBONE|DICT|INTERRES
    65   34   35 1    
    66   34   90 1    
    67   35   36 1    
    68   35   37 1    
    69   35   91 1    
    70   36   92 1    
    71   36   93 1    
    72   36   94 1    
    73   37   38 2    
    74   37   39 am   BACKBONE|DICT|INTERRES
    75   39   40 1    
    76   39   95 1    
    77   40   41 1    
    78   40   42 1    
    79   40   96 1    
    80   41   97 1    
    81   41   98 1    
    82   41   99 1    
    83   42   43 2    
    84   42   44 am   BACKBONE|DICT|INTERRES
    85   44   45 1    
    86   44  100 1    
    87   45   46 1    
    88   45   47 1    
    89   45  101 1    
    90   46  102 1    
    91   46  103 1    
    92   46  104 1    
    93   47   48 2    
    94   47   49 am   BACKBONE|DICT|INTERRES
    95   49   50 1    
    96   49  105 1    
    97   50   51 1    
    98   50   52 1    
    99   50  106 1    
   100   51  107 1    
   101   51  108 1    
   102   51  109 1    
   103   52   53 2    
   104   52   54 am   BACKBONE|DICT|INTERRES
   105   54   55 1    
   106   54  110 1    
   107   55   56 1    
   108   55   59 1    
   109   55  111 1    
   110   56   57 am   BACKBONE|DICT|INTERRES
   111   56   58 2    
   112   57  112 1    
   113   57  113 1    
   114   59   60 1    
   115   59  114 1    
   116   59  115 1    
   117   60   61 1    
   118   61  116 1    
   119   61  117 1    
@<TRIPOS>SUBSTRUCTURE
     1 UNK         1 GROUP             0       ****    0 ROOT    
