@<TRIPOS>MOLECULE
3R8
117   119    1
SMALL
USER_CHARGES


@<TRIPOS>ATOM
      1 CA         17.1085  -20.8968  -45.8035 C.3       0 UNK        -0.2013 
      2 C          17.9336  -21.9272  -45.0471 C.2       0 UNK         0.4866 
      3 O          18.4200  -21.6364  -43.9544 O.2       0 UNK        -0.5176 
      4 N          18.0998  -23.1251  -45.6246 N.am      1 UNK        -0.4884 
      5 CA         18.8271  -24.2537  -45.0317 C.3       1 UNK         0.0853 
      6 C6         19.1066  -25.3480  -46.0972 C.3       10 UNK        -0.0849 
      7 S7         19.9648  -26.8338  -45.4678 S.3       10 UNK        -0.2776 
      8 C8         19.6665  -28.0082  -46.8273 C.3       10 UNK         0.0316 
      9 C9         19.6067  -29.4308  -46.2978 C.ar      10 UNK        -0.0863 
     10 C10        20.7530  -30.2286  -46.2676 C.ar      10 UNK        -0.1009 
     11 C11        20.6948  -31.5312  -45.7630 C.ar      10 UNK        -0.0712 
     12 C12        19.4877  -32.0195  -45.2534 C.ar      10 UNK        -0.0894 
     13 C13        18.3356  -31.2259  -45.2625 C.ar      10 UNK        -0.0745 
     14 C14        18.3974  -29.9449  -45.8236 C.ar      10 UNK        -0.0972 
     15 C15        17.0342  -31.7751  -44.6801 C.3       10 UNK         0.0209 
     16 S16        16.0337  -30.5359  -43.7804 S.3       10 UNK        -0.2568 
     17 C17        17.0819  -30.1543  -42.3332 C.3       10 UNK        -0.0983 
     18 CA         17.9812  -28.9007  -42.5319 C.3       3 UNK         0.0876 
     19 N          17.2581  -27.7068  -42.9896 N.am      3 UNK        -0.4424 
     20 C          16.3432  -27.0011  -42.3089 C.2       2 UNK         0.4918 
     21 O          15.8950  -27.3401  -41.2129 O.2       2 UNK        -0.4875 
     22 CA         15.8741  -25.6720  -42.9481 C.3       2 UNK         0.0481 
     23 CB         15.5533  -24.6042  -41.8814 C.3       2 UNK        -0.1831 
     24 N          16.7919  -25.1146  -43.9575 N.am      2 UNK        -0.4498 
     25 C          18.0896  -24.8043  -43.7926 C.2       1 UNK         0.5027 
     26 O          18.7058  -24.9649  -42.7382 O.2       1 UNK        -0.4969 
     27 C          18.9063  -28.6171  -41.3235 C.2       3 UNK         0.5005 
     28 O          19.2692  -29.5458  -40.6005 O.2       3 UNK        -0.5279 
     29 N          19.3152  -27.3517  -41.1443 N.am      4 UNK        -0.4463 
     30 CA         20.2449  -26.8919  -40.1105 C.3       4 UNK         0.0283 
     31 CB         19.6857  -25.6062  -39.4733 C.3       4 UNK        -0.1875 
     32 C          21.6571  -26.6921  -40.6929 C.2       4 UNK         0.4949 
     33 O          22.3711  -25.7768  -40.2795 O.2       4 UNK        -0.5039 
     34 N          22.0340  -27.5449  -41.6551 N.am      5 UNK        -0.4663 
     35 CA         23.3537  -27.5812  -42.2853 C.3       5 UNK         0.0242 
     36 CB         23.2869  -28.5125  -43.5069 C.3       5 UNK        -0.1982 
     37 C          24.4386  -28.0591  -41.3050 C.2       5 UNK         0.5017 
     38 O          24.1427  -28.8402  -40.3973 O.2       5 UNK        -0.5012 
     39 N          25.6858  -27.6263  -41.5387 N.am      6 UNK        -0.4439 
     40 CA         26.8613  -27.9201  -40.7049 C.3       6 UNK         0.0297 
     41 CB         28.0709  -27.1397  -41.2448 C.3       6 UNK        -0.2006 
     42 C          27.2077  -29.4162  -40.5687 C.2       6 UNK         0.4892 
     43 O          27.8411  -29.7994  -39.5849 O.2       6 UNK        -0.5089 
     44 N          26.7726  -30.2321  -41.5384 N.am      7 UNK        -0.4243 
     45 CA         26.8821  -31.6924  -41.5212 C.3       7 UNK         0.0196 
     46 CB         26.6968  -32.2160  -42.9555 C.3       7 UNK        -0.2007 
     47 C          25.8878  -32.3802  -40.5628 C.2       7 UNK         0.5020 
     48 O          26.0374  -33.5784  -40.3232 O.2       7 UNK        -0.5147 
     49 N          24.8884  -31.6380  -40.0547 N.am      8 UNK        -0.4734 
     50 CA         23.7949  -32.0887  -39.1792 C.3       8 UNK         0.0238 
     51 CB         24.3352  -32.5549  -37.8102 C.3       8 UNK        -0.1912 
     52 C          22.8653  -33.1254  -39.8440 C.2       8 UNK         0.5038 
     53 O          22.2788  -33.9616  -39.1545 O.2       8 UNK        -0.5046 
     54 N          22.7512  -33.0458  -41.1747 N.am      9 UNK        -0.4200 
     55 CA         21.9281  -33.9134  -42.0283 C.3       9 UNK         0.0839 
     56 C          20.3996  -33.6262  -41.9953 C.2       9 UNK         0.5513 
     57 N          19.9301  -32.5743  -41.3388 N.am      9 UNK        -0.7519 
     58 O          19.6214  -34.3906  -42.5596 O.2       9 UNK        -0.4960 
     59 C59        22.4951  -33.9812  -43.4721 C.3       10 UNK        -0.0876 
     60 S60        22.8449  -32.3464  -44.2189 S.3       10 UNK        -0.2414 
     61 C61        21.9334  -32.4128  -45.7915 C.3       10 UNK         0.0169 
     62 H62        16.7474  -21.2816  -46.7570 H         1 UNK         0.0903 
     63 H63        16.2448  -20.5991  -45.2094 H         1 UNK         0.0903 
     64 H64        17.7079  -20.0086  -46.0019 H         1 UNK         0.0903 
     65 H65        17.6856  -23.2923  -46.5311 H         1 UNK         0.3096 
     66 H66        19.7916  -23.8780  -44.6816 H         1 UNK         0.1121 
     67 H67        18.1683  -25.6592  -46.5597 H         1 UNK         0.0849 
     68 H68        19.7127  -24.9290  -46.9022 H         1 UNK         0.0849 
     69 H69        18.7320  -27.7746  -47.3394 H         1 UNK         0.0865 
     70 H70        20.4565  -27.9067  -47.5730 H         1 UNK         0.0865 
     71 H71        21.6897  -29.8376  -46.6410 H         1 UNK         0.1346 
     72 H72        19.4473  -33.0222  -44.8511 H         1 UNK         0.1412 
     73 H73        17.5100  -29.3280  -45.8552 H         1 UNK         0.1426 
     74 H74        17.2384  -32.6106  -44.0082 H         1 UNK         0.0716 
     75 H75        16.4348  -32.1765  -45.4980 H         1 UNK         0.0716 
     76 H76        17.6901  -31.0315  -42.1125 H         1 UNK         0.0695 
     77 H77        16.4276  -30.0171  -41.4710 H         1 UNK         0.0695 
     78 H78        18.6842  -29.1342  -43.3295 H         1 UNK         0.0983 
     79 H79        17.5554  -27.3407  -43.8820 H         1 UNK         0.3095 
     80 H80        14.9476  -25.9030  -43.4754 H         1 UNK         0.0454 
     81 H81        14.7656  -24.9434  -41.2075 H         1 UNK         0.0851 
     82 H82        15.2071  -23.6773  -42.3384 H         1 UNK         0.0851 
     83 H83        16.4256  -24.3706  -41.2699 H         1 UNK         0.0851 
     84 H84        16.3840  -24.9458  -44.8668 H         1 UNK         0.2976 
     85 H85        19.0067  -26.6349  -41.7973 H         1 UNK         0.3116 
     86 H86        20.3308  -27.6419  -39.3218 H         1 UNK         0.0646 
     87 H87        18.6782  -25.7609  -39.0870 H         1 UNK         0.0847 
     88 H88        19.6469  -24.7848  -40.1897 H         1 UNK         0.0847 
     89 H89        20.3057  -25.2809  -38.6371 H         1 UNK         0.0847 
     90 H90        21.3953  -28.2857  -41.9017 H         1 UNK         0.3040 
     91 H91        23.5992  -26.5703  -42.6185 H         1 UNK         0.1015 
     92 H92        24.2433  -28.5517  -44.0296 H         1 UNK         0.0786 
     93 H93        22.5414  -28.1726  -44.2264 H         1 UNK         0.0786 
     94 H94        23.0296  -29.5323  -43.2193 H         1 UNK         0.0786 
     95 H95        25.8400  -27.0061  -42.3214 H         1 UNK         0.3172 
     96 H96        26.6422  -27.5527  -39.7001 H         1 UNK         0.0595 
     97 H97        28.9545  -27.3129  -40.6285 H         1 UNK         0.0839 
     98 H98        27.8858  -26.0653  -41.2431 H         1 UNK         0.0839 
     99 H99        28.3224  -27.4376  -42.2636 H         1 UNK         0.0839 
    100 H100       26.2721  -29.8224  -42.3132 H         1 UNK         0.2998 
    101 H101       27.8872  -31.9592  -41.1872 H         1 UNK         0.0822 
    102 H102       26.7851  -33.3028  -42.9921 H         1 UNK         0.0787 
    103 H103       27.4533  -31.8096  -43.6271 H         1 UNK         0.0787 
    104 H104       25.7172  -31.9558  -43.3568 H         1 UNK         0.0787 
    105 H105       24.8467  -30.6521  -40.3017 H         1 UNK         0.3055 
    106 H106       23.1737  -31.2091  -39.0008 H         1 UNK         0.1106 
    107 H107       24.9809  -31.8002  -37.3611 H         1 UNK         0.0828 
    108 H108       23.5196  -32.7391  -37.1099 H         1 UNK         0.0828 
    109 H109       24.9059  -33.4802  -37.8920 H         1 UNK         0.0828 
    110 H110       23.2599  -32.3212  -41.6588 H         1 UNK         0.2931 
    111 H111       22.0218  -34.9220  -41.6209 H         1 UNK         0.0412 
    112 H112       18.9372  -32.4157  -41.3087 H         1 UNK         0.3472 
    113 H113       20.5505  -31.9282  -40.8784 H         1 UNK         0.3472 
    114 H114       21.8407  -34.5714  -44.1154 H         1 UNK         0.0970 
    115 H115       23.4390  -34.5279  -43.4533 H         1 UNK         0.0970 
    116 H116       21.6600  -33.4372  -46.0457 H         1 UNK         0.0612 
    117 H117       22.6031  -32.0817  -46.5866 H         1 UNK         0.0612 
@<TRIPOS>BOND
     1    1    2 1    
     2    1   62 1    
     3    1   63 1    
     4    1   64 1    
     5    2    3 2    
     6    2    4 am   BACKBONE|DICT|INTERRES
     7    4    5 1    
     8    4   65 1    
     9    5    6 1    
    10    5   25 1    
    11    5   66 1    
    12    6    7 1    
    13    6   67 1    
    14    6   68 1    
    15    7    8 1    
    16    8    9 1    
    17    8   69 1    
    18    8   70 1    
    19    9   10 ar   
    20    9   14 ar   
    21   10   11 ar   
    22   10   71 1    
    23   11   12 ar   
    24   11   61 1    
    25   12   13 ar   
    26   12   72 1    
    27   13   14 ar   
    28   13   15 1    
    29   14   73 1    
    30   15   16 1    
    31   15   74 1    
    32   15   75 1    
    33   16   17 1    
    34   17   18 1    
    35   17   76 1    
    36   17   77 1    
    37   18   19 1    
    38   18   27 1    
    39   18   78 1    
    40   19   20 am   BACKBONE|DICT|INTERRES
    41   19   79 1    
    42   20   21 2    
    43   20   22 1    
    44   22   23 1    
    45   22   24 1    
    46   22   80 1    
    47   23   81 1    
    48   23   82 1    
    49   23   83 1    
    50   24   25 am   BACKBONE|DICT|INTERRES
    51   24   84 1    
    52   25   26 2    
    53   27   28 2    
    54   27   29 am   BACKBONE|DICT|INTERRES
    55   29   30 1    
    56   29   85 1    
    57   30   31 1    
    58   30   32 1    
    59   30   86 1    
    60   31   87 1    
    61   31   88 1    
    62   31   89 1    
    63   32   33 2    
    64   32   34 am   BACKBONE|DICT|INTERRES
    65   34   35 1    
    66   34   90 1    
    67   35   36 1    
    68   35   37 1    
    69   35   91 1    
    70   36   92 1    
    71   36   93 1    
    72   36   94 1    
    73   37   38 2    
    74   37   39 am   BACKBONE|DICT|INTERRES
    75   39   40 1    
    76   39   95 1    
    77   40   41 1    
    78   40   42 1    
    79   40   96 1    
    80   41   97 1    
    81   41   98 1    
    82   41   99 1    
    83   42   43 2    
    84   42   44 am   BACKBONE|DICT|INTERRES
    85   44   45 1    
    86   44  100 1    
    87   45   46 1    
    88   45   47 1    
    89   45  101 1    
    90   46  102 1    
    91   46  103 1    
    92   46  104 1    
    93   47   48 2    
    94   47   49 am   BACKBONE|DICT|INTERRES
    95   49   50 1    
    96   49  105 1    
    97   50   51 1    
    98   50   52 1    
    99   50  106 1    
   100   51  107 1    
   101   51  108 1    
   102   51  109 1    
   103   52   53 2    
   104   52   54 am   BACKBONE|DICT|INTERRES
   105   54   55 1    
   106   54  110 1    
   107   55   56 1    
   108   55   59 1    
   109   55  111 1    
   110   56   57 am   BACKBONE|DICT|INTERRES
   111   56   58 2    
   112   57  112 1    
   113   57  113 1    
   114   59   60 1    
   115   59  114 1    
   116   59  115 1    
   117   60   61 1    
   118   61  116 1    
   119   61  117 1    
@<TRIPOS>SUBSTRUCTURE
     1 UNK         1 GROUP             0       ****    0 ROOT    
