@<TRIPOS>MOLECULE
3R8
117   119    1
SMALL
USER_CHARGES


@<TRIPOS>ATOM
      1 CA         21.0904  -25.1393  -40.8242 C.3       0 UNK        -0.2013 
      2 C          20.1925  -25.6627  -41.9340 C.2       0 UNK         0.4866 
      3 O          20.6434  -26.4709  -42.7481 O.2       0 UNK        -0.5176 
      4 N          18.9324  -25.2022  -41.9681 N.am      1 UNK        -0.4884 
      5 CA         17.9123  -25.5266  -42.9798 C.3       1 UNK         0.0853 
      6 C6         17.5497  -27.0391  -42.9878 C.3       10 UNK        -0.0849 
      7 S7         15.9199  -27.3906  -43.7323 S.3       10 UNK        -0.2776 
      8 C8         15.9007  -29.2159  -43.7463 C.3       10 UNK         0.0316 
      9 C9         17.0915  -29.8626  -44.4538 C.ar      10 UNK        -0.0863 
     10 C10        17.7044  -30.9766  -43.8727 C.ar      10 UNK        -0.1009 
     11 C11        18.7801  -31.6116  -44.4989 C.ar      10 UNK        -0.0712 
     12 C12        19.2491  -31.1188  -45.7206 C.ar      10 UNK        -0.0894 
     13 C13        18.6436  -30.0115  -46.3243 C.ar      10 UNK        -0.0745 
     14 C14        17.5600  -29.3927  -45.6880 C.ar      10 UNK        -0.0972 
     15 C15        19.1212  -29.5411  -47.6961 C.3       10 UNK         0.0209 
     16 S16        19.5123  -27.7626  -47.7759 S.3       10 UNK        -0.2568 
     17 C17        21.0247  -27.6620  -46.7624 C.3       10 UNK        -0.0983 
     18 CA         21.6282  -26.2322  -46.7372 C.3       3 UNK         0.0876 
     19 N          20.6450  -25.2604  -46.2553 N.am      3 UNK        -0.4424 
     20 C          20.7426  -23.9273  -46.2543 C.2       2 UNK         0.4918 
     21 O          21.6948  -23.3122  -46.7335 O.2       2 UNK        -0.4875 
     22 CA         19.6068  -23.1436  -45.5621 C.3       2 UNK         0.0481 
     23 CB         18.5385  -22.7044  -46.5819 C.3       2 UNK        -0.1831 
     24 N          19.0052  -23.8308  -44.4026 N.am      2 UNK        -0.4498 
     25 C          18.2859  -24.9667  -44.3755 C.2       1 UNK         0.5027 
     26 O          17.9783  -25.5829  -45.3953 O.2       1 UNK        -0.4969 
     27 C          22.9281  -26.2282  -45.9032 C.2       3 UNK         0.5005 
     28 O          23.9595  -26.6794  -46.4033 O.2       3 UNK        -0.5279 
     29 N          22.8426  -25.7549  -44.6474 N.am      4 UNK        -0.4463 
     30 CA         23.8577  -25.8245  -43.5870 C.3       4 UNK         0.0283 
     31 CB         25.1347  -25.0447  -43.9649 C.3       4 UNK        -0.1875 
     32 C          24.1315  -27.2813  -43.1661 C.2       4 UNK         0.4949 
     33 O          25.2667  -27.6334  -42.8427 O.2       4 UNK        -0.5039 
     34 N          23.0743  -28.1017  -43.2046 N.am      5 UNK        -0.4663 
     35 CA         23.1251  -29.5480  -43.0061 C.3       5 UNK         0.0242 
     36 CB         22.3819  -30.2272  -44.1665 C.3       5 UNK        -0.1982 
     37 C          22.5086  -29.9800  -41.6723 C.2       5 UNK         0.5017 
     38 O          22.8817  -31.0424  -41.1745 O.2       5 UNK        -0.5012 
     39 N          21.5879  -29.1769  -41.1115 N.am      6 UNK        -0.4439 
     40 CA         20.7815  -29.5185  -39.9278 C.3       6 UNK         0.0297 
     41 CB         19.7752  -28.3966  -39.6372 C.3       6 UNK        -0.2006 
     42 C          21.5838  -29.8539  -38.6580 C.2       6 UNK         0.4892 
     43 O          21.0883  -30.6026  -37.8163 O.2       6 UNK        -0.5089 
     44 N          22.8150  -29.3351  -38.5573 N.am      7 UNK        -0.4243 
     45 CA         23.7785  -29.6752  -37.5078 C.3       7 UNK         0.0196 
     46 CB         24.9762  -28.7157  -37.5989 C.3       7 UNK        -0.2007 
     47 C          24.2571  -31.1403  -37.5615 C.2       7 UNK         0.5020 
     48 O          24.6849  -31.6637  -36.5323 O.2       7 UNK        -0.5147 
     49 N          24.1835  -31.7702  -38.7421 N.am      8 UNK        -0.4734 
     50 CA         24.5424  -33.1678  -38.9709 C.3       8 UNK         0.0238 
     51 CB         25.4459  -33.2683  -40.2122 C.3       8 UNK        -0.1912 
     52 C          23.2914  -34.0416  -39.1370 C.2       8 UNK         0.5038 
     53 O          23.2021  -35.0776  -38.4764 O.2       8 UNK        -0.5046 
     54 N          22.3631  -33.6335  -40.0162 N.am      9 UNK        -0.4200 
     55 CA         21.1545  -34.4093  -40.3468 C.3       9 UNK         0.0839 
     56 C          19.9791  -34.2800  -39.3356 C.2       9 UNK         0.5513 
     57 N          20.0083  -33.3579  -38.3818 N.am      9 UNK        -0.7519 
     58 O          19.0268  -35.0530  -39.4058 O.2       9 UNK        -0.4960 
     59 C59        20.7111  -34.2168  -41.8223 C.3       10 UNK        -0.0876 
     60 S60        20.0815  -32.5543  -42.2272 S.3       10 UNK        -0.2414 
     61 C61        19.3954  -32.8620  -43.8829 C.3       10 UNK         0.0169 
     62 H62        20.5132  -24.8367  -39.9507 H         1 UNK         0.0903 
     63 H63        21.6578  -24.2784  -41.1760 H         1 UNK         0.0903 
     64 H64        21.7980  -25.9064  -40.5112 H         1 UNK         0.0903 
     65 H65        18.6338  -24.5479  -41.2567 H         1 UNK         0.3096 
     66 H66        17.0186  -24.9771  -42.6789 H         1 UNK         0.1121 
     67 H67        18.3253  -27.6153  -43.4954 H         1 UNK         0.0849 
     68 H68        17.5138  -27.4157  -41.9656 H         1 UNK         0.0849 
     69 H69        15.8395  -29.5594  -42.7124 H         1 UNK         0.0865 
     70 H70        14.9844  -29.5511  -44.2337 H         1 UNK         0.0865 
     71 H71        17.3392  -31.3640  -42.9311 H         1 UNK         0.1346 
     72 H72        20.0730  -31.6150  -46.2151 H         1 UNK         0.1412 
     73 H73        17.0826  -28.5417  -46.1551 H         1 UNK         0.1426 
     74 H74        19.9967  -30.1057  -48.0205 H         1 UNK         0.0716 
     75 H75        18.3363  -29.7533  -48.4230 H         1 UNK         0.0716 
     76 H76        21.7482  -28.3783  -47.1569 H         1 UNK         0.0695 
     77 H77        20.7779  -27.9925  -45.7511 H         1 UNK         0.0695 
     78 H78        21.8997  -25.9487  -47.7561 H         1 UNK         0.0983 
     79 H79        19.7681  -25.6524  -45.9213 H         1 UNK         0.3095 
     80 H80        20.0609  -22.2379  -45.1573 H         1 UNK         0.0454 
     81 H81        17.7590  -22.1076  -46.1086 H         1 UNK         0.0851 
     82 H82        18.0613  -23.5549  -47.0694 H         1 UNK         0.0851 
     83 H83        18.9825  -22.0922  -47.3679 H         1 UNK         0.0851 
     84 H84        19.2289  -23.4208  -43.5063 H         1 UNK         0.2976 
     85 H85        21.9225  -25.4701  -44.3365 H         1 UNK         0.3116 
     86 H86        23.4232  -25.3339  -42.7158 H         1 UNK         0.0646 
     87 H87        24.9007  -24.0274  -44.2782 H         1 UNK         0.0847 
     88 H88        25.8126  -24.9738  -43.1135 H         1 UNK         0.0847 
     89 H89        25.6840  -25.5276  -44.7734 H         1 UNK         0.0847 
     90 H90        22.1708  -27.6938  -43.4207 H         1 UNK         0.3040 
     91 H91        24.1602  -29.8971  -43.0142 H         1 UNK         0.1015 
     92 H92        21.3322  -29.9330  -44.1936 H         1 UNK         0.0786 
     93 H93        22.4129  -31.3136  -44.0699 H         1 UNK         0.0786 
     94 H94        22.8279  -29.9732  -45.1282 H         1 UNK         0.0786 
     95 H95        21.3398  -28.3268  -41.6004 H         1 UNK         0.3172 
     96 H96        20.2120  -30.4137  -40.1828 H         1 UNK         0.0595 
     97 H97        19.1025  -28.6802  -38.8264 H         1 UNK         0.0839 
     98 H98        19.1556  -28.1853  -40.5070 H         1 UNK         0.0839 
     99 H99        20.2717  -27.4752  -39.3348 H         1 UNK         0.0839 
    100 H100       23.1400  -28.7340  -39.3001 H         1 UNK         0.2998 
    101 H101       23.2900  -29.5268  -36.5423 H         1 UNK         0.0822 
    102 H102       24.6639  -27.6776  -37.4833 H         1 UNK         0.0787 
    103 H103       25.7027  -28.9231  -36.8118 H         1 UNK         0.0787 
    104 H104       25.4954  -28.8078  -38.5539 H         1 UNK         0.0787 
    105 H105       23.7769  -31.2818  -39.5356 H         1 UNK         0.3055 
    106 H106       25.1041  -33.5583  -38.1192 H         1 UNK         0.1106 
    107 H107       26.3696  -32.7065  -40.0730 H         1 UNK         0.0828 
    108 H108       25.7242  -34.3045  -40.4092 H         1 UNK         0.0828 
    109 H109       24.9558  -32.8858  -41.1083 H         1 UNK         0.0828 
    110 H110       22.4869  -32.7529  -40.5092 H         1 UNK         0.2931 
    111 H111       21.4417  -35.4610  -40.2832 H         1 UNK         0.0412 
    112 H112       19.2385  -33.3017  -37.7345 H         1 UNK         0.3472 
    113 H113       20.7535  -32.6770  -38.3254 H         1 UNK         0.3472 
    114 H114       21.5487  -34.4346  -42.4867 H         1 UNK         0.0970 
    115 H115       19.9409  -34.9489  -42.0725 H         1 UNK         0.0970 
    116 H116       20.1862  -33.2580  -44.5219 H         1 UNK         0.0612 
    117 H117       18.6296  -33.6361  -43.8164 H         1 UNK         0.0612 
@<TRIPOS>BOND
     1    1    2 1    
     2    1   62 1    
     3    1   63 1    
     4    1   64 1    
     5    2    3 2    
     6    2    4 am   BACKBONE|DICT|INTERRES
     7    4    5 1    
     8    4   65 1    
     9    5    6 1    
    10    5   25 1    
    11    5   66 1    
    12    6    7 1    
    13    6   67 1    
    14    6   68 1    
    15    7    8 1    
    16    8    9 1    
    17    8   69 1    
    18    8   70 1    
    19    9   10 ar   
    20    9   14 ar   
    21   10   11 ar   
    22   10   71 1    
    23   11   12 ar   
    24   11   61 1    
    25   12   13 ar   
    26   12   72 1    
    27   13   14 ar   
    28   13   15 1    
    29   14   73 1    
    30   15   16 1    
    31   15   74 1    
    32   15   75 1    
    33   16   17 1    
    34   17   18 1    
    35   17   76 1    
    36   17   77 1    
    37   18   19 1    
    38   18   27 1    
    39   18   78 1    
    40   19   20 am   BACKBONE|DICT|INTERRES
    41   19   79 1    
    42   20   21 2    
    43   20   22 1    
    44   22   23 1    
    45   22   24 1    
    46   22   80 1    
    47   23   81 1    
    48   23   82 1    
    49   23   83 1    
    50   24   25 am   BACKBONE|DICT|INTERRES
    51   24   84 1    
    52   25   26 2    
    53   27   28 2    
    54   27   29 am   BACKBONE|DICT|INTERRES
    55   29   30 1    
    56   29   85 1    
    57   30   31 1    
    58   30   32 1    
    59   30   86 1    
    60   31   87 1    
    61   31   88 1    
    62   31   89 1    
    63   32   33 2    
    64   32   34 am   BACKBONE|DICT|INTERRES
    65   34   35 1    
    66   34   90 1    
    67   35   36 1    
    68   35   37 1    
    69   35   91 1    
    70   36   92 1    
    71   36   93 1    
    72   36   94 1    
    73   37   38 2    
    74   37   39 am   BACKBONE|DICT|INTERRES
    75   39   40 1    
    76   39   95 1    
    77   40   41 1    
    78   40   42 1    
    79   40   96 1    
    80   41   97 1    
    81   41   98 1    
    82   41   99 1    
    83   42   43 2    
    84   42   44 am   BACKBONE|DICT|INTERRES
    85   44   45 1    
    86   44  100 1    
    87   45   46 1    
    88   45   47 1    
    89   45  101 1    
    90   46  102 1    
    91   46  103 1    
    92   46  104 1    
    93   47   48 2    
    94   47   49 am   BACKBONE|DICT|INTERRES
    95   49   50 1    
    96   49  105 1    
    97   50   51 1    
    98   50   52 1    
    99   50  106 1    
   100   51  107 1    
   101   51  108 1    
   102   51  109 1    
   103   52   53 2    
   104   52   54 am   BACKBONE|DICT|INTERRES
   105   54   55 1    
   106   54  110 1    
   107   55   56 1    
   108   55   59 1    
   109   55  111 1    
   110   56   57 am   BACKBONE|DICT|INTERRES
   111   56   58 2    
   112   57  112 1    
   113   57  113 1    
   114   59   60 1    
   115   59  114 1    
   116   59  115 1    
   117   60   61 1    
   118   61  116 1    
   119   61  117 1    
@<TRIPOS>SUBSTRUCTURE
     1 UNK         1 GROUP             0       ****    0 ROOT    
