@<TRIPOS>MOLECULE
3R8
117   119    1
SMALL
USER_CHARGES


@<TRIPOS>ATOM
      1 CA         17.3689  -24.2981  -45.5494 C.3       0 UNK        -0.2013 
      2 C          15.8511  -24.4258  -45.6318 C.2       0 UNK         0.4866 
      3 O          15.1706  -23.4180  -45.8145 O.2       0 UNK        -0.5176 
      4 N          15.2716  -25.6287  -45.5215 N.am      1 UNK        -0.4884 
      5 CA         15.9285  -26.9123  -45.2378 C.3       1 UNK         0.0853 
      6 C6         15.0866  -28.0971  -45.7804 C.3       10 UNK        -0.0849 
      7 S7         15.3379  -28.2667  -47.5774 S.3       10 UNK        -0.2776 
      8 C8         16.4166  -29.7378  -47.6692 C.3       10 UNK         0.0316 
      9 C9         17.6750  -29.6325  -46.8095 C.ar      10 UNK        -0.0863 
     10 C10        17.9339  -30.5931  -45.8274 C.ar      10 UNK        -0.1009 
     11 C11        19.1092  -30.5552  -45.0692 C.ar      10 UNK        -0.0712 
     12 C12        20.0201  -29.5100  -45.2835 C.ar      10 UNK        -0.0894 
     13 C13        19.7700  -28.5353  -46.2564 C.ar      10 UNK        -0.0745 
     14 C14        18.6024  -28.6092  -47.0220 C.ar      10 UNK        -0.0972 
     15 C15        20.7791  -27.4274  -46.5257 C.3       10 UNK         0.0209 
     16 S16        20.5260  -25.9857  -45.4410 S.3       10 UNK        -0.2568 
     17 C17        21.5540  -26.4111  -43.9958 C.3       10 UNK        -0.0983 
     18 CA         20.7679  -26.4300  -42.6597 C.3       3 UNK         0.0876 
     19 N          19.6114  -27.3243  -42.7210 N.am      3 UNK        -0.4424 
     20 C          18.6912  -27.4988  -41.7625 C.2       2 UNK         0.4918 
     21 O          18.6927  -26.9056  -40.6833 O.2       2 UNK        -0.4875 
     22 CA         17.5623  -28.4856  -42.1127 C.3       2 UNK         0.0481 
     23 CB         16.4918  -28.6194  -41.0082 C.3       2 UNK        -0.1831 
     24 N          16.9703  -28.1675  -43.4182 N.am      2 UNK        -0.4498 
     25 C          16.2616  -27.0730  -43.7401 C.2       1 UNK         0.5027 
     26 O          15.9044  -26.2154  -42.9290 O.2       1 UNK        -0.4969 
     27 C          21.7138  -26.8284  -41.5109 C.2       3 UNK         0.5005 
     28 O          22.3115  -27.9020  -41.5781 O.2       3 UNK        -0.5279 
     29 N          21.8733  -25.9559  -40.5060 N.am      4 UNK        -0.4463 
     30 CA         22.7281  -26.1871  -39.3323 C.3       4 UNK         0.0283 
     31 CB         22.4996  -25.0602  -38.3116 C.3       4 UNK        -0.1875 
     32 C          24.2302  -26.3249  -39.6532 C.2       4 UNK         0.4949 
     33 O          24.9702  -26.8913  -38.8491 O.2       4 UNK        -0.5039 
     34 N          24.6531  -25.8066  -40.8141 N.am      5 UNK        -0.4663 
     35 CA         26.0145  -25.9245  -41.3373 C.3       5 UNK         0.0242 
     36 CB         26.2444  -24.8089  -42.3708 C.3       5 UNK        -0.1982 
     37 C          26.3199  -27.3011  -41.9589 C.2       5 UNK         0.5017 
     38 O          27.4979  -27.6189  -42.1304 O.2       5 UNK        -0.5012 
     39 N          25.2854  -28.0810  -42.3055 N.am      6 UNK        -0.4439 
     40 CA         25.4213  -29.4218  -42.8759 C.3       6 UNK         0.0297 
     41 CB         24.2832  -29.6600  -43.8830 C.3       6 UNK        -0.2006 
     42 C          25.4087  -30.4811  -41.7632 C.2       6 UNK         0.4892 
     43 O          24.8161  -30.2606  -40.7050 O.2       6 UNK        -0.5089 
     44 N          26.0579  -31.6221  -42.0281 N.am      7 UNK        -0.4243 
     45 CA         26.0958  -32.7786  -41.1298 C.3       7 UNK         0.0196 
     46 CB         27.1682  -33.7659  -41.6181 C.3       7 UNK        -0.2007 
     47 C          24.7244  -33.4682  -41.0524 C.2       7 UNK         0.5020 
     48 O          24.0416  -33.5720  -42.0726 O.2       7 UNK        -0.5147 
     49 N          24.3496  -33.9219  -39.8481 N.am      8 UNK        -0.4734 
     50 CA         23.0973  -34.6013  -39.4639 C.3       8 UNK         0.0238 
     51 CB         22.9154  -35.9238  -40.2355 C.3       8 UNK        -0.1912 
     52 C          21.8198  -33.7384  -39.5430 C.2       8 UNK         0.5038 
     53 O          20.9067  -33.9585  -38.7462 O.2       8 UNK        -0.5046 
     54 N          21.7733  -32.7867  -40.4801 N.am      9 UNK        -0.4200 
     55 CA         20.7092  -31.7957  -40.6823 C.3       9 UNK         0.0839 
     56 C          20.4603  -30.9038  -39.4352 C.2       9 UNK         0.5513 
     57 N          19.2041  -30.6056  -39.1326 N.am      9 UNK        -0.7519 
     58 O          21.3883  -30.4558  -38.7661 O.2       9 UNK        -0.4960 
     59 C59        21.0156  -30.9173  -41.9202 C.3       10 UNK        -0.0876 
     60 S60        21.0597  -31.8838  -43.4654 S.3       10 UNK        -0.2414 
     61 C61        19.3458  -31.6862  -44.0634 C.3       10 UNK         0.0169 
     62 H62        17.6693  -23.2524  -45.6127 H         1 UNK         0.0903 
     63 H63        17.8440  -24.8278  -46.3745 H         1 UNK         0.0903 
     64 H64        17.7498  -24.6920  -44.6079 H         1 UNK         0.0903 
     65 H65        14.2638  -25.6711  -45.5676 H         1 UNK         0.3096 
     66 H66        16.8939  -26.9177  -45.7446 H         1 UNK         0.1121 
     67 H67        15.3353  -29.0483  -45.3072 H         1 UNK         0.0849 
     68 H68        14.0243  -27.9461  -45.5802 H         1 UNK         0.0849 
     69 H69        15.8302  -30.6151  -47.3909 H         1 UNK         0.0865 
     70 H70        16.7125  -29.8909  -48.7079 H         1 UNK         0.0865 
     71 H71        17.2294  -31.3996  -45.6719 H         1 UNK         0.1346 
     72 H72        20.9389  -29.4608  -44.7170 H         1 UNK         0.1412 
     73 H73        18.4141  -27.8706  -47.7900 H         1 UNK         0.1426 
     74 H74        20.6892  -27.0939  -47.5607 H         1 UNK         0.0716 
     75 H75        21.7978  -27.8055  -46.4279 H         1 UNK         0.0716 
     76 H76        22.0386  -27.3731  -44.1704 H         1 UNK         0.0695 
     77 H77        22.3618  -25.6785  -43.9455 H         1 UNK         0.0695 
     78 H78        20.3889  -25.4231  -42.4723 H         1 UNK         0.0983 
     79 H79        19.5112  -27.8348  -43.5854 H         1 UNK         0.3095 
     80 H80        18.0295  -29.4638  -42.2216 H         1 UNK         0.0454 
     81 H81        16.0077  -27.6687  -40.7848 H         1 UNK         0.0851 
     82 H82        15.7176  -29.3328  -41.2894 H         1 UNK         0.0851 
     83 H83        16.9372  -28.9732  -40.0782 H         1 UNK         0.0851 
     84 H84        17.2102  -28.8087  -44.1631 H         1 UNK         0.2976 
     85 H85        21.3402  -25.0975  -40.5134 H         1 UNK         0.3116 
     86 H86        22.4115  -27.1286  -38.8776 H         1 UNK         0.0646 
     87 H87        23.0968  -25.2208  -37.4128 H         1 UNK         0.0847 
     88 H88        21.4565  -25.0120  -37.9986 H         1 UNK         0.0847 
     89 H89        22.7769  -24.0859  -38.7159 H         1 UNK         0.0847 
     90 H90        23.9771  -25.3397  -41.4002 H         1 UNK         0.3040 
     91 H91        26.7180  -25.7784  -40.5142 H         1 UNK         0.1015 
     92 H92        26.1002  -23.8225  -41.9295 H         1 UNK         0.0786 
     93 H93        25.5680  -24.9002  -43.2217 H         1 UNK         0.0786 
     94 H94        27.2632  -24.8409  -42.7601 H         1 UNK         0.0786 
     95 H95        24.3481  -27.8154  -42.0201 H         1 UNK         0.3172 
     96 H96        26.3675  -29.4998  -43.4158 H         1 UNK         0.0595 
     97 H97        24.3241  -30.6693  -44.2951 H         1 UNK         0.0839 
     98 H98        24.3452  -28.9649  -44.7202 H         1 UNK         0.0839 
     99 H99        23.3032  -29.5381  -43.4253 H         1 UNK         0.0839 
    100 H100       26.4846  -31.7416  -42.9354 H         1 UNK         0.2998 
    101 H101       26.3746  -32.4259  -40.1342 H         1 UNK         0.0822 
    102 H102       26.9439  -34.1438  -42.6167 H         1 UNK         0.0787 
    103 H103       28.1537  -33.3005  -41.6477 H         1 UNK         0.0787 
    104 H104       27.2376  -34.6274  -40.9525 H         1 UNK         0.0787 
    105 H105       24.9837  -33.7550  -39.0778 H         1 UNK         0.3055 
    106 H106       23.2175  -34.8569  -38.4095 H         1 UNK         0.1106 
    107 H107       22.7521  -35.7574  -41.3006 H         1 UNK         0.0828 
    108 H108       23.7855  -36.5710  -40.1258 H         1 UNK         0.0828 
    109 H109       22.0524  -36.4758  -39.8609 H         1 UNK         0.0828 
    110 H110       22.5531  -32.7388  -41.1268 H         1 UNK         0.2931 
    111 H111       19.7939  -32.3571  -40.8803 H         1 UNK         0.0412 
    112 H112       18.4349  -30.9945  -39.6541 H         1 UNK         0.3472 
    113 H113       19.0227  -30.0195  -38.3328 H         1 UNK         0.3472 
    114 H114       21.9864  -30.4385  -41.7893 H         1 UNK         0.0970 
    115 H115       20.2954  -30.1067  -42.0253 H         1 UNK         0.0970 
    116 H116       19.0696  -32.6297  -44.5368 H         1 UNK         0.0612 
    117 H117       18.6702  -31.5685  -43.2159 H         1 UNK         0.0612 
@<TRIPOS>BOND
     1    1    2 1    
     2    1   62 1    
     3    1   63 1    
     4    1   64 1    
     5    2    3 2    
     6    2    4 am   BACKBONE|DICT|INTERRES
     7    4    5 1    
     8    4   65 1    
     9    5    6 1    
    10    5   25 1    
    11    5   66 1    
    12    6    7 1    
    13    6   67 1    
    14    6   68 1    
    15    7    8 1    
    16    8    9 1    
    17    8   69 1    
    18    8   70 1    
    19    9   10 ar   
    20    9   14 ar   
    21   10   11 ar   
    22   10   71 1    
    23   11   12 ar   
    24   11   61 1    
    25   12   13 ar   
    26   12   72 1    
    27   13   14 ar   
    28   13   15 1    
    29   14   73 1    
    30   15   16 1    
    31   15   74 1    
    32   15   75 1    
    33   16   17 1    
    34   17   18 1    
    35   17   76 1    
    36   17   77 1    
    37   18   19 1    
    38   18   27 1    
    39   18   78 1    
    40   19   20 am   BACKBONE|DICT|INTERRES
    41   19   79 1    
    42   20   21 2    
    43   20   22 1    
    44   22   23 1    
    45   22   24 1    
    46   22   80 1    
    47   23   81 1    
    48   23   82 1    
    49   23   83 1    
    50   24   25 am   BACKBONE|DICT|INTERRES
    51   24   84 1    
    52   25   26 2    
    53   27   28 2    
    54   27   29 am   BACKBONE|DICT|INTERRES
    55   29   30 1    
    56   29   85 1    
    57   30   31 1    
    58   30   32 1    
    59   30   86 1    
    60   31   87 1    
    61   31   88 1    
    62   31   89 1    
    63   32   33 2    
    64   32   34 am   BACKBONE|DICT|INTERRES
    65   34   35 1    
    66   34   90 1    
    67   35   36 1    
    68   35   37 1    
    69   35   91 1    
    70   36   92 1    
    71   36   93 1    
    72   36   94 1    
    73   37   38 2    
    74   37   39 am   BACKBONE|DICT|INTERRES
    75   39   40 1    
    76   39   95 1    
    77   40   41 1    
    78   40   42 1    
    79   40   96 1    
    80   41   97 1    
    81   41   98 1    
    82   41   99 1    
    83   42   43 2    
    84   42   44 am   BACKBONE|DICT|INTERRES
    85   44   45 1    
    86   44  100 1    
    87   45   46 1    
    88   45   47 1    
    89   45  101 1    
    90   46  102 1    
    91   46  103 1    
    92   46  104 1    
    93   47   48 2    
    94   47   49 am   BACKBONE|DICT|INTERRES
    95   49   50 1    
    96   49  105 1    
    97   50   51 1    
    98   50   52 1    
    99   50  106 1    
   100   51  107 1    
   101   51  108 1    
   102   51  109 1    
   103   52   53 2    
   104   52   54 am   BACKBONE|DICT|INTERRES
   105   54   55 1    
   106   54  110 1    
   107   55   56 1    
   108   55   59 1    
   109   55  111 1    
   110   56   57 am   BACKBONE|DICT|INTERRES
   111   56   58 2    
   112   57  112 1    
   113   57  113 1    
   114   59   60 1    
   115   59  114 1    
   116   59  115 1    
   117   60   61 1    
   118   61  116 1    
   119   61  117 1    
@<TRIPOS>SUBSTRUCTURE
     1 UNK         1 GROUP             0       ****    0 ROOT    
