@<TRIPOS>MOLECULE
3R8
117   119    1
SMALL
USER_CHARGES


@<TRIPOS>ATOM
      1 CA         16.4506  -23.0591  -41.5508 C.3       0 UNK        -0.2013 
      2 C          17.2013  -23.4169  -42.8244 C.2       0 UNK         0.4866 
      3 O          17.7687  -22.5348  -43.4696 O.2       0 UNK        -0.5176 
      4 N          17.2003  -24.7025  -43.1956 N.am      1 UNK        -0.4884 
      5 CA         17.9219  -25.2387  -44.3537 C.3       1 UNK         0.0853 
      6 C6         17.4800  -26.6848  -44.6774 C.3       10 UNK        -0.0849 
      7 S7         15.7866  -26.7719  -45.3481 S.3       10 UNK        -0.2776 
      8 C8         15.1350  -28.2947  -44.5720 C.3       10 UNK         0.0316 
      9 C9         16.0847  -29.4921  -44.6291 C.ar      10 UNK        -0.0863 
     10 C10        16.2294  -30.3051  -43.4991 C.ar      10 UNK        -0.1009 
     11 C11        17.1096  -31.3917  -43.5052 C.ar      10 UNK        -0.0712 
     12 C12        17.8389  -31.6709  -44.6635 C.ar      10 UNK        -0.0894 
     13 C13        17.7490  -30.8353  -45.7802 C.ar      10 UNK        -0.0745 
     14 C14        16.8395  -29.7746  -45.7751 C.ar      10 UNK        -0.0972 
     15 C15        18.7281  -31.0119  -46.9342 C.3       10 UNK         0.0209 
     16 S16        20.1457  -29.8527  -46.8161 S.3       10 UNK        -0.2568 
     17 C17        20.6116  -29.9813  -45.0517 C.3       10 UNK        -0.0983 
     18 CA         21.6795  -28.9766  -44.5488 C.3       3 UNK         0.0876 
     19 N          21.4462  -27.6133  -45.0356 N.am      3 UNK        -0.4424 
     20 C          22.1992  -26.5391  -44.7545 C.2       2 UNK         0.4918 
     21 O          23.2341  -26.5768  -44.0906 O.2       2 UNK        -0.4875 
     22 CA         21.6704  -25.1795  -45.2469 C.3       2 UNK         0.0481 
     23 CB         22.1889  -24.8821  -46.6622 C.3       2 UNK        -0.1831 
     24 N          20.2057  -25.0869  -45.2261 N.am      2 UNK        -0.4498 
     25 C          19.4460  -25.2153  -44.1274 C.2       1 UNK         0.5027 
     26 O          19.9037  -25.4021  -42.9966 O.2       1 UNK        -0.4969 
     27 C          21.6992  -29.0269  -43.0067 C.2       3 UNK         0.5005 
     28 O          22.6127  -29.6042  -42.4198 O.2       3 UNK        -0.5279 
     29 N          20.6802  -28.4103  -42.3902 N.am      4 UNK        -0.4463 
     30 CA         20.4846  -28.3474  -40.9439 C.3       4 UNK         0.0283 
     31 CB         19.0364  -27.9335  -40.6383 C.3       4 UNK        -0.1875 
     32 C          21.4847  -27.4009  -40.2668 C.2       4 UNK         0.4949 
     33 O          21.9647  -27.7190  -39.1803 O.2       4 UNK        -0.5039 
     34 N          21.8209  -26.2867  -40.9340 N.am      5 UNK        -0.4663 
     35 CA         22.8587  -25.3427  -40.5049 C.3       5 UNK         0.0242 
     36 CB         22.8311  -24.0987  -41.4063 C.3       5 UNK        -0.1982 
     37 C          24.2627  -25.9743  -40.4845 C.2       5 UNK         0.5017 
     38 O          25.0271  -25.7215  -39.5531 O.2       5 UNK        -0.5012 
     39 N          24.5571  -26.8150  -41.4864 N.am      6 UNK        -0.4439 
     40 CA         25.7678  -27.6377  -41.5658 C.3       6 UNK         0.0297 
     41 CB         25.9651  -28.0871  -43.0235 C.3       6 UNK        -0.2006 
     42 C          25.7418  -28.8664  -40.6340 C.2       6 UNK         0.4892 
     43 O          26.7886  -29.4870  -40.4443 O.2       6 UNK        -0.5089 
     44 N          24.5581  -29.2079  -40.1008 N.am      7 UNK        -0.4243 
     45 CA         24.2315  -30.3999  -39.3079 C.3       7 UNK         0.0196 
     46 CB         24.9669  -30.3846  -37.9514 C.3       7 UNK        -0.2007 
     47 C          24.4326  -31.7126  -40.0917 C.2       7 UNK         0.5020 
     48 O          24.7890  -32.7348  -39.5044 O.2       7 UNK        -0.5147 
     49 N          24.1905  -31.6673  -41.4085 N.am      8 UNK        -0.4734 
     50 CA         24.3682  -32.7861  -42.3358 C.3       8 UNK         0.0238 
     51 CB         24.3872  -32.2519  -43.7777 C.3       8 UNK        -0.1912 
     52 C          23.2920  -33.8696  -42.1748 C.2       8 UNK         0.5038 
     53 O          23.6004  -35.0498  -42.3447 O.2       8 UNK        -0.5046 
     54 N          22.0637  -33.4512  -41.8432 N.am      9 UNK        -0.4200 
     55 CA         20.9229  -34.3336  -41.5556 C.3       9 UNK         0.0839 
     56 C          20.7484  -34.6750  -40.0462 C.2       9 UNK         0.5513 
     57 N          21.6533  -34.2697  -39.1617 N.am      9 UNK        -0.7519 
     58 O          19.7871  -35.3419  -39.6719 O.2       9 UNK        -0.4960 
     59 C59        19.6228  -33.8285  -42.2354 C.3       10 UNK        -0.0876 
     60 S60        19.0143  -32.2108  -41.6360 S.3       10 UNK        -0.2414 
     61 C61        17.2925  -32.2382  -42.2504 C.3       10 UNK         0.0169 
     62 H62        15.6504  -22.3526  -41.7719 H         1 UNK         0.0903 
     63 H63        16.0076  -23.9355  -41.0777 H         1 UNK         0.0903 
     64 H64        17.1289  -22.5942  -40.8357 H         1 UNK         0.0903 
     65 H65        16.7190  -25.3832  -42.6269 H         1 UNK         0.3096 
     66 H66        17.7004  -24.6000  -45.2115 H         1 UNK         0.1121 
     67 H67        17.5614  -27.3121  -43.7878 H         1 UNK         0.0849 
     68 H68        18.1322  -27.1377  -45.4268 H         1 UNK         0.0849 
     69 H69        14.1988  -28.5661  -45.0615 H         1 UNK         0.0865 
     70 H70        14.8819  -28.0610  -43.5365 H         1 UNK         0.0865 
     71 H71        15.6641  -30.0831  -42.6040 H         1 UNK         0.1346 
     72 H72        18.5417  -32.4902  -44.6698 H         1 UNK         0.1412 
     73 H73        16.7685  -29.1316  -46.6417 H         1 UNK         0.1426 
     74 H74        18.2147  -30.8548  -47.8839 H         1 UNK         0.0716 
     75 H75        19.1082  -32.0345  -46.9570 H         1 UNK         0.0716 
     76 H76        20.9293  -31.0064  -44.8506 H         1 UNK         0.0695 
     77 H77        19.7012  -29.8243  -44.4750 H         1 UNK         0.0695 
     78 H78        22.6602  -29.2919  -44.9110 H         1 UNK         0.0983 
     79 H79        20.6399  -27.4942  -45.6300 H         1 UNK         0.3095 
     80 H80        22.0568  -24.4099  -44.5765 H         1 UNK         0.0454 
     81 H81        21.8150  -25.6012  -47.3922 H         1 UNK         0.0851 
     82 H82        23.2787  -24.9238  -46.6938 H         1 UNK         0.0851 
     83 H83        21.8967  -23.8848  -46.9913 H         1 UNK         0.0851 
     84 H84        19.7534  -24.9402  -46.1177 H         1 UNK         0.2976 
     85 H85        20.0082  -27.9137  -42.9551 H         1 UNK         0.3116 
     86 H86        20.6438  -29.3490  -40.5378 H         1 UNK         0.0646 
     87 H87        18.3243  -28.6362  -41.0723 H         1 UNK         0.0847 
     88 H88        18.8067  -26.9391  -41.0224 H         1 UNK         0.0847 
     89 H89        18.8573  -27.9157  -39.5624 H         1 UNK         0.0847 
     90 H90        21.3212  -26.0667  -41.7911 H         1 UNK         0.3040 
     91 H91        22.6214  -25.0318  -39.4849 H         1 UNK         0.1015 
     92 H92        23.5361  -23.3461  -41.0510 H         1 UNK         0.0786 
     93 H93        21.8427  -23.6384  -41.4204 H         1 UNK         0.0786 
     94 H94        23.1037  -24.3391  -42.4336 H         1 UNK         0.0786 
     95 H95        23.8979  -26.9031  -42.2552 H         1 UNK         0.3172 
     96 H96        26.6238  -27.0239  -41.2779 H         1 UNK         0.0595 
     97 H97        25.1365  -28.7071  -43.3688 H         1 UNK         0.0839 
     98 H98        26.8787  -28.6727  -43.1344 H         1 UNK         0.0839 
     99 H99        26.0449  -27.2323  -43.6954 H         1 UNK         0.0839 
    100 H100       23.7654  -28.6247  -40.3348 H         1 UNK         0.2998 
    101 H101       23.1620  -30.3371  -39.1016 H         1 UNK         0.0822 
    102 H102       24.7962  -29.4481  -37.4202 H         1 UNK         0.0787 
    103 H103       24.6147  -31.1907  -37.3068 H         1 UNK         0.0787 
    104 H104       26.0430  -30.5123  -38.0714 H         1 UNK         0.0787 
    105 H105       23.8101  -30.8049  -41.7982 H         1 UNK         0.3055 
    106 H106       25.3358  -33.2488  -42.1277 H         1 UNK         0.1106 
    107 H107       23.4407  -31.7823  -44.0477 H         1 UNK         0.0828 
    108 H108       24.5658  -33.0585  -44.4901 H         1 UNK         0.0828 
    109 H109       25.1786  -31.5152  -43.9172 H         1 UNK         0.0828 
    110 H110       21.9062  -32.4631  -41.7068 H         1 UNK         0.2931 
    111 H111       21.1268  -35.3008  -42.0182 H         1 UNK         0.0412 
    112 H112       22.4753  -33.7659  -39.4576 H         1 UNK         0.3472 
    113 H113       21.5308  -34.5074  -38.1899 H         1 UNK         0.3472 
    114 H114       19.7911  -33.7598  -43.3102 H         1 UNK         0.0970 
    115 H115       18.8354  -34.5744  -42.1106 H         1 UNK         0.0970 
    116 H116       16.6475  -31.8729  -41.4500 H         1 UNK         0.0612 
    117 H117       16.9687  -33.2592  -42.4543 H         1 UNK         0.0612 
@<TRIPOS>BOND
     1    1    2 1    
     2    1   62 1    
     3    1   63 1    
     4    1   64 1    
     5    2    3 2    
     6    2    4 am   BACKBONE|DICT|INTERRES
     7    4    5 1    
     8    4   65 1    
     9    5    6 1    
    10    5   25 1    
    11    5   66 1    
    12    6    7 1    
    13    6   67 1    
    14    6   68 1    
    15    7    8 1    
    16    8    9 1    
    17    8   69 1    
    18    8   70 1    
    19    9   10 ar   
    20    9   14 ar   
    21   10   11 ar   
    22   10   71 1    
    23   11   12 ar   
    24   11   61 1    
    25   12   13 ar   
    26   12   72 1    
    27   13   14 ar   
    28   13   15 1    
    29   14   73 1    
    30   15   16 1    
    31   15   74 1    
    32   15   75 1    
    33   16   17 1    
    34   17   18 1    
    35   17   76 1    
    36   17   77 1    
    37   18   19 1    
    38   18   27 1    
    39   18   78 1    
    40   19   20 am   BACKBONE|DICT|INTERRES
    41   19   79 1    
    42   20   21 2    
    43   20   22 1    
    44   22   23 1    
    45   22   24 1    
    46   22   80 1    
    47   23   81 1    
    48   23   82 1    
    49   23   83 1    
    50   24   25 am   BACKBONE|DICT|INTERRES
    51   24   84 1    
    52   25   26 2    
    53   27   28 2    
    54   27   29 am   BACKBONE|DICT|INTERRES
    55   29   30 1    
    56   29   85 1    
    57   30   31 1    
    58   30   32 1    
    59   30   86 1    
    60   31   87 1    
    61   31   88 1    
    62   31   89 1    
    63   32   33 2    
    64   32   34 am   BACKBONE|DICT|INTERRES
    65   34   35 1    
    66   34   90 1    
    67   35   36 1    
    68   35   37 1    
    69   35   91 1    
    70   36   92 1    
    71   36   93 1    
    72   36   94 1    
    73   37   38 2    
    74   37   39 am   BACKBONE|DICT|INTERRES
    75   39   40 1    
    76   39   95 1    
    77   40   41 1    
    78   40   42 1    
    79   40   96 1    
    80   41   97 1    
    81   41   98 1    
    82   41   99 1    
    83   42   43 2    
    84   42   44 am   BACKBONE|DICT|INTERRES
    85   44   45 1    
    86   44  100 1    
    87   45   46 1    
    88   45   47 1    
    89   45  101 1    
    90   46  102 1    
    91   46  103 1    
    92   46  104 1    
    93   47   48 2    
    94   47   49 am   BACKBONE|DICT|INTERRES
    95   49   50 1    
    96   49  105 1    
    97   50   51 1    
    98   50   52 1    
    99   50  106 1    
   100   51  107 1    
   101   51  108 1    
   102   51  109 1    
   103   52   53 2    
   104   52   54 am   BACKBONE|DICT|INTERRES
   105   54   55 1    
   106   54  110 1    
   107   55   56 1    
   108   55   59 1    
   109   55  111 1    
   110   56   57 am   BACKBONE|DICT|INTERRES
   111   56   58 2    
   112   57  112 1    
   113   57  113 1    
   114   59   60 1    
   115   59  114 1    
   116   59  115 1    
   117   60   61 1    
   118   61  116 1    
   119   61  117 1    
@<TRIPOS>SUBSTRUCTURE
     1 UNK         1 GROUP             0       ****    0 ROOT    
