@<TRIPOS>MOLECULE
3R8
117   119    1
SMALL
USER_CHARGES


@<TRIPOS>ATOM
      1 CA         15.2960  -26.3804  -40.3220 C.3       0 UNK        -0.2013 
      2 C          15.6314  -25.9275  -41.7352 C.2       0 UNK         0.4866 
      3 O          15.2667  -24.8180  -42.1267 O.2       0 UNK        -0.5176 
      4 N          16.3135  -26.7834  -42.5056 N.am      1 UNK        -0.4884 
      5 CA         16.7722  -26.5121  -43.8734 C.3       1 UNK         0.0853 
      6 C6         17.2907  -27.7930  -44.5759 C.3       10 UNK        -0.0849 
      7 S7         16.1350  -29.2035  -44.4950 S.3       10 UNK        -0.2776 
      8 C8         16.7347  -30.2446  -45.8659 C.3       10 UNK         0.0316 
      9 C9         18.2211  -30.5533  -45.7429 C.ar      10 UNK        -0.0863 
     10 C10        18.6715  -31.5270  -44.8478 C.ar      10 UNK        -0.1009 
     11 C11        20.0365  -31.8067  -44.7355 C.ar      10 UNK        -0.0712 
     12 C12        20.9538  -31.0901  -45.5116 C.ar      10 UNK        -0.0894 
     13 C13        20.5184  -30.1159  -46.4163 C.ar      10 UNK        -0.0745 
     14 C14        19.1460  -29.8656  -46.5336 C.ar      10 UNK        -0.0972 
     15 C15        21.5377  -29.3981  -47.3008 C.3       10 UNK         0.0209 
     16 S16        21.1113  -27.6580  -47.6653 S.3       10 UNK        -0.2568 
     17 C17        22.4052  -26.7207  -46.7775 C.3       10 UNK        -0.0983 
     18 CA         21.9823  -26.1857  -45.3826 C.3       3 UNK         0.0876 
     19 N          20.6984  -25.4826  -45.4313 N.am      3 UNK        -0.4424 
     20 C          20.4939  -24.1948  -45.1320 C.2       2 UNK         0.4918 
     21 O          21.3825  -23.4192  -44.7796 O.2       2 UNK        -0.4875 
     22 CA         19.0405  -23.6848  -45.2238 C.3       2 UNK         0.0481 
     23 CB         18.8013  -23.0065  -46.5821 C.3       2 UNK        -0.1831 
     24 N          18.0158  -24.7179  -45.0103 N.am      2 UNK        -0.4498 
     25 C          17.8822  -25.4392  -43.8875 C.2       1 UNK         0.5027 
     26 O          18.6447  -25.3340  -42.9234 O.2       1 UNK        -0.4969 
     27 C          22.0061  -27.2714  -44.2846 C.2       3 UNK         0.5005 
     28 O          22.8900  -28.1295  -44.3127 O.2       3 UNK        -0.5279 
     29 N          21.0846  -27.2114  -43.3049 N.am      4 UNK        -0.4463 
     30 CA         20.9803  -28.1805  -42.2018 C.3       4 UNK         0.0283 
     31 CB         19.7591  -27.8627  -41.3250 C.3       4 UNK        -0.1875 
     32 C          22.2345  -28.2874  -41.3183 C.2       4 UNK         0.4949 
     33 O          22.4553  -29.3333  -40.7101 O.2       4 UNK        -0.5039 
     34 N          23.0569  -27.2306  -41.2925 N.am      5 UNK        -0.4663 
     35 CA         24.3588  -27.1830  -40.6222 C.3       5 UNK         0.0242 
     36 CB         24.9057  -25.7484  -40.7054 C.3       5 UNK        -0.1982 
     37 C          25.3954  -28.1878  -41.1666 C.2       5 UNK         0.5017 
     38 O          26.3926  -28.4292  -40.4863 O.2       5 UNK        -0.5012 
     39 N          25.1524  -28.7612  -42.3570 N.am      6 UNK        -0.4439 
     40 CA         25.9956  -29.7782  -42.9904 C.3       6 UNK         0.0297 
     41 CB         25.4636  -30.0773  -44.4014 C.3       6 UNK        -0.2006 
     42 C          26.1228  -31.0844  -42.1843 C.2       6 UNK         0.4892 
     43 O          27.1831  -31.7095  -42.2391 O.2       6 UNK        -0.5089 
     44 N          25.0637  -31.4762  -41.4603 N.am      7 UNK        -0.4243 
     45 CA         25.0321  -32.7059  -40.6598 C.3       7 UNK         0.0196 
     46 CB         24.6593  -33.9055  -41.5559 C.3       7 UNK        -0.2007 
     47 C          24.1310  -32.5947  -39.4165 C.2       7 UNK         0.5020 
     48 O          23.7475  -33.6278  -38.8666 O.2       7 UNK        -0.5147 
     49 N          23.8133  -31.3621  -38.9870 N.am      8 UNK        -0.4734 
     50 CA         22.9003  -31.0129  -37.8855 C.3       8 UNK         0.0238 
     51 CB         23.4974  -31.4224  -36.5220 C.3       8 UNK        -0.1912 
     52 C          21.4789  -31.5654  -38.1177 C.2       8 UNK         0.5038 
     53 O          20.9210  -32.2452  -37.2538 O.2       8 UNK        -0.5046 
     54 N          20.9476  -31.2868  -39.3131 N.am      9 UNK        -0.4200 
     55 CA         19.6961  -31.8440  -39.8509 C.3       9 UNK         0.0839 
     56 C          18.3927  -31.3052  -39.1929 C.2       9 UNK         0.5513 
     57 N          18.4409  -30.2681  -38.3655 N.am      9 UNK        -0.7519 
     58 O          17.3161  -31.8420  -39.4397 O.2       9 UNK        -0.4960 
     59 C59        19.6236  -31.7168  -41.3976 C.3       10 UNK        -0.0876 
     60 S60        21.1573  -32.2453  -42.2392 S.3       10 UNK        -0.2414 
     61 C61        20.5206  -32.9087  -43.8047 C.3       10 UNK         0.0169 
     62 H62        14.2160  -26.3926  -40.1778 H         1 UNK         0.0903 
     63 H63        15.6777  -27.3795  -40.1121 H         1 UNK         0.0903 
     64 H64        15.7296  -25.6933  -39.5959 H         1 UNK         0.0903 
     65 H65        16.5649  -27.6899  -42.1398 H         1 UNK         0.3096 
     66 H66        15.9177  -26.1270  -44.4347 H         1 UNK         0.1121 
     67 H67        17.4933  -27.5793  -45.6271 H         1 UNK         0.0849 
     68 H68        18.2394  -28.1209  -44.1462 H         1 UNK         0.0849 
     69 H69        16.1673  -31.1764  -45.8793 H         1 UNK         0.0865 
     70 H70        16.5212  -29.7473  -46.8134 H         1 UNK         0.0865 
     71 H71        17.9570  -32.0705  -44.2448 H         1 UNK         0.1346 
     72 H72        22.0096  -31.3065  -45.4211 H         1 UNK         0.1412 
     73 H73        18.7915  -29.1319  -47.2439 H         1 UNK         0.1426 
     74 H74        21.6063  -29.9379  -48.2459 H         1 UNK         0.0716 
     75 H75        22.5294  -29.4493  -46.8492 H         1 UNK         0.0716 
     76 H76        23.3275  -27.3019  -46.7250 H         1 UNK         0.0695 
     77 H77        22.6532  -25.8669  -47.4097 H         1 UNK         0.0695 
     78 H78        22.7609  -25.4848  -45.0743 H         1 UNK         0.0983 
     79 H79        19.9136  -26.0353  -45.7431 H         1 UNK         0.3095 
     80 H80        18.9123  -22.9330  -44.4424 H         1 UNK         0.0454 
     81 H81        19.5303  -22.2137  -46.7563 H         1 UNK         0.0851 
     82 H82        18.8869  -23.7135  -47.4083 H         1 UNK         0.0851 
     83 H83        17.8132  -22.5488  -46.6306 H         1 UNK         0.0851 
     84 H84        17.3635  -24.8652  -45.7679 H         1 UNK         0.2976 
     85 H85        20.4099  -26.4540  -43.3063 H         1 UNK         0.3116 
     86 H86        20.8347  -29.1603  -42.6595 H         1 UNK         0.0646 
     87 H87        19.7011  -28.5341  -40.4676 H         1 UNK         0.0847 
     88 H88        18.8306  -27.9777  -41.8795 H         1 UNK         0.0847 
     89 H89        19.7959  -26.8452  -40.9343 H         1 UNK         0.0847 
     90 H90        22.7894  -26.4141  -41.8220 H         1 UNK         0.3040 
     91 H91        24.1984  -27.4309  -39.5707 H         1 UNK         0.1015 
     92 H92        24.2232  -25.0349  -40.2432 H         1 UNK         0.0786 
     93 H93        25.0694  -25.4385  -41.7384 H         1 UNK         0.0786 
     94 H94        25.8606  -25.6624  -40.1845 H         1 UNK         0.0786 
     95 H95        24.3120  -28.4960  -42.8632 H         1 UNK         0.3172 
     96 H96        26.9974  -29.3550  -43.0884 H         1 UNK         0.0595 
     97 H97        26.0897  -30.8123  -44.9092 H         1 UNK         0.0839 
     98 H98        25.4512  -29.1800  -45.0205 H         1 UNK         0.0839 
     99 H99        24.4485  -30.4763  -44.3730 H         1 UNK         0.0839 
    100 H100       24.2156  -30.9236  -41.4874 H         1 UNK         0.2998 
    101 H101       26.0329  -32.8864  -40.2616 H         1 UNK         0.0822 
    102 H102       23.6573  -33.8001  -41.9708 H         1 UNK         0.0787 
    103 H103       25.3553  -34.0134  -42.3878 H         1 UNK         0.0787 
    104 H104       24.6849  -34.8417  -40.9970 H         1 UNK         0.0787 
    105 H105       24.1630  -30.5747  -39.5149 H         1 UNK         0.3055 
    106 H106       22.8075  -29.9254  -37.8905 H         1 UNK         0.1106 
    107 H107       23.5862  -32.5047  -36.4241 H         1 UNK         0.0828 
    108 H108       24.4873  -30.9902  -36.3767 H         1 UNK         0.0828 
    109 H109       22.8686  -31.0743  -35.7017 H         1 UNK         0.0828 
    110 H110       21.4864  -30.7042  -39.9493 H         1 UNK         0.2931 
    111 H111       19.7188  -32.9117  -39.6240 H         1 UNK         0.0412 
    112 H112       19.3221  -29.8371  -38.1389 H         1 UNK         0.3472 
    113 H113       17.5898  -29.9342  -37.9415 H         1 UNK         0.3472 
    114 H114       18.7923  -32.3157  -41.7736 H         1 UNK         0.0970 
    115 H115       19.4054  -30.6917  -41.6943 H         1 UNK         0.0970 
    116 H116       19.7251  -33.6279  -43.6038 H         1 UNK         0.0612 
    117 H117       21.3187  -33.4694  -44.2934 H         1 UNK         0.0612 
@<TRIPOS>BOND
     1    1    2 1    
     2    1   62 1    
     3    1   63 1    
     4    1   64 1    
     5    2    3 2    
     6    2    4 am   BACKBONE|DICT|INTERRES
     7    4    5 1    
     8    4   65 1    
     9    5    6 1    
    10    5   25 1    
    11    5   66 1    
    12    6    7 1    
    13    6   67 1    
    14    6   68 1    
    15    7    8 1    
    16    8    9 1    
    17    8   69 1    
    18    8   70 1    
    19    9   10 ar   
    20    9   14 ar   
    21   10   11 ar   
    22   10   71 1    
    23   11   12 ar   
    24   11   61 1    
    25   12   13 ar   
    26   12   72 1    
    27   13   14 ar   
    28   13   15 1    
    29   14   73 1    
    30   15   16 1    
    31   15   74 1    
    32   15   75 1    
    33   16   17 1    
    34   17   18 1    
    35   17   76 1    
    36   17   77 1    
    37   18   19 1    
    38   18   27 1    
    39   18   78 1    
    40   19   20 am   BACKBONE|DICT|INTERRES
    41   19   79 1    
    42   20   21 2    
    43   20   22 1    
    44   22   23 1    
    45   22   24 1    
    46   22   80 1    
    47   23   81 1    
    48   23   82 1    
    49   23   83 1    
    50   24   25 am   BACKBONE|DICT|INTERRES
    51   24   84 1    
    52   25   26 2    
    53   27   28 2    
    54   27   29 am   BACKBONE|DICT|INTERRES
    55   29   30 1    
    56   29   85 1    
    57   30   31 1    
    58   30   32 1    
    59   30   86 1    
    60   31   87 1    
    61   31   88 1    
    62   31   89 1    
    63   32   33 2    
    64   32   34 am   BACKBONE|DICT|INTERRES
    65   34   35 1    
    66   34   90 1    
    67   35   36 1    
    68   35   37 1    
    69   35   91 1    
    70   36   92 1    
    71   36   93 1    
    72   36   94 1    
    73   37   38 2    
    74   37   39 am   BACKBONE|DICT|INTERRES
    75   39   40 1    
    76   39   95 1    
    77   40   41 1    
    78   40   42 1    
    79   40   96 1    
    80   41   97 1    
    81   41   98 1    
    82   41   99 1    
    83   42   43 2    
    84   42   44 am   BACKBONE|DICT|INTERRES
    85   44   45 1    
    86   44  100 1    
    87   45   46 1    
    88   45   47 1    
    89   45  101 1    
    90   46  102 1    
    91   46  103 1    
    92   46  104 1    
    93   47   48 2    
    94   47   49 am   BACKBONE|DICT|INTERRES
    95   49   50 1    
    96   49  105 1    
    97   50   51 1    
    98   50   52 1    
    99   50  106 1    
   100   51  107 1    
   101   51  108 1    
   102   51  109 1    
   103   52   53 2    
   104   52   54 am   BACKBONE|DICT|INTERRES
   105   54   55 1    
   106   54  110 1    
   107   55   56 1    
   108   55   59 1    
   109   55  111 1    
   110   56   57 am   BACKBONE|DICT|INTERRES
   111   56   58 2    
   112   57  112 1    
   113   57  113 1    
   114   59   60 1    
   115   59  114 1    
   116   59  115 1    
   117   60   61 1    
   118   61  116 1    
   119   61  117 1    
@<TRIPOS>SUBSTRUCTURE
     1 UNK         1 GROUP             0       ****    0 ROOT    
