@<TRIPOS>MOLECULE
3R8
117   119    1
SMALL
USER_CHARGES


@<TRIPOS>ATOM
      1 CA         14.7421  -25.0357  -41.6546 C.3       0 UNK        -0.2013 
      2 C          15.7168  -24.6304  -42.7503 C.2       0 UNK         0.4866 
      3 O          15.8844  -23.4385  -43.0118 O.2       0 UNK        -0.5176 
      4 N          16.3532  -25.6129  -43.3990 N.am      1 UNK        -0.4884 
      5 CA         17.3634  -25.4087  -44.4423 C.3       1 UNK         0.0853 
      6 C6         17.6864  -26.7236  -45.1984 C.3       10 UNK        -0.0849 
      7 S7         16.2462  -27.5308  -45.9723 S.3       10 UNK        -0.2776 
      8 C8         16.2080  -29.1500  -45.1145 C.3       10 UNK         0.0316 
      9 C9         17.4825  -29.9955  -45.2228 C.ar      10 UNK        -0.0863 
     10 C10        17.7422  -30.9501  -44.2334 C.ar      10 UNK        -0.1009 
     11 C11        18.8948  -31.7418  -44.2792 C.ar      10 UNK        -0.0712 
     12 C12        19.8004  -31.5718  -45.3309 C.ar      10 UNK        -0.0894 
     13 C13        19.5483  -30.6391  -46.3412 C.ar      10 UNK        -0.0745 
     14 C14        18.3844  -29.8648  -46.2871 C.ar      10 UNK        -0.0972 
     15 C15        20.5102  -30.4993  -47.5158 C.3       10 UNK         0.0209 
     16 S16        22.0392  -29.6024  -47.0871 S.3       10 UNK        -0.2568 
     17 C17        21.4138  -27.9209  -46.7359 C.3       10 UNK        -0.0983 
     18 CA         22.0089  -27.2338  -45.4775 C.3       3 UNK         0.0876 
     19 N          21.4107  -25.9073  -45.3069 N.am      3 UNK        -0.4424 
     20 C          21.7468  -24.9842  -44.3939 C.2       2 UNK         0.4918 
     21 O          22.6764  -25.1078  -43.5971 O.2       2 UNK        -0.4875 
     22 CA         20.8313  -23.7445  -44.3266 C.3       2 UNK         0.0481 
     23 CB         21.3243  -22.6537  -45.2899 C.3       2 UNK        -0.1831 
     24 N          19.4302  -24.0796  -44.6263 N.am      2 UNK        -0.4498 
     25 C          18.6744  -24.8618  -43.8405 C.2       1 UNK         0.5027 
     26 O          19.0382  -25.2510  -42.7290 O.2       1 UNK        -0.4969 
     27 C          21.8961  -28.1044  -44.2043 C.2       3 UNK         0.5005 
     28 O          22.8211  -28.8640  -43.9188 O.2       3 UNK        -0.5279 
     29 N          20.8115  -27.9513  -43.4277 N.am      4 UNK        -0.4463 
     30 CA         20.5568  -28.7349  -42.2151 C.3       4 UNK         0.0283 
     31 CB         19.1374  -28.4656  -41.6917 C.3       4 UNK        -0.1875 
     32 C          21.5921  -28.5127  -41.1013 C.2       4 UNK         0.4949 
     33 O          21.8611  -29.4397  -40.3379 O.2       4 UNK        -0.5039 
     34 N          22.1795  -27.3089  -41.0481 N.am      5 UNK        -0.4663 
     35 CA         23.2711  -26.9679  -40.1344 C.3       5 UNK         0.0242 
     36 CB         23.4057  -25.4393  -40.0505 C.3       5 UNK        -0.1982 
     37 C          24.6083  -27.6079  -40.5460 C.2       5 UNK         0.5017 
     38 O          25.4076  -27.9390  -39.6706 O.2       5 UNK        -0.5012 
     39 N          24.8236  -27.7787  -41.8585 N.am      6 UNK        -0.4439 
     40 CA         26.0016  -28.4366  -42.4279 C.3       6 UNK         0.0297 
     41 CB         26.2016  -27.9796  -43.8825 C.3       6 UNK        -0.2006 
     42 C          25.8904  -29.9668  -42.3417 C.2       6 UNK         0.4892 
     43 O          26.8684  -30.6258  -41.9877 O.2       6 UNK        -0.5089 
     44 N          24.6977  -30.4983  -42.6460 N.am      7 UNK        -0.4243 
     45 CA         24.3540  -31.9181  -42.5360 C.3       7 UNK         0.0196 
     46 CB         23.0238  -32.1675  -43.2664 C.3       7 UNK        -0.2007 
     47 C          24.2624  -32.4093  -41.0804 C.2       7 UNK         0.5020 
     48 O          24.4543  -33.6009  -40.8382 O.2       7 UNK        -0.5147 
     49 N          23.9586  -31.4892  -40.1521 N.am      8 UNK        -0.4734 
     50 CA         23.7456  -31.6946  -38.7139 C.3       8 UNK         0.0238 
     51 CB         25.0396  -32.1741  -38.0223 C.3       8 UNK        -0.1912 
     52 C          22.5268  -32.5885  -38.4094 C.2       8 UNK         0.5038 
     53 O          22.5284  -33.3114  -37.4110 O.2       8 UNK        -0.5046 
     54 N          21.5092  -32.5203  -39.2769 N.am      9 UNK        -0.4200 
     55 CA         20.2462  -33.2639  -39.1621 C.3       9 UNK         0.0839 
     56 C          19.2085  -32.6257  -38.1930 C.2       9 UNK         0.5513 
     57 N          19.4169  -31.4098  -37.7008 N.am      9 UNK        -0.7519 
     58 O          18.2046  -33.2551  -37.8689 O.2       9 UNK        -0.4960 
     59 C59        19.6420  -33.5780  -40.5566 C.3       10 UNK        -0.0876 
     60 S60        19.3102  -32.0887  -41.5555 S.3       10 UNK        -0.2414 
     61 C61        19.1389  -32.8069  -43.2166 C.3       10 UNK         0.0169 
     62 H62        14.6833  -26.1180  -41.5402 H         1 UNK         0.0903 
     63 H63        15.0529  -24.6105  -40.7007 H         1 UNK         0.0903 
     64 H64        13.7436  -24.6646  -41.8843 H         1 UNK         0.0903 
     65 H65        16.1822  -26.5726  -43.1388 H         1 UNK         0.3096 
     66 H66        16.9725  -24.6772  -45.1535 H         1 UNK         0.1121 
     67 H67        18.4009  -26.5315  -46.0003 H         1 UNK         0.0849 
     68 H68        18.1712  -27.4354  -44.5295 H         1 UNK         0.0849 
     69 H69        15.9760  -28.9702  -44.0636 H         1 UNK         0.0865 
     70 H70        15.3766  -29.7313  -45.5151 H         1 UNK         0.0865 
     71 H71        17.0446  -31.0821  -43.4173 H         1 UNK         0.1346 
     72 H72        20.6944  -32.1783  -45.3782 H         1 UNK         0.1412 
     73 H73        18.1855  -29.1579  -47.0801 H         1 UNK         0.1426 
     74 H74        20.0258  -29.9963  -48.3543 H         1 UNK         0.0716 
     75 H75        20.7796  -31.4930  -47.8764 H         1 UNK         0.0716 
     76 H76        21.6237  -27.3109  -47.6158 H         1 UNK         0.0695 
     77 H77        20.3282  -27.9530  -46.6561 H         1 UNK         0.0695 
     78 H78        23.0761  -27.0814  -45.6529 H         1 UNK         0.0983 
     79 H79        20.6575  -25.6822  -45.9380 H         1 UNK         0.3095 
     80 H80        20.8795  -23.3481  -43.3101 H         1 UNK         0.0454 
     81 H81        22.3566  -22.3783  -45.0692 H         1 UNK         0.0851 
     82 H82        21.2903  -22.9808  -46.3297 H         1 UNK         0.0851 
     83 H83        20.7247  -21.7475  -45.2028 H         1 UNK         0.0851 
     84 H84        19.0678  -23.7736  -45.5189 H         1 UNK         0.2976 
     85 H85        20.1285  -27.2496  -43.6677 H         1 UNK         0.3116 
     86 H86        20.6192  -29.7826  -42.5081 H         1 UNK         0.0646 
     87 H87        18.9171  -29.1023  -40.8337 H         1 UNK         0.0847 
     88 H88        18.3838  -28.6793  -42.4482 H         1 UNK         0.0847 
     89 H89        19.0120  -27.4344  -41.3633 H         1 UNK         0.0847 
     90 H90        21.9050  -26.6050  -41.7205 H         1 UNK         0.3040 
     91 H91        23.0181  -27.3441  -39.1403 H         1 UNK         0.1015 
     92 H92        22.4799  -24.9775  -39.7068 H         1 UNK         0.0786 
     93 H93        23.6610  -25.0012  -41.0162 H         1 UNK         0.0786 
     94 H94        24.1895  -25.1555  -39.3468 H         1 UNK         0.0786 
     95 H95        24.0869  -27.5241  -42.5028 H         1 UNK         0.3172 
     96 H96        26.8814  -28.1302  -41.8578 H         1 UNK         0.0595 
     97 H97        27.1011  -28.4261  -44.3083 H         1 UNK         0.0839 
     98 H98        26.3165  -26.8974  -43.9461 H         1 UNK         0.0839 
     99 H99        25.3654  -28.2658  -44.5211 H         1 UNK         0.0839 
    100 H100       23.9692  -29.8812  -43.0056 H         1 UNK         0.2998 
    101 H101       25.1360  -32.4962  -43.0327 H         1 UNK         0.0822 
    102 H102       22.2063  -31.6041  -42.8156 H         1 UNK         0.0787 
    103 H103       23.0869  -31.8770  -44.3155 H         1 UNK         0.0787 
    104 H104       22.7500  -33.2228  -43.2351 H         1 UNK         0.0787 
    105 H105       23.7456  -30.5551  -40.4809 H         1 UNK         0.3055 
    106 H106       23.5008  -30.7130  -38.3045 H         1 UNK         0.1106 
    107 H107       25.3109  -33.1860  -38.3243 H         1 UNK         0.0828 
    108 H108       25.8784  -31.5176  -38.2540 H         1 UNK         0.0828 
    109 H109       24.9243  -32.1800  -36.9378 H         1 UNK         0.0828 
    110 H110       21.5674  -31.8584  -40.0392 H         1 UNK         0.2931 
    111 H111       20.4857  -34.2315  -38.7167 H         1 UNK         0.0412 
    112 H112       18.7422  -31.0090  -37.0686 H         1 UNK         0.3472 
    113 H113       20.2291  -30.8816  -37.9776 H         1 UNK         0.3472 
    114 H114       18.7190  -34.1529  -40.4602 H         1 UNK         0.0970 
    115 H115       20.3328  -34.2180  -41.1078 H         1 UNK         0.0970 
    116 H116       20.0366  -33.3821  -43.4483 H         1 UNK         0.0612 
    117 H117       18.3063  -33.5116  -43.2184 H         1 UNK         0.0612 
@<TRIPOS>BOND
     1    1    2 1    
     2    1   62 1    
     3    1   63 1    
     4    1   64 1    
     5    2    3 2    
     6    2    4 am   BACKBONE|DICT|INTERRES
     7    4    5 1    
     8    4   65 1    
     9    5    6 1    
    10    5   25 1    
    11    5   66 1    
    12    6    7 1    
    13    6   67 1    
    14    6   68 1    
    15    7    8 1    
    16    8    9 1    
    17    8   69 1    
    18    8   70 1    
    19    9   10 ar   
    20    9   14 ar   
    21   10   11 ar   
    22   10   71 1    
    23   11   12 ar   
    24   11   61 1    
    25   12   13 ar   
    26   12   72 1    
    27   13   14 ar   
    28   13   15 1    
    29   14   73 1    
    30   15   16 1    
    31   15   74 1    
    32   15   75 1    
    33   16   17 1    
    34   17   18 1    
    35   17   76 1    
    36   17   77 1    
    37   18   19 1    
    38   18   27 1    
    39   18   78 1    
    40   19   20 am   BACKBONE|DICT|INTERRES
    41   19   79 1    
    42   20   21 2    
    43   20   22 1    
    44   22   23 1    
    45   22   24 1    
    46   22   80 1    
    47   23   81 1    
    48   23   82 1    
    49   23   83 1    
    50   24   25 am   BACKBONE|DICT|INTERRES
    51   24   84 1    
    52   25   26 2    
    53   27   28 2    
    54   27   29 am   BACKBONE|DICT|INTERRES
    55   29   30 1    
    56   29   85 1    
    57   30   31 1    
    58   30   32 1    
    59   30   86 1    
    60   31   87 1    
    61   31   88 1    
    62   31   89 1    
    63   32   33 2    
    64   32   34 am   BACKBONE|DICT|INTERRES
    65   34   35 1    
    66   34   90 1    
    67   35   36 1    
    68   35   37 1    
    69   35   91 1    
    70   36   92 1    
    71   36   93 1    
    72   36   94 1    
    73   37   38 2    
    74   37   39 am   BACKBONE|DICT|INTERRES
    75   39   40 1    
    76   39   95 1    
    77   40   41 1    
    78   40   42 1    
    79   40   96 1    
    80   41   97 1    
    81   41   98 1    
    82   41   99 1    
    83   42   43 2    
    84   42   44 am   BACKBONE|DICT|INTERRES
    85   44   45 1    
    86   44  100 1    
    87   45   46 1    
    88   45   47 1    
    89   45  101 1    
    90   46  102 1    
    91   46  103 1    
    92   46  104 1    
    93   47   48 2    
    94   47   49 am   BACKBONE|DICT|INTERRES
    95   49   50 1    
    96   49  105 1    
    97   50   51 1    
    98   50   52 1    
    99   50  106 1    
   100   51  107 1    
   101   51  108 1    
   102   51  109 1    
   103   52   53 2    
   104   52   54 am   BACKBONE|DICT|INTERRES
   105   54   55 1    
   106   54  110 1    
   107   55   56 1    
   108   55   59 1    
   109   55  111 1    
   110   56   57 am   BACKBONE|DICT|INTERRES
   111   56   58 2    
   112   57  112 1    
   113   57  113 1    
   114   59   60 1    
   115   59  114 1    
   116   59  115 1    
   117   60   61 1    
   118   61  116 1    
   119   61  117 1    
@<TRIPOS>SUBSTRUCTURE
     1 UNK         1 GROUP             0       ****    0 ROOT    
