@<TRIPOS>MOLECULE
3R8
117   119    1
SMALL
USER_CHARGES


@<TRIPOS>ATOM
      1 CA         18.4225  -29.0960  -40.4862 C.3       0 UNK        -0.2013 
      2 C          17.9516  -27.7273  -40.9492 C.2       0 UNK         0.4866 
      3 O          17.8741  -26.8028  -40.1389 O.2       0 UNK        -0.5176 
      4 N          17.6198  -27.5983  -42.2397 N.am      1 UNK        -0.4884 
      5 CA         17.1395  -26.3557  -42.8602 C.3       1 UNK         0.0853 
      6 C6         16.1491  -26.6152  -44.0310 C.3       10 UNK        -0.0849 
      7 S7         14.9035  -27.9049  -43.6432 S.3       10 UNK        -0.2776 
      8 C8         15.1291  -29.1590  -44.9536 C.3       10 UNK         0.0316 
      9 C9         16.5840  -29.5604  -45.1648 C.ar      10 UNK        -0.0863 
     10 C10        17.2158  -30.4715  -44.3136 C.ar      10 UNK        -0.1009 
     11 C11        18.5516  -30.8295  -44.5296 C.ar      10 UNK        -0.0712 
     12 C12        19.2632  -30.2398  -45.5803 C.ar      10 UNK        -0.0894 
     13 C13        18.6484  -29.3144  -46.4299 C.ar      10 UNK        -0.0745 
     14 C14        17.2958  -29.0175  -46.2361 C.ar      10 UNK        -0.0972 
     15 C15        19.4475  -28.6553  -47.5544 C.3       10 UNK         0.0209 
     16 S16        18.9568  -26.9187  -47.8450 S.3       10 UNK        -0.2568 
     17 C17        20.5474  -26.0583  -48.0998 C.3       10 UNK        -0.0983 
     18 CA         21.0964  -25.3313  -46.8400 C.3       3 UNK         0.0876 
     19 N          20.0394  -24.6993  -46.0385 N.am      3 UNK        -0.4424 
     20 C          20.2370  -23.7408  -45.1247 C.2       2 UNK         0.4918 
     21 O          21.3303  -23.2170  -44.9083 O.2       2 UNK        -0.4875 
     22 CA         19.0111  -23.2821  -44.3087 C.3       2 UNK         0.0481 
     23 CB         18.2791  -22.1475  -45.0434 C.3       2 UNK        -0.1831 
     24 N          18.0463  -24.3359  -43.9572 N.am      2 UNK        -0.4498 
     25 C          18.3302  -25.4533  -43.2687 C.2       1 UNK         0.5027 
     26 O          19.4788  -25.7704  -42.9532 O.2       1 UNK        -0.4969 
     27 C          22.0047  -26.2478  -45.9936 C.2       3 UNK         0.5005 
     28 O          23.2222  -26.2303  -46.1871 O.2       3 UNK        -0.5279 
     29 N          21.3969  -26.9962  -45.0611 N.am      4 UNK        -0.4463 
     30 CA         22.0152  -27.9150  -44.0995 C.3       4 UNK         0.0283 
     31 CB         22.8074  -27.1162  -43.0389 C.3       4 UNK        -0.1875 
     32 C          22.8403  -29.0471  -44.7530 C.2       4 UNK         0.4949 
     33 O          22.6405  -29.3744  -45.9240 O.2       4 UNK        -0.5039 
     34 N          23.7341  -29.6470  -43.9620 N.am      5 UNK        -0.4663 
     35 CA         24.6306  -30.7472  -44.3309 C.3       5 UNK         0.0242 
     36 CB         23.8429  -32.0534  -44.5621 C.3       5 UNK        -0.1982 
     37 C          25.6818  -30.9441  -43.2308 C.2       5 UNK         0.5017 
     38 O          26.8501  -31.1914  -43.5280 O.2       5 UNK        -0.5012 
     39 N          25.2351  -30.7957  -41.9808 N.am      6 UNK        -0.4439 
     40 CA         25.9937  -30.8018  -40.7371 C.3       6 UNK         0.0297 
     41 CB         26.3282  -32.2500  -40.3280 C.3       6 UNK        -0.2006 
     42 C          25.1169  -30.0870  -39.6961 C.2       6 UNK         0.4892 
     43 O          24.0364  -29.6005  -40.0522 O.2       6 UNK        -0.5089 
     44 N          25.5642  -30.0512  -38.4333 N.am      7 UNK        -0.4243 
     45 CA         24.8082  -29.5232  -37.2909 C.3       7 UNK         0.0196 
     46 CB         25.6699  -29.6186  -36.0205 C.3       7 UNK        -0.2007 
     47 C          23.4737  -30.2715  -37.1174 C.2       7 UNK         0.5020 
     48 O          23.4836  -31.4538  -36.7694 O.2       7 UNK        -0.5147 
     49 N          22.3667  -29.5934  -37.4575 N.am      8 UNK        -0.4734 
     50 CA         20.9988  -30.1277  -37.5720 C.3       8 UNK         0.0238 
     51 CB         20.4372  -30.4821  -36.1786 C.3       8 UNK        -0.1912 
     52 C          20.8747  -31.2985  -38.5752 C.2       8 UNK         0.5038 
     53 O          19.9989  -32.1497  -38.4130 O.2       8 UNK        -0.5046 
     54 N          21.7695  -31.3276  -39.5742 N.am      9 UNK        -0.4200 
     55 CA         21.9872  -32.4263  -40.5303 C.3       9 UNK         0.0839 
     56 C          22.4958  -33.7519  -39.8825 C.2       9 UNK         0.5513 
     57 N          23.0226  -33.7407  -38.6628 N.am      9 UNK        -0.7519 
     58 O          22.4497  -34.8077  -40.5082 O.2       9 UNK        -0.4960 
     59 C59        20.7963  -32.6433  -41.5053 C.3       10 UNK        -0.0876 
     60 S60        20.4217  -31.1648  -42.5043 S.3       10 UNK        -0.2414 
     61 C61        19.2154  -31.8839  -43.6568 C.3       10 UNK         0.0169 
     62 H62        18.0826  -29.8841  -41.1577 H         1 UNK         0.0903 
     63 H63        19.5108  -29.1199  -40.4468 H         1 UNK         0.0903 
     64 H64        18.0370  -29.3168  -39.4912 H         1 UNK         0.0903 
     65 H65        17.7142  -28.3855  -42.8663 H         1 UNK         0.3096 
     66 H66        16.5880  -25.7970  -42.1004 H         1 UNK         0.1121 
     67 H67        16.6864  -26.8607  -44.9440 H         1 UNK         0.0849 
     68 H68        15.5985  -25.7021  -44.2621 H         1 UNK         0.0849 
     69 H69        14.5420  -30.0427  -44.6994 H         1 UNK         0.0865 
     70 H70        14.7022  -28.7754  -45.8818 H         1 UNK         0.0865 
     71 H71        16.6614  -30.9132  -43.4965 H         1 UNK         0.1346 
     72 H72        20.2982  -30.5102  -45.7371 H         1 UNK         0.1412 
     73 H73        16.7954  -28.3298  -46.9036 H         1 UNK         0.1426 
     74 H74        20.5122  -28.6962  -47.3256 H         1 UNK         0.0716 
     75 H75        19.3058  -29.2235  -48.4743 H         1 UNK         0.0716 
     76 H76        21.2821  -26.7437  -48.5277 H         1 UNK         0.0695 
     77 H77        20.3697  -25.3139  -48.8773 H         1 UNK         0.0695 
     78 H78        21.7442  -24.5279  -47.1989 H         1 UNK         0.0983 
     79 H79        19.1080  -25.0652  -46.1733 H         1 UNK         0.3095 
     80 H80        19.3905  -22.8783  -43.3678 H         1 UNK         0.0454 
     81 H81        17.8278  -22.4930  -45.9743 H         1 UNK         0.0851 
     82 H82        17.4907  -21.7162  -44.4264 H         1 UNK         0.0851 
     83 H83        18.9659  -21.3383  -45.2961 H         1 UNK         0.0851 
     84 H84        17.0817  -24.1430  -44.1854 H         1 UNK         0.2976 
     85 H85        20.3937  -26.9111  -44.9825 H         1 UNK         0.3116 
     86 H86        21.1823  -28.4019  -43.5905 H         1 UNK         0.0646 
     87 H87        23.7323  -26.7075  -43.4478 H         1 UNK         0.0847 
     88 H88        22.2187  -26.2812  -42.6582 H         1 UNK         0.0847 
     89 H89        23.0644  -27.7318  -42.1763 H         1 UNK         0.0847 
     90 H90        23.8785  -29.2519  -43.0438 H         1 UNK         0.3040 
     91 H91        25.1535  -30.4757  -45.2505 H         1 UNK         0.1015 
     92 H92        23.2497  -32.3282  -43.6894 H         1 UNK         0.0786 
     93 H93        24.5177  -32.8837  -44.7743 H         1 UNK         0.0786 
     94 H94        23.1641  -31.9693  -45.4106 H         1 UNK         0.0786 
     95 H95        24.2614  -30.5650  -41.8286 H         1 UNK         0.3172 
     96 H96        26.9120  -30.2267  -40.8704 H         1 UNK         0.0595 
     97 H97        26.9383  -32.2799  -39.4250 H         1 UNK         0.0839 
     98 H98        26.8925  -32.7627  -41.1072 H         1 UNK         0.0839 
     99 H99        25.4277  -32.8329  -40.1341 H         1 UNK         0.0839 
    100 H100       26.4498  -30.4869  -38.2210 H         1 UNK         0.2998 
    101 H101       24.6028  -28.4678  -37.4828 H         1 UNK         0.0822 
    102 H102       25.1310  -29.2307  -35.1549 H         1 UNK         0.0787 
    103 H103       25.9476  -30.6494  -35.7956 H         1 UNK         0.0787 
    104 H104       26.5870  -29.0371  -36.1174 H         1 UNK         0.0787 
    105 H105       22.4833  -28.6404  -37.7760 H         1 UNK         0.3055 
    106 H106       20.3858  -29.3218  -37.9785 H         1 UNK         0.1106 
    107 H107       20.5218  -29.6412  -35.4904 H         1 UNK         0.0828 
    108 H108       19.3802  -30.7450  -36.2364 H         1 UNK         0.0828 
    109 H109       20.9587  -31.3316  -35.7364 H         1 UNK         0.0828 
    110 H110       22.4551  -30.5798  -39.6204 H         1 UNK         0.2931 
    111 H111       22.8291  -32.0994  -41.1395 H         1 UNK         0.0412 
    112 H112       23.3545  -34.6059  -38.2677 H         1 UNK         0.3472 
    113 H113       23.0800  -32.8879  -38.1162 H         1 UNK         0.3472 
    114 H114       21.0171  -33.4567  -42.1988 H         1 UNK         0.0970 
    115 H115       19.9002  -32.9437  -40.9604 H         1 UNK         0.0970 
    116 H116       19.7189  -32.6152  -44.2909 H         1 UNK         0.0612 
    117 H117       18.4627  -32.4333  -43.0890 H         1 UNK         0.0612 
@<TRIPOS>BOND
     1    1    2 1    
     2    1   62 1    
     3    1   63 1    
     4    1   64 1    
     5    2    3 2    
     6    2    4 am   BACKBONE|DICT|INTERRES
     7    4    5 1    
     8    4   65 1    
     9    5    6 1    
    10    5   25 1    
    11    5   66 1    
    12    6    7 1    
    13    6   67 1    
    14    6   68 1    
    15    7    8 1    
    16    8    9 1    
    17    8   69 1    
    18    8   70 1    
    19    9   10 ar   
    20    9   14 ar   
    21   10   11 ar   
    22   10   71 1    
    23   11   12 ar   
    24   11   61 1    
    25   12   13 ar   
    26   12   72 1    
    27   13   14 ar   
    28   13   15 1    
    29   14   73 1    
    30   15   16 1    
    31   15   74 1    
    32   15   75 1    
    33   16   17 1    
    34   17   18 1    
    35   17   76 1    
    36   17   77 1    
    37   18   19 1    
    38   18   27 1    
    39   18   78 1    
    40   19   20 am   BACKBONE|DICT|INTERRES
    41   19   79 1    
    42   20   21 2    
    43   20   22 1    
    44   22   23 1    
    45   22   24 1    
    46   22   80 1    
    47   23   81 1    
    48   23   82 1    
    49   23   83 1    
    50   24   25 am   BACKBONE|DICT|INTERRES
    51   24   84 1    
    52   25   26 2    
    53   27   28 2    
    54   27   29 am   BACKBONE|DICT|INTERRES
    55   29   30 1    
    56   29   85 1    
    57   30   31 1    
    58   30   32 1    
    59   30   86 1    
    60   31   87 1    
    61   31   88 1    
    62   31   89 1    
    63   32   33 2    
    64   32   34 am   BACKBONE|DICT|INTERRES
    65   34   35 1    
    66   34   90 1    
    67   35   36 1    
    68   35   37 1    
    69   35   91 1    
    70   36   92 1    
    71   36   93 1    
    72   36   94 1    
    73   37   38 2    
    74   37   39 am   BACKBONE|DICT|INTERRES
    75   39   40 1    
    76   39   95 1    
    77   40   41 1    
    78   40   42 1    
    79   40   96 1    
    80   41   97 1    
    81   41   98 1    
    82   41   99 1    
    83   42   43 2    
    84   42   44 am   BACKBONE|DICT|INTERRES
    85   44   45 1    
    86   44  100 1    
    87   45   46 1    
    88   45   47 1    
    89   45  101 1    
    90   46  102 1    
    91   46  103 1    
    92   46  104 1    
    93   47   48 2    
    94   47   49 am   BACKBONE|DICT|INTERRES
    95   49   50 1    
    96   49  105 1    
    97   50   51 1    
    98   50   52 1    
    99   50  106 1    
   100   51  107 1    
   101   51  108 1    
   102   51  109 1    
   103   52   53 2    
   104   52   54 am   BACKBONE|DICT|INTERRES
   105   54   55 1    
   106   54  110 1    
   107   55   56 1    
   108   55   59 1    
   109   55  111 1    
   110   56   57 am   BACKBONE|DICT|INTERRES
   111   56   58 2    
   112   57  112 1    
   113   57  113 1    
   114   59   60 1    
   115   59  114 1    
   116   59  115 1    
   117   60   61 1    
   118   61  116 1    
   119   61  117 1    
@<TRIPOS>SUBSTRUCTURE
     1 UNK         1 GROUP             0       ****    0 ROOT    
