@<TRIPOS>MOLECULE
3R8
117   119    1
SMALL
USER_CHARGES


@<TRIPOS>ATOM
      1 CA         19.2985  -28.8846  -42.1421 C.3       0 UNK        -0.2013 
      2 C          18.2656  -27.7861  -42.3091 C.2       0 UNK         0.4866 
      3 O          18.0570  -26.9942  -41.3895 O.2       0 UNK        -0.5176 
      4 N          17.6294  -27.7063  -43.4847 N.am      1 UNK        -0.4884 
      5 CA         16.5991  -26.7152  -43.8289 C.3       1 UNK         0.0853 
      6 C6         15.6617  -27.2158  -44.9590 C.3       10 UNK        -0.0849 
      7 S7         14.9182  -28.8443  -44.5915 S.3       10 UNK        -0.2776 
      8 C8         15.5650  -29.8763  -45.9484 C.3       10 UNK         0.0316 
      9 C9         17.0610  -30.1415  -45.8278 C.ar      10 UNK        -0.0863 
     10 C10        17.5292  -31.2056  -45.0500 C.ar      10 UNK        -0.1009 
     11 C11        18.8973  -31.4910  -44.9836 C.ar      10 UNK        -0.0712 
     12 C12        19.8025  -30.6851  -45.6820 C.ar      10 UNK        -0.0894 
     13 C13        19.3471  -29.6170  -46.4615 C.ar      10 UNK        -0.0745 
     14 C14        17.9761  -29.3571  -46.5365 C.ar      10 UNK        -0.0972 
     15 C15        20.3243  -28.7737  -47.2697 C.3       10 UNK         0.0209 
     16 S16        20.4375  -27.0650  -46.6531 S.3       10 UNK        -0.2568 
     17 C17        21.4010  -27.3126  -45.1298 C.3       10 UNK        -0.0983 
     18 CA         21.6667  -25.9830  -44.3788 C.3       3 UNK         0.0876 
     19 N          20.4223  -25.3546  -43.9467 N.am      3 UNK        -0.4424 
     20 C          20.2252  -24.0501  -43.7209 C.2       2 UNK         0.4918 
     21 O          21.0989  -23.1966  -43.8806 O.2       2 UNK        -0.4875 
     22 CA         18.8351  -23.6308  -43.1934 C.3       2 UNK         0.0481 
     23 CB         18.2745  -22.3974  -43.9311 C.3       2 UNK        -0.1831 
     24 N          17.8721  -24.7429  -43.1490 N.am      2 UNK        -0.4498 
     25 C          17.2688  -25.3667  -44.1731 C.2       1 UNK         0.5027 
     26 O          17.3051  -24.9727  -45.3391 O.2       1 UNK        -0.4969 
     27 C          22.5609  -26.2007  -43.1461 C.2       3 UNK         0.5005 
     28 O          22.5808  -27.3010  -42.5902 O.2       3 UNK        -0.5279 
     29 N          23.2824  -25.1519  -42.7274 N.am      4 UNK        -0.4463 
     30 CA         24.1705  -25.1506  -41.5561 C.3       4 UNK         0.0283 
     31 CB         24.7412  -23.7379  -41.3547 C.3       4 UNK        -0.1875 
     32 C          25.3097  -26.1876  -41.6132 C.2       4 UNK         0.4949 
     33 O          25.7851  -26.6176  -40.5631 O.2       4 UNK        -0.5039 
     34 N          25.7091  -26.5870  -42.8290 N.am      5 UNK        -0.4663 
     35 CA         26.6674  -27.6666  -43.0772 C.3       5 UNK         0.0242 
     36 CB         27.1647  -27.5729  -44.5288 C.3       5 UNK        -0.1982 
     37 C          26.0919  -29.0682  -42.7963 C.2       5 UNK         0.5017 
     38 O          26.8645  -29.9740  -42.4815 O.2       5 UNK        -0.5012 
     39 N          24.7656  -29.2269  -42.9192 N.am      6 UNK        -0.4439 
     40 CA         24.0469  -30.4639  -42.6089 C.3       6 UNK         0.0297 
     41 CB         22.8420  -30.6222  -43.5499 C.3       6 UNK        -0.2006 
     42 C          23.5962  -30.4780  -41.1425 C.2       6 UNK         0.4892 
     43 O          23.7449  -31.5073  -40.4832 O.2       6 UNK        -0.5089 
     44 N          23.0759  -29.3365  -40.6630 N.am      7 UNK        -0.4243 
     45 CA         22.6147  -29.0601  -39.2985 C.3       7 UNK         0.0196 
     46 CB         23.8130  -28.9772  -38.3272 C.3       7 UNK        -0.2007 
     47 C          21.5197  -30.0400  -38.8386 C.2       7 UNK         0.5020 
     48 O          20.3454  -29.8096  -39.1210 O.2       7 UNK        -0.5147 
     49 N          21.9183  -31.1133  -38.1450 N.am      8 UNK        -0.4734 
     50 CA         21.0379  -32.1996  -37.7079 C.3       8 UNK         0.0238 
     51 CB         21.6936  -32.9178  -36.5163 C.3       8 UNK        -0.1912 
     52 C          20.7009  -33.2063  -38.8256 C.2       8 UNK         0.5038 
     53 O          19.7953  -34.0179  -38.6303 O.2       8 UNK        -0.5046 
     54 N          21.4360  -33.1603  -39.9475 N.am      9 UNK        -0.4200 
     55 CA         21.3371  -34.0734  -41.1017 C.3       9 UNK         0.0839 
     56 C          21.8354  -35.5229  -40.8112 C.2       9 UNK         0.5513 
     57 N          22.5957  -35.7610  -39.7488 N.am      9 UNK        -0.7519 
     58 O          21.5591  -36.4449  -41.5747 O.2       9 UNK        -0.4960 
     59 C59        19.9462  -34.0460  -41.8030 C.3       10 UNK        -0.0876 
     60 S60        19.4847  -32.3905  -42.4198 S.3       10 UNK        -0.2414 
     61 C61        19.3874  -32.7059  -44.2078 C.3       10 UNK         0.0169 
     62 H62        18.9474  -29.6113  -41.4108 H         1 UNK         0.0903 
     63 H63        19.4909  -29.4085  -43.0763 H         1 UNK         0.0903 
     64 H64        20.2402  -28.4713  -41.7826 H         1 UNK         0.0903 
     65 H65        17.8185  -28.3943  -44.2032 H         1 UNK         0.3096 
     66 H66        15.9750  -26.5479  -42.9475 H         1 UNK         0.1121 
     67 H67        16.1871  -27.2599  -45.9129 H         1 UNK         0.0849 
     68 H68        14.8469  -26.5047  -45.1069 H         1 UNK         0.0849 
     69 H69        15.0282  -30.8262  -45.9489 H         1 UNK         0.0865 
     70 H70        15.3349  -29.4054  -46.9056 H         1 UNK         0.0865 
     71 H71        16.8264  -31.8290  -44.5137 H         1 UNK         0.1346 
     72 H72        20.8593  -30.9078  -45.6422 H         1 UNK         0.1412 
     73 H73        17.6266  -28.5474  -47.1625 H         1 UNK         0.1426 
     74 H74        19.9937  -28.7484  -48.3089 H         1 UNK         0.0716 
     75 H75        21.3186  -29.2233  -47.2780 H         1 UNK         0.0716 
     76 H76        22.3429  -27.7948  -45.3991 H         1 UNK         0.0695 
     77 H77        20.8619  -28.0170  -44.4959 H         1 UNK         0.0695 
     78 H78        22.1900  -25.3099  -45.0620 H         1 UNK         0.0983 
     79 H79        19.6483  -25.9797  -43.7871 H         1 UNK         0.3095 
     80 H80        18.9894  -23.3418  -42.1530 H         1 UNK         0.0454 
     81 H81        18.2020  -22.5606  -45.0064 H         1 UNK         0.0851 
     82 H82        18.9208  -21.5314  -43.7837 H         1 UNK         0.0851 
     83 H83        17.2850  -22.1280  -43.5626 H         1 UNK         0.0851 
     84 H84        17.8165  -25.2196  -42.2519 H         1 UNK         0.2976 
     85 H85        23.1663  -24.2703  -43.2109 H         1 UNK         0.3116 
     86 H86        23.5583  -25.3978  -40.6862 H         1 UNK         0.0646 
     87 H87        25.3418  -23.4193  -42.2075 H         1 UNK         0.0847 
     88 H88        25.3818  -23.6976  -40.4724 H         1 UNK         0.0847 
     89 H89        23.9475  -23.0049  -41.2086 H         1 UNK         0.0847 
     90 H90        25.2847  -26.1551  -43.6367 H         1 UNK         0.3040 
     91 H91        27.5225  -27.5261  -42.4118 H         1 UNK         0.1015 
     92 H92        26.3511  -27.6969  -45.2448 H         1 UNK         0.0786 
     93 H93        27.9036  -28.3478  -44.7383 H         1 UNK         0.0786 
     94 H94        27.6421  -26.6123  -44.7240 H         1 UNK         0.0786 
     95 H95        24.1944  -28.4099  -43.1014 H         1 UNK         0.3172 
     96 H96        24.7063  -31.3197  -42.7691 H         1 UNK         0.0595 
     97 H97        22.1006  -29.8372  -43.4031 H         1 UNK         0.0839 
     98 H98        22.3404  -31.5749  -43.3766 H         1 UNK         0.0839 
     99 H99        23.1506  -30.6033  -44.5949 H         1 UNK         0.0839 
    100 H100       22.9406  -28.5728  -41.3232 H         1 UNK         0.2998 
    101 H101       22.1497  -28.0733  -39.3287 H         1 UNK         0.0822 
    102 H102       24.4782  -28.1589  -38.6031 H         1 UNK         0.0787 
    103 H103       23.4790  -28.7879  -37.3060 H         1 UNK         0.0787 
    104 H104       24.4086  -29.8903  -38.3177 H         1 UNK         0.0787 
    105 H105       22.9099  -31.2379  -37.9961 H         1 UNK         0.3055 
    106 H106       20.0921  -31.7697  -37.3701 H         1 UNK         0.1106 
    107 H107       22.6484  -33.3682  -36.7898 H         1 UNK         0.0828 
    108 H108       21.0528  -33.7165  -36.1398 H         1 UNK         0.0828 
    109 H109       21.8705  -32.2315  -35.6880 H         1 UNK         0.0828 
    110 H110       22.1866  -32.4774  -40.0047 H         1 UNK         0.2931 
    111 H111       22.0584  -33.6862  -41.8223 H         1 UNK         0.0412 
    112 H112       22.8508  -35.0122  -39.1255 H         1 UNK         0.3472 
    113 H113       22.9225  -36.6986  -39.5748 H         1 UNK         0.3472 
    114 H114       19.1640  -34.3940  -41.1276 H         1 UNK         0.0970 
    115 H115       19.9330  -34.7430  -42.6424 H         1 UNK         0.0970 
    116 H116       20.3686  -33.0186  -44.5685 H         1 UNK         0.0612 
    117 H117       18.7110  -33.5428  -44.3890 H         1 UNK         0.0612 
@<TRIPOS>BOND
     1    1    2 1    
     2    1   62 1    
     3    1   63 1    
     4    1   64 1    
     5    2    3 2    
     6    2    4 am   BACKBONE|DICT|INTERRES
     7    4    5 1    
     8    4   65 1    
     9    5    6 1    
    10    5   25 1    
    11    5   66 1    
    12    6    7 1    
    13    6   67 1    
    14    6   68 1    
    15    7    8 1    
    16    8    9 1    
    17    8   69 1    
    18    8   70 1    
    19    9   10 ar   
    20    9   14 ar   
    21   10   11 ar   
    22   10   71 1    
    23   11   12 ar   
    24   11   61 1    
    25   12   13 ar   
    26   12   72 1    
    27   13   14 ar   
    28   13   15 1    
    29   14   73 1    
    30   15   16 1    
    31   15   74 1    
    32   15   75 1    
    33   16   17 1    
    34   17   18 1    
    35   17   76 1    
    36   17   77 1    
    37   18   19 1    
    38   18   27 1    
    39   18   78 1    
    40   19   20 am   BACKBONE|DICT|INTERRES
    41   19   79 1    
    42   20   21 2    
    43   20   22 1    
    44   22   23 1    
    45   22   24 1    
    46   22   80 1    
    47   23   81 1    
    48   23   82 1    
    49   23   83 1    
    50   24   25 am   BACKBONE|DICT|INTERRES
    51   24   84 1    
    52   25   26 2    
    53   27   28 2    
    54   27   29 am   BACKBONE|DICT|INTERRES
    55   29   30 1    
    56   29   85 1    
    57   30   31 1    
    58   30   32 1    
    59   30   86 1    
    60   31   87 1    
    61   31   88 1    
    62   31   89 1    
    63   32   33 2    
    64   32   34 am   BACKBONE|DICT|INTERRES
    65   34   35 1    
    66   34   90 1    
    67   35   36 1    
    68   35   37 1    
    69   35   91 1    
    70   36   92 1    
    71   36   93 1    
    72   36   94 1    
    73   37   38 2    
    74   37   39 am   BACKBONE|DICT|INTERRES
    75   39   40 1    
    76   39   95 1    
    77   40   41 1    
    78   40   42 1    
    79   40   96 1    
    80   41   97 1    
    81   41   98 1    
    82   41   99 1    
    83   42   43 2    
    84   42   44 am   BACKBONE|DICT|INTERRES
    85   44   45 1    
    86   44  100 1    
    87   45   46 1    
    88   45   47 1    
    89   45  101 1    
    90   46  102 1    
    91   46  103 1    
    92   46  104 1    
    93   47   48 2    
    94   47   49 am   BACKBONE|DICT|INTERRES
    95   49   50 1    
    96   49  105 1    
    97   50   51 1    
    98   50   52 1    
    99   50  106 1    
   100   51  107 1    
   101   51  108 1    
   102   51  109 1    
   103   52   53 2    
   104   52   54 am   BACKBONE|DICT|INTERRES
   105   54   55 1    
   106   54  110 1    
   107   55   56 1    
   108   55   59 1    
   109   55  111 1    
   110   56   57 am   BACKBONE|DICT|INTERRES
   111   56   58 2    
   112   57  112 1    
   113   57  113 1    
   114   59   60 1    
   115   59  114 1    
   116   59  115 1    
   117   60   61 1    
   118   61  116 1    
   119   61  117 1    
@<TRIPOS>SUBSTRUCTURE
     1 UNK         1 GROUP             0       ****    0 ROOT    
