@<TRIPOS>MOLECULE
3R8
117   119    1
SMALL
USER_CHARGES


@<TRIPOS>ATOM
      1 CA         20.9100  -25.3956  -49.4457 C.3       0 UNK        -0.2013 
      2 C          20.5201  -26.0788  -48.1434 C.2       0 UNK         0.4866 
      3 O          19.6004  -25.6125  -47.4724 O.2       0 UNK        -0.5176 
      4 N          21.2340  -27.1576  -47.7884 N.am      1 UNK        -0.4884 
      5 CA         21.1009  -28.0726  -46.6368 C.3       1 UNK         0.0853 
      6 C6         19.9331  -29.0887  -46.7561 C.3       10 UNK        -0.0849 
      7 S7         18.2458  -28.4271  -46.5346 S.3       10 UNK        -0.2776 
      8 C8         17.3511  -29.9105  -45.9761 C.3       10 UNK         0.0316 
      9 C9         17.4098  -30.0722  -44.4641 C.ar      10 UNK        -0.0863 
     10 C10        18.4132  -30.8401  -43.8658 C.ar      10 UNK        -0.1009 
     11 C11        18.4483  -31.0068  -42.4785 C.ar      10 UNK        -0.0712 
     12 C12        17.4572  -30.4166  -41.6888 C.ar      10 UNK        -0.0894 
     13 C13        16.4546  -29.6365  -42.2742 C.ar      10 UNK        -0.0745 
     14 C14        16.4387  -29.4667  -43.6617 C.ar      10 UNK        -0.0972 
     15 C15        15.3797  -28.9837  -41.4145 C.3       10 UNK         0.0209 
     16 S16        16.0650  -27.8346  -40.1774 S.3       10 UNK        -0.2568 
     17 C17        16.9634  -26.6271  -41.2129 C.3       10 UNK        -0.0983 
     18 CA         18.5032  -26.8187  -41.1819 C.3       3 UNK         0.0876 
     19 N          19.1407  -26.1247  -42.3136 N.am      3 UNK        -0.4424 
     20 C          20.4564  -26.0455  -42.5554 C.2       2 UNK         0.4918 
     21 O          21.3202  -26.4910  -41.7998 O.2       2 UNK        -0.4875 
     22 CA         20.8779  -25.3479  -43.8601 C.3       2 UNK         0.0481 
     23 CB         22.3132  -24.7903  -43.7726 C.3       2 UNK        -0.1831 
     24 N          20.7536  -26.2105  -45.0398 N.am      2 UNK        -0.4498 
     25 C          21.2263  -27.4518  -45.2257 C.2       1 UNK         0.5027 
     26 O          21.7876  -28.1100  -44.3511 O.2       1 UNK        -0.4969 
     27 C          19.0948  -26.4643  -39.7944 C.2       3 UNK         0.5005 
     28 O          19.2345  -27.3503  -38.9502 O.2       3 UNK        -0.5279 
     29 N          19.4723  -25.1916  -39.5980 N.am      4 UNK        -0.4463 
     30 CA         20.1133  -24.6906  -38.3773 C.3       4 UNK         0.0283 
     31 CB         20.1420  -23.1541  -38.4147 C.3       4 UNK        -0.1875 
     32 C          21.5318  -25.2455  -38.1387 C.2       4 UNK         0.4949 
     33 O          21.9368  -25.3722  -36.9829 O.2       4 UNK        -0.5039 
     34 N          22.2593  -25.5563  -39.2199 N.am      5 UNK        -0.4663 
     35 CA         23.6015  -26.1449  -39.1820 C.3       5 UNK         0.0242 
     36 CB         24.4400  -25.5477  -40.3250 C.3       5 UNK        -0.1982 
     37 C          23.5663  -27.6776  -39.3028 C.2       5 UNK         0.5017 
     38 O          24.4863  -28.3359  -38.8173 O.2       5 UNK        -0.5012 
     39 N          22.5237  -28.2038  -39.9635 N.am      6 UNK        -0.4439 
     40 CA         22.3023  -29.6027  -40.3431 C.3       6 UNK         0.0297 
     41 CB         22.1624  -30.5062  -39.1005 C.3       6 UNK        -0.2006 
     42 C          23.3534  -30.1093  -41.3502 C.2       6 UNK         0.4892 
     43 O          23.7492  -31.2778  -41.2998 O.2       6 UNK        -0.5089 
     44 N          23.7710  -29.2232  -42.2664 N.am      7 UNK        -0.4243 
     45 CA         24.8227  -29.4195  -43.2705 C.3       7 UNK         0.0196 
     46 CB         25.3263  -28.0378  -43.7286 C.3       7 UNK        -0.2007 
     47 C          24.3821  -30.3116  -44.4508 C.2       7 UNK         0.5020 
     48 O          24.5590  -29.9458  -45.6142 O.2       7 UNK        -0.5147 
     49 N          23.8287  -31.4785  -44.1172 N.am      8 UNK        -0.4734 
     50 CA         23.3789  -32.5405  -45.0150 C.3       8 UNK         0.0238 
     51 CB         22.1550  -32.1006  -45.8418 C.3       8 UNK        -0.1912 
     52 C          23.0521  -33.7904  -44.1909 C.2       8 UNK         0.5038 
     53 O          23.4471  -34.8914  -44.5752 O.2       8 UNK        -0.5046 
     54 N          22.3505  -33.5885  -43.0671 N.am      9 UNK        -0.4200 
     55 CA         21.9955  -34.6351  -42.0983 C.3       9 UNK         0.0839 
     56 C          23.2075  -35.1180  -41.2554 C.2       9 UNK         0.5513 
     57 N          24.1546  -34.2483  -40.9203 N.am      9 UNK        -0.7519 
     58 O          23.2863  -36.2919  -40.9035 O.2       9 UNK        -0.4960 
     59 C59        20.8342  -34.2042  -41.1638 C.3       10 UNK        -0.0876 
     60 S60        19.3603  -33.5910  -42.0514 S.3       10 UNK        -0.2414 
     61 C61        19.5735  -31.7982  -41.8331 C.3       10 UNK         0.0169 
     62 H62        20.0619  -25.3840  -50.1299 H         1 UNK         0.0903 
     63 H63        21.2066  -24.3647  -49.2542 H         1 UNK         0.0903 
     64 H64        21.7384  -25.9001  -49.9427 H         1 UNK         0.0903 
     65 H65        21.9938  -27.4142  -48.4041 H         1 UNK         0.3096 
     66 H66        22.0074  -28.6769  -46.7164 H         1 UNK         0.1121 
     67 H67        19.9746  -29.5775  -47.7306 H         1 UNK         0.0849 
     68 H68        20.0881  -29.8844  -46.0288 H         1 UNK         0.0849 
     69 H69        16.3106  -29.8292  -46.2946 H         1 UNK         0.0865 
     70 H70        17.7456  -30.7976  -46.4744 H         1 UNK         0.0865 
     71 H71        19.1655  -31.3164  -44.4767 H         1 UNK         0.1346 
     72 H72        17.4745  -30.5447  -40.6149 H         1 UNK         0.1412 
     73 H73        15.6642  -28.8684  -44.1223 H         1 UNK         0.1426 
     74 H74        14.8190  -29.7635  -40.8974 H         1 UNK         0.0716 
     75 H75        14.6582  -28.4456  -42.0314 H         1 UNK         0.0716 
     76 H76        16.6919  -25.6206  -40.8891 H         1 UNK         0.0695 
     77 H77        16.5939  -26.7156  -42.2358 H         1 UNK         0.0695 
     78 H78        18.7154  -27.8776  -41.3421 H         1 UNK         0.0983 
     79 H79        18.5116  -25.7368  -43.0016 H         1 UNK         0.3095 
     80 H80        20.2033  -24.5044  -44.0133 H         1 UNK         0.0454 
     81 H81        22.4241  -24.1247  -42.9157 H         1 UNK         0.0851 
     82 H82        23.0512  -25.5854  -43.6643 H         1 UNK         0.0851 
     83 H83        22.5701  -24.2175  -44.6634 H         1 UNK         0.0851 
     84 H84        20.2611  -25.8103  -45.8381 H         1 UNK         0.2976 
     85 H85        19.3261  -24.5278  -40.3450 H         1 UNK         0.3116 
     86 H86        19.4971  -24.9971  -37.5293 H         1 UNK         0.0646 
     87 H87        20.5876  -22.7507  -37.5042 H         1 UNK         0.0847 
     88 H88        19.1372  -22.7384  -38.4914 H         1 UNK         0.0847 
     89 H89        20.7275  -22.7801  -39.2556 H         1 UNK         0.0847 
     90 H90        21.8302  -25.4753  -40.1346 H         1 UNK         0.3040 
     91 H91        24.0901  -25.8985  -38.2364 H         1 UNK         0.1015 
     92 H92        24.5149  -24.4638  -40.2371 H         1 UNK         0.0786 
     93 H93        24.0141  -25.7766  -41.3024 H         1 UNK         0.0786 
     94 H94        25.4560  -25.9449  -40.3121 H         1 UNK         0.0786 
     95 H95        21.8820  -27.5425  -40.3939 H         1 UNK         0.3172 
     96 H96        21.3477  -29.6135  -40.8698 H         1 UNK         0.0595 
     97 H97        21.4028  -30.1245  -38.4182 H         1 UNK         0.0839 
     98 H98        23.0997  -30.5885  -38.5497 H         1 UNK         0.0839 
     99 H99        21.8673  -31.5163  -39.3803 H         1 UNK         0.0839 
    100 H100       23.2904  -28.3339  -42.3072 H         1 UNK         0.2998 
    101 H101       25.6570  -29.9308  -42.7858 H         1 UNK         0.0822 
    102 H102       24.5456  -27.4793  -44.2462 H         1 UNK         0.0787 
    103 H103       26.1680  -28.1352  -44.4155 H         1 UNK         0.0787 
    104 H104       25.6667  -27.4377  -42.8845 H         1 UNK         0.0787 
    105 H105       23.7916  -31.6831  -43.1213 H         1 UNK         0.3055 
    106 H106       24.1979  -32.7887  -45.6937 H         1 UNK         0.1106 
    107 H107       21.3395  -31.7715  -45.1994 H         1 UNK         0.0828 
    108 H108       22.3998  -31.2836  -46.5197 H         1 UNK         0.0828 
    109 H109       21.7803  -32.9222  -46.4537 H         1 UNK         0.0828 
    110 H110       22.0565  -32.6539  -42.8351 H         1 UNK         0.2931 
    111 H111       21.6436  -35.4957  -42.6711 H         1 UNK         0.0412 
    112 H112       24.9416  -34.5645  -40.3762 H         1 UNK         0.3472 
    113 H113       24.0646  -33.2646  -41.1484 H         1 UNK         0.3472 
    114 H114       21.1721  -33.4472  -40.4555 H         1 UNK         0.0970 
    115 H115       20.5171  -35.0530  -40.5547 H         1 UNK         0.0970 
    116 H116       20.5232  -31.4891  -42.2702 H         1 UNK         0.0612 
    117 H117       19.6319  -31.5712  -40.7674 H         1 UNK         0.0612 
@<TRIPOS>BOND
     1    1    2 1    
     2    1   62 1    
     3    1   63 1    
     4    1   64 1    
     5    2    3 2    
     6    2    4 am   BACKBONE|DICT|INTERRES
     7    4    5 1    
     8    4   65 1    
     9    5    6 1    
    10    5   25 1    
    11    5   66 1    
    12    6    7 1    
    13    6   67 1    
    14    6   68 1    
    15    7    8 1    
    16    8    9 1    
    17    8   69 1    
    18    8   70 1    
    19    9   10 ar   
    20    9   14 ar   
    21   10   11 ar   
    22   10   71 1    
    23   11   12 ar   
    24   11   61 1    
    25   12   13 ar   
    26   12   72 1    
    27   13   14 ar   
    28   13   15 1    
    29   14   73 1    
    30   15   16 1    
    31   15   74 1    
    32   15   75 1    
    33   16   17 1    
    34   17   18 1    
    35   17   76 1    
    36   17   77 1    
    37   18   19 1    
    38   18   27 1    
    39   18   78 1    
    40   19   20 am   BACKBONE|DICT|INTERRES
    41   19   79 1    
    42   20   21 2    
    43   20   22 1    
    44   22   23 1    
    45   22   24 1    
    46   22   80 1    
    47   23   81 1    
    48   23   82 1    
    49   23   83 1    
    50   24   25 am   BACKBONE|DICT|INTERRES
    51   24   84 1    
    52   25   26 2    
    53   27   28 2    
    54   27   29 am   BACKBONE|DICT|INTERRES
    55   29   30 1    
    56   29   85 1    
    57   30   31 1    
    58   30   32 1    
    59   30   86 1    
    60   31   87 1    
    61   31   88 1    
    62   31   89 1    
    63   32   33 2    
    64   32   34 am   BACKBONE|DICT|INTERRES
    65   34   35 1    
    66   34   90 1    
    67   35   36 1    
    68   35   37 1    
    69   35   91 1    
    70   36   92 1    
    71   36   93 1    
    72   36   94 1    
    73   37   38 2    
    74   37   39 am   BACKBONE|DICT|INTERRES
    75   39   40 1    
    76   39   95 1    
    77   40   41 1    
    78   40   42 1    
    79   40   96 1    
    80   41   97 1    
    81   41   98 1    
    82   41   99 1    
    83   42   43 2    
    84   42   44 am   BACKBONE|DICT|INTERRES
    85   44   45 1    
    86   44  100 1    
    87   45   46 1    
    88   45   47 1    
    89   45  101 1    
    90   46  102 1    
    91   46  103 1    
    92   46  104 1    
    93   47   48 2    
    94   47   49 am   BACKBONE|DICT|INTERRES
    95   49   50 1    
    96   49  105 1    
    97   50   51 1    
    98   50   52 1    
    99   50  106 1    
   100   51  107 1    
   101   51  108 1    
   102   51  109 1    
   103   52   53 2    
   104   52   54 am   BACKBONE|DICT|INTERRES
   105   54   55 1    
   106   54  110 1    
   107   55   56 1    
   108   55   59 1    
   109   55  111 1    
   110   56   57 am   BACKBONE|DICT|INTERRES
   111   56   58 2    
   112   57  112 1    
   113   57  113 1    
   114   59   60 1    
   115   59  114 1    
   116   59  115 1    
   117   60   61 1    
   118   61  116 1    
   119   61  117 1    
@<TRIPOS>SUBSTRUCTURE
     1 UNK         1 GROUP             0       ****    0 ROOT    
