@<TRIPOS>MOLECULE
3R8
117   119    1
SMALL
USER_CHARGES


@<TRIPOS>ATOM
      1 CA         13.3011  -23.3506  -44.5846 C.3       0 UNK        -0.2013 
      2 C          14.3843  -24.1612  -45.2803 C.2       0 UNK         0.4866 
      3 O          14.6702  -23.9189  -46.4529 O.2       0 UNK        -0.5176 
      4 N          14.9828  -25.1250  -44.5676 N.am      1 UNK        -0.4884 
      5 CA         16.0538  -26.0003  -45.0615 C.3       1 UNK         0.0853 
      6 C6         16.3503  -27.1507  -44.0705 C.3       10 UNK        -0.0849 
      7 S7         14.9893  -28.3646  -43.9686 S.3       10 UNK        -0.2776 
      8 C8         15.4843  -29.6277  -45.1928 C.3       10 UNK         0.0316 
      9 C9         16.8710  -30.1909  -44.9130 C.ar      10 UNK        -0.0863 
     10 C10        17.0816  -31.0511  -43.8308 C.ar      10 UNK        -0.1009 
     11 C11        18.3680  -31.5106  -43.5318 C.ar      10 UNK        -0.0712 
     12 C12        19.4441  -31.1061  -44.3268 C.ar      10 UNK        -0.0894 
     13 C13        19.2460  -30.2488  -45.4120 C.ar      10 UNK        -0.0745 
     14 C14        17.9536  -29.8125  -45.7136 C.ar      10 UNK        -0.0972 
     15 C15        20.4289  -29.7772  -46.2466 C.3       10 UNK         0.0209 
     16 S16        20.7007  -27.9803  -46.1001 S.3       10 UNK        -0.2568 
     17 C17        21.1847  -27.8133  -44.3492 C.3       10 UNK        -0.0983 
     18 CA         21.4731  -26.3373  -43.9636 C.3       3 UNK         0.0876 
     19 N          20.2816  -25.4905  -44.1227 N.am      3 UNK        -0.4424 
     20 C          20.2804  -24.1778  -44.3920 C.2       2 UNK         0.4918 
     21 O          21.3172  -23.5221  -44.5076 O.2       2 UNK        -0.4875 
     22 CA         18.9206  -23.4501  -44.4924 C.3       2 UNK         0.0481 
     23 CB         18.8718  -22.4935  -45.7021 C.3       2 UNK        -0.1831 
     24 N          17.7329  -24.3180  -44.4589 N.am      2 UNK        -0.4498 
     25 C          17.3518  -25.2274  -45.3707 C.2       1 UNK         0.5027 
     26 O          17.9766  -25.4803  -46.4003 O.2       1 UNK        -0.4969 
     27 C          22.0591  -26.1962  -42.5387 C.2       3 UNK         0.5005 
     28 O          22.2371  -27.1923  -41.8332 O.2       3 UNK        -0.5279 
     29 N          22.3222  -24.9496  -42.1233 N.am      4 UNK        -0.4463 
     30 CA         22.8601  -24.5875  -40.8127 C.3       4 UNK         0.0283 
     31 CB         22.8012  -23.0610  -40.6418 C.3       4 UNK        -0.1875 
     32 C          24.2966  -25.1010  -40.6333 C.2       4 UNK         0.4949 
     33 O          25.1417  -24.8483  -41.4940 O.2       4 UNK        -0.5039 
     34 N          24.5315  -25.8096  -39.5197 N.am      5 UNK        -0.4663 
     35 CA         25.8050  -26.4130  -39.0964 C.3       5 UNK         0.0242 
     36 CB         26.8501  -25.3187  -38.7881 C.3       5 UNK        -0.1982 
     37 C          26.3536  -27.4963  -40.0513 C.2       5 UNK         0.5017 
     38 O          27.5441  -27.8077  -39.9900 O.2       5 UNK        -0.5012 
     39 N          25.4878  -28.0676  -40.9025 N.am      6 UNK        -0.4439 
     40 CA         25.8445  -29.1030  -41.8778 C.3       6 UNK         0.0297 
     41 CB         24.7392  -29.1946  -42.9432 C.3       6 UNK        -0.2006 
     42 C          26.0940  -30.4873  -41.2515 C.2       6 UNK         0.4892 
     43 O          26.7776  -31.3029  -41.8707 O.2       6 UNK        -0.5089 
     44 N          25.5130  -30.7339  -40.0644 N.am      7 UNK        -0.4243 
     45 CA         25.5041  -32.0059  -39.3213 C.3       7 UNK         0.0196 
     46 CB         26.9247  -32.3799  -38.8464 C.3       7 UNK        -0.2007 
     47 C          24.8060  -33.1548  -40.0830 C.2       7 UNK         0.5020 
     48 O          25.1177  -34.3265  -39.8633 O.2       7 UNK        -0.5147 
     49 N          23.8733  -32.7921  -40.9702 N.am      8 UNK        -0.4734 
     50 CA         23.0822  -33.6989  -41.7976 C.3       8 UNK         0.0238 
     51 CB         22.7023  -32.9491  -43.0848 C.3       8 UNK        -0.1912 
     52 C          21.8255  -34.1856  -41.0579 C.2       8 UNK         0.5038 
     53 O          21.4247  -33.5850  -40.0574 O.2       8 UNK        -0.5046 
     54 N          21.2136  -35.2481  -41.5963 N.am      9 UNK        -0.4200 
     55 CA         19.9756  -35.8859  -41.1089 C.3       9 UNK         0.0839 
     56 C          20.1214  -36.6415  -39.7520 C.2       9 UNK         0.5513 
     57 N          21.3283  -36.9234  -39.2758 N.am      9 UNK        -0.7519 
     58 O          19.1258  -37.0100  -39.1334 O.2       9 UNK        -0.4960 
     59 C59        18.7349  -34.9434  -41.1329 C.3       10 UNK        -0.0876 
     60 S60        18.4384  -34.1672  -42.7608 S.3       10 UNK        -0.2414 
     61 C61        18.6020  -32.4091  -42.3275 C.3       10 UNK         0.0169 
     62 H62        13.1451  -23.6747  -43.5558 H         1 UNK         0.0903 
     63 H63        13.5734  -22.2955  -44.5700 H         1 UNK         0.0903 
     64 H64        12.3563  -23.4513  -45.1182 H         1 UNK         0.0903 
     65 H65        14.6782  -25.2998  -43.6200 H         1 UNK         0.3096 
     66 H66        15.7188  -26.4356  -46.0060 H         1 UNK         0.1121 
     67 H67        16.5159  -26.7530  -43.0675 H         1 UNK         0.0849 
     68 H68        17.2793  -27.6594  -44.3242 H         1 UNK         0.0849 
     69 H69        14.7550  -30.4391  -45.1808 H         1 UNK         0.0865 
     70 H70        15.4378  -29.1931  -46.1926 H         1 UNK         0.0865 
     71 H71        16.2474  -31.3419  -43.2066 H         1 UNK         0.1346 
     72 H72        20.4398  -31.4492  -44.0947 H         1 UNK         0.1412 
     73 H73        17.8021  -29.1383  -46.5461 H         1 UNK         0.1426 
     74 H74        20.2451  -30.0216  -47.2937 H         1 UNK         0.0716 
     75 H75        21.3434  -30.3013  -45.9645 H         1 UNK         0.0716 
     76 H76        20.3963  -28.2279  -43.7183 H         1 UNK         0.0695 
     77 H77        22.0682  -28.4341  -44.1916 H         1 UNK         0.0695 
     78 H78        22.2477  -25.9737  -44.6429 H         1 UNK         0.0983 
     79 H79        19.3936  -25.9570  -44.0273 H         1 UNK         0.3095 
     80 H80        18.8538  -22.8354  -43.5938 H         1 UNK         0.0454 
     81 H81        19.6590  -21.7411  -45.6397 H         1 UNK         0.0851 
     82 H82        17.9218  -21.9613  -45.7498 H         1 UNK         0.0851 
     83 H83        19.0073  -23.0233  -46.6453 H         1 UNK         0.0851 
     84 H84        17.1349  -24.1969  -43.6527 H         1 UNK         0.2976 
     85 H85        22.1718  -24.1959  -42.7856 H         1 UNK         0.3116 
     86 H86        22.2191  -25.0407  -40.0534 H         1 UNK         0.0646 
     87 H87        23.4024  -22.5470  -41.3931 H         1 UNK         0.0847 
     88 H88        23.1798  -22.7634  -39.6630 H         1 UNK         0.0847 
     89 H89        21.7788  -22.6906  -40.7191 H         1 UNK         0.0847 
     90 H90        23.7534  -25.9678  -38.8927 H         1 UNK         0.3040 
     91 H91        25.5949  -26.9326  -38.1601 H         1 UNK         0.1015 
     92 H92        27.1722  -24.7997  -39.6915 H         1 UNK         0.0786 
     93 H93        27.7410  -25.7445  -38.3246 H         1 UNK         0.0786 
     94 H94        26.4542  -24.5747  -38.0969 H         1 UNK         0.0786 
     95 H95        24.5304  -27.7391  -40.9089 H         1 UNK         0.3172 
     96 H96        26.7678  -28.7986  -42.3756 H         1 UNK         0.0595 
     97 H97        23.7794  -29.4768  -42.5087 H         1 UNK         0.0839 
     98 H98        24.9852  -29.9402  -43.7009 H         1 UNK         0.0839 
     99 H99        24.6068  -28.2433  -43.4588 H         1 UNK         0.0839 
    100 H100       24.9750  -29.9848  -39.6520 H         1 UNK         0.2998 
    101 H101       24.8982  -31.8315  -38.4309 H         1 UNK         0.0822 
    102 H102       26.8987  -33.2343  -38.1690 H         1 UNK         0.0787 
    103 H103       27.5738  -32.6481  -39.6805 H         1 UNK         0.0787 
    104 H104       27.3929  -31.5557  -38.3083 H         1 UNK         0.0787 
    105 H105       23.6476  -31.8115  -41.0394 H         1 UNK         0.3055 
    106 H106       23.6872  -34.5705  -42.0590 H         1 UNK         0.1106 
    107 H107       23.5872  -32.7014  -43.6717 H         1 UNK         0.0828 
    108 H108       22.0483  -33.5453  -43.7227 H         1 UNK         0.0828 
    109 H109       22.1853  -32.0174  -42.8573 H         1 UNK         0.0828 
    110 H110       21.6171  -35.6744  -42.4179 H         1 UNK         0.2931 
    111 H111       19.7751  -36.6779  -41.8313 H         1 UNK         0.0412 
    112 H112       22.1560  -36.6348  -39.7724 H         1 UNK         0.3472 
    113 H113       21.4107  -37.4225  -38.4037 H         1 UNK         0.3472 
    114 H114       18.8274  -34.1757  -40.3630 H         1 UNK         0.0970 
    115 H115       17.8329  -35.5035  -40.8802 H         1 UNK         0.0970 
    116 H116       19.5949  -32.2287  -41.9130 H         1 UNK         0.0612 
    117 H117       17.8892  -32.1642  -41.5385 H         1 UNK         0.0612 
@<TRIPOS>BOND
     1    1    2 1    
     2    1   62 1    
     3    1   63 1    
     4    1   64 1    
     5    2    3 2    
     6    2    4 am   BACKBONE|DICT|INTERRES
     7    4    5 1    
     8    4   65 1    
     9    5    6 1    
    10    5   25 1    
    11    5   66 1    
    12    6    7 1    
    13    6   67 1    
    14    6   68 1    
    15    7    8 1    
    16    8    9 1    
    17    8   69 1    
    18    8   70 1    
    19    9   10 ar   
    20    9   14 ar   
    21   10   11 ar   
    22   10   71 1    
    23   11   12 ar   
    24   11   61 1    
    25   12   13 ar   
    26   12   72 1    
    27   13   14 ar   
    28   13   15 1    
    29   14   73 1    
    30   15   16 1    
    31   15   74 1    
    32   15   75 1    
    33   16   17 1    
    34   17   18 1    
    35   17   76 1    
    36   17   77 1    
    37   18   19 1    
    38   18   27 1    
    39   18   78 1    
    40   19   20 am   BACKBONE|DICT|INTERRES
    41   19   79 1    
    42   20   21 2    
    43   20   22 1    
    44   22   23 1    
    45   22   24 1    
    46   22   80 1    
    47   23   81 1    
    48   23   82 1    
    49   23   83 1    
    50   24   25 am   BACKBONE|DICT|INTERRES
    51   24   84 1    
    52   25   26 2    
    53   27   28 2    
    54   27   29 am   BACKBONE|DICT|INTERRES
    55   29   30 1    
    56   29   85 1    
    57   30   31 1    
    58   30   32 1    
    59   30   86 1    
    60   31   87 1    
    61   31   88 1    
    62   31   89 1    
    63   32   33 2    
    64   32   34 am   BACKBONE|DICT|INTERRES
    65   34   35 1    
    66   34   90 1    
    67   35   36 1    
    68   35   37 1    
    69   35   91 1    
    70   36   92 1    
    71   36   93 1    
    72   36   94 1    
    73   37   38 2    
    74   37   39 am   BACKBONE|DICT|INTERRES
    75   39   40 1    
    76   39   95 1    
    77   40   41 1    
    78   40   42 1    
    79   40   96 1    
    80   41   97 1    
    81   41   98 1    
    82   41   99 1    
    83   42   43 2    
    84   42   44 am   BACKBONE|DICT|INTERRES
    85   44   45 1    
    86   44  100 1    
    87   45   46 1    
    88   45   47 1    
    89   45  101 1    
    90   46  102 1    
    91   46  103 1    
    92   46  104 1    
    93   47   48 2    
    94   47   49 am   BACKBONE|DICT|INTERRES
    95   49   50 1    
    96   49  105 1    
    97   50   51 1    
    98   50   52 1    
    99   50  106 1    
   100   51  107 1    
   101   51  108 1    
   102   51  109 1    
   103   52   53 2    
   104   52   54 am   BACKBONE|DICT|INTERRES
   105   54   55 1    
   106   54  110 1    
   107   55   56 1    
   108   55   59 1    
   109   55  111 1    
   110   56   57 am   BACKBONE|DICT|INTERRES
   111   56   58 2    
   112   57  112 1    
   113   57  113 1    
   114   59   60 1    
   115   59  114 1    
   116   59  115 1    
   117   60   61 1    
   118   61  116 1    
   119   61  117 1    
@<TRIPOS>SUBSTRUCTURE
     1 UNK         1 GROUP             0       ****    0 ROOT    
