@<TRIPOS>MOLECULE
3R8
117   119    1
SMALL
USER_CHARGES


@<TRIPOS>ATOM
      1 CA         19.2355  -29.5862  -40.7800 C.3       0 UNK        -0.2013 
      2 C          18.8229  -28.1812  -41.1816 C.2       0 UNK         0.4866 
      3 O          18.9638  -27.2502  -40.3878 O.2       0 UNK        -0.5176 
      4 N          18.2859  -28.0319  -42.3974 N.am      1 UNK        -0.4884 
      5 CA         17.7652  -26.7694  -42.9362 C.3       1 UNK         0.0853 
      6 C6         16.5722  -26.9921  -43.9090 C.3       10 UNK        -0.0849 
      7 S7         15.3725  -28.2390  -43.2953 S.3       10 UNK        -0.2776 
      8 C8         15.4265  -29.5803  -44.5376 C.3       10 UNK         0.0316 
      9 C9         16.8374  -30.0546  -44.8703 C.ar      10 UNK        -0.0863 
     10 C10        17.4795  -31.0330  -44.1055 C.ar      10 UNK        -0.1009 
     11 C11        18.7618  -31.4747  -44.4555 C.ar      10 UNK        -0.0712 
     12 C12        19.4195  -30.8906  -45.5450 C.ar      10 UNK        -0.0894 
     13 C13        18.7957  -29.8996  -46.3111 C.ar      10 UNK        -0.0745 
     14 C14        17.4865  -29.5281  -45.9872 C.ar      10 UNK        -0.0972 
     15 C15        19.5442  -29.2609  -47.4849 C.3       10 UNK         0.0209 
     16 S16        18.9381  -27.5876  -47.9153 S.3       10 UNK        -0.2568 
     17 C17        20.4371  -26.7118  -48.4790 C.3       10 UNK        -0.0983 
     18 CA         21.2038  -25.9616  -47.3523 C.3       3 UNK         0.0876 
     19 N          20.2933  -25.2973  -46.4126 N.am      3 UNK        -0.4424 
     20 C          20.5973  -24.2453  -45.6451 C.2       2 UNK         0.4918 
     21 O          21.6781  -23.6575  -45.6919 O.2       2 UNK        -0.4875 
     22 CA         19.5183  -23.7583  -44.6526 C.3       2 UNK         0.0481 
     23 CB         18.7252  -22.5939  -45.2677 C.3       2 UNK        -0.1831 
     24 N          18.5727  -24.7739  -44.1555 N.am      2 UNK        -0.4498 
     25 C          18.9069  -25.9290  -43.5586 C.2       1 UNK         0.5027 
     26 O          20.0705  -26.3277  -43.4926 O.2       1 UNK        -0.4969 
     27 C          22.2277  -26.8933  -46.6671 C.2       3 UNK         0.5005 
     28 O          23.2207  -27.2468  -47.3070 O.2       3 UNK        -0.5279 
     29 N          21.9761  -27.3133  -45.4190 N.am      4 UNK        -0.4463 
     30 CA         22.8294  -28.2463  -44.6833 C.3       4 UNK         0.0283 
     31 CB         22.0244  -28.8655  -43.5314 C.3       4 UNK        -0.1875 
     32 C          24.0896  -27.5563  -44.1399 C.2       4 UNK         0.4949 
     33 O          24.0631  -26.3613  -43.8372 O.2       4 UNK        -0.5039 
     34 N          25.1639  -28.3405  -43.9836 N.am      5 UNK        -0.4663 
     35 CA         26.4315  -27.8967  -43.3918 C.3       5 UNK         0.0242 
     36 CB         27.5346  -28.9064  -43.7489 C.3       5 UNK        -0.1982 
     37 C          26.3544  -27.7027  -41.8655 C.2       5 UNK         0.5017 
     38 O          27.1590  -26.9524  -41.3120 O.2       5 UNK        -0.5012 
     39 N          25.3975  -28.3768  -41.2188 N.am      6 UNK        -0.4439 
     40 CA         25.0977  -28.3112  -39.7944 C.3       6 UNK         0.0297 
     41 CB         26.0880  -29.1878  -39.0037 C.3       6 UNK        -0.2006 
     42 C          23.6572  -28.7930  -39.5938 C.2       6 UNK         0.4892 
     43 O          23.1165  -29.4822  -40.4617 O.2       6 UNK        -0.5089 
     44 N          23.0777  -28.4631  -38.4330 N.am      7 UNK        -0.4243 
     45 CA         21.7200  -28.8536  -38.0310 C.3       7 UNK         0.0196 
     46 CB         21.3127  -28.0325  -36.7964 C.3       7 UNK        -0.2007 
     47 C          21.5436  -30.3616  -37.7541 C.2       7 UNK         0.5020 
     48 O          20.4095  -30.8186  -37.6100 O.2       7 UNK        -0.5147 
     49 N          22.6568  -31.1038  -37.6701 N.am      8 UNK        -0.4734 
     50 CA         22.7384  -32.5224  -37.3107 C.3       8 UNK         0.0238 
     51 CB         24.2170  -32.9444  -37.2870 C.3       8 UNK        -0.1912 
     52 C          21.9235  -33.4837  -38.1949 C.2       8 UNK         0.5038 
     53 O          21.5342  -34.5429  -37.7001 O.2       8 UNK        -0.5046 
     54 N          21.6753  -33.1188  -39.4619 N.am      9 UNK        -0.4200 
     55 CA         20.8127  -33.8911  -40.3716 C.3       9 UNK         0.0839 
     56 C          19.2842  -33.7320  -40.1110 C.2       9 UNK         0.5513 
     57 N          18.8407  -32.8277  -39.2441 N.am      9 UNK        -0.7519 
     58 O          18.4867  -34.4623  -40.6933 O.2       9 UNK        -0.4960 
     59 C59        21.2126  -33.7148  -41.8622 C.3       10 UNK        -0.0876 
     60 S60        20.7650  -32.1098  -42.6119 S.3       10 UNK        -0.2414 
     61 C61        19.4069  -32.6325  -43.7053 C.3       10 UNK         0.0169 
     62 H62        20.3140  -29.7047  -40.8798 H         1 UNK         0.0903 
     63 H63        18.9608  -29.7798  -39.7437 H         1 UNK         0.0903 
     64 H64        18.7455  -30.3389  -41.3964 H         1 UNK         0.0903 
     65 H65        18.2082  -28.8276  -43.0162 H         1 UNK         0.3096 
     66 H66        17.3839  -26.1833  -42.0968 H         1 UNK         0.1121 
     67 H67        16.9213  -27.2523  -44.9050 H         1 UNK         0.0849 
     68 H68        16.0226  -26.0585  -44.0385 H         1 UNK         0.0849 
     69 H69        14.8373  -30.4214  -44.1692 H         1 UNK         0.0865 
     70 H70        14.9209  -29.2395  -45.4426 H         1 UNK         0.0865 
     71 H71        16.9680  -31.4731  -43.2599 H         1 UNK         0.1346 
     72 H72        20.4169  -31.2208  -45.8024 H         1 UNK         0.1412 
     73 H73        16.9623  -28.8034  -46.5931 H         1 UNK         0.1426 
     74 H74        19.4528  -29.9053  -48.3600 H         1 UNK         0.0716 
     75 H75        20.6065  -29.2106  -47.2461 H         1 UNK         0.0716 
     76 H76        20.1054  -25.9797  -49.2167 H         1 UNK         0.0695 
     77 H77        21.0813  -27.3987  -49.0320 H         1 UNK         0.0695 
     78 H78        21.8005  -25.1840  -47.8351 H         1 UNK         0.0983 
     79 H79        19.3808  -25.7201  -46.3221 H         1 UNK         0.3095 
     80 H80        20.0496  -23.3751  -43.7791 H         1 UNK         0.0454 
     81 H81        19.3940  -21.8076  -45.6213 H         1 UNK         0.0851 
     82 H82        18.0545  -22.1384  -44.5391 H         1 UNK         0.0851 
     83 H83        18.1273  -22.9191  -46.1200 H         1 UNK         0.0851 
     84 H84        17.5972  -24.5144  -44.1854 H         1 UNK         0.2976 
     85 H85        21.1956  -26.9178  -44.9004 H         1 UNK         0.3116 
     86 H86        23.1251  -29.0482  -45.3634 H         1 UNK         0.0646 
     87 H87        22.5649  -29.7009  -43.0866 H         1 UNK         0.0847 
     88 H88        21.8331  -28.1456  -42.7344 H         1 UNK         0.0847 
     89 H89        21.0618  -29.2469  -43.8701 H         1 UNK         0.0847 
     90 H90        25.1063  -29.3109  -44.2599 H         1 UNK         0.3040 
     91 H91        26.6962  -26.9307  -43.8285 H         1 UNK         0.1015 
     92 H92        28.4983  -28.5891  -43.3475 H         1 UNK         0.0786 
     93 H93        27.6518  -29.0017  -44.8286 H         1 UNK         0.0786 
     94 H94        27.3237  -29.8969  -43.3435 H         1 UNK         0.0786 
     95 H95        24.7410  -28.9388  -41.7472 H         1 UNK         0.3172 
     96 H96        25.1680  -27.2739  -39.4604 H         1 UNK         0.0595 
     97 H97        26.0364  -30.2326  -39.3135 H         1 UNK         0.0839 
     98 H98        25.8820  -29.1523  -37.9334 H         1 UNK         0.0839 
     99 H99        27.1156  -28.8509  -39.1416 H         1 UNK         0.0839 
    100 H100       23.5985  -27.9039  -37.7719 H         1 UNK         0.2998 
    101 H101       21.0446  -28.5912  -38.8460 H         1 UNK         0.0822 
    102 H102       20.2903  -28.2634  -36.4933 H         1 UNK         0.0787 
    103 H103       21.9601  -28.2377  -35.9428 H         1 UNK         0.0787 
    104 H104       21.3513  -26.9622  -37.0008 H         1 UNK         0.0787 
    105 H105       23.5352  -30.6304  -37.8188 H         1 UNK         0.3055 
    106 H106       22.3397  -32.6175  -36.2982 H         1 UNK         0.1106 
    107 H107       24.7888  -32.3552  -36.5697 H         1 UNK         0.0828 
    108 H108       24.3212  -33.9910  -36.9966 H         1 UNK         0.0828 
    109 H109       24.6846  -32.8303  -38.2660 H         1 UNK         0.0828 
    110 H110       22.0044  -32.2235  -39.7944 H         1 UNK         0.2931 
    111 H111       21.0113  -34.9432  -40.1569 H         1 UNK         0.0412 
    112 H112       19.4812  -32.2248  -38.7394 H         1 UNK         0.3472 
    113 H113       17.8498  -32.7513  -39.0808 H         1 UNK         0.3472 
    114 H114       22.2905  -33.8448  -41.9687 H         1 UNK         0.0970 
    115 H115       20.7733  -34.5208  -42.4526 H         1 UNK         0.0970 
    116 H116       18.6566  -33.1604  -43.1155 H         1 UNK         0.0612 
    117 H117       19.7905  -33.3545  -44.4278 H         1 UNK         0.0612 
@<TRIPOS>BOND
     1    1    2 1    
     2    1   62 1    
     3    1   63 1    
     4    1   64 1    
     5    2    3 2    
     6    2    4 am   BACKBONE|DICT|INTERRES
     7    4    5 1    
     8    4   65 1    
     9    5    6 1    
    10    5   25 1    
    11    5   66 1    
    12    6    7 1    
    13    6   67 1    
    14    6   68 1    
    15    7    8 1    
    16    8    9 1    
    17    8   69 1    
    18    8   70 1    
    19    9   10 ar   
    20    9   14 ar   
    21   10   11 ar   
    22   10   71 1    
    23   11   12 ar   
    24   11   61 1    
    25   12   13 ar   
    26   12   72 1    
    27   13   14 ar   
    28   13   15 1    
    29   14   73 1    
    30   15   16 1    
    31   15   74 1    
    32   15   75 1    
    33   16   17 1    
    34   17   18 1    
    35   17   76 1    
    36   17   77 1    
    37   18   19 1    
    38   18   27 1    
    39   18   78 1    
    40   19   20 am   BACKBONE|DICT|INTERRES
    41   19   79 1    
    42   20   21 2    
    43   20   22 1    
    44   22   23 1    
    45   22   24 1    
    46   22   80 1    
    47   23   81 1    
    48   23   82 1    
    49   23   83 1    
    50   24   25 am   BACKBONE|DICT|INTERRES
    51   24   84 1    
    52   25   26 2    
    53   27   28 2    
    54   27   29 am   BACKBONE|DICT|INTERRES
    55   29   30 1    
    56   29   85 1    
    57   30   31 1    
    58   30   32 1    
    59   30   86 1    
    60   31   87 1    
    61   31   88 1    
    62   31   89 1    
    63   32   33 2    
    64   32   34 am   BACKBONE|DICT|INTERRES
    65   34   35 1    
    66   34   90 1    
    67   35   36 1    
    68   35   37 1    
    69   35   91 1    
    70   36   92 1    
    71   36   93 1    
    72   36   94 1    
    73   37   38 2    
    74   37   39 am   BACKBONE|DICT|INTERRES
    75   39   40 1    
    76   39   95 1    
    77   40   41 1    
    78   40   42 1    
    79   40   96 1    
    80   41   97 1    
    81   41   98 1    
    82   41   99 1    
    83   42   43 2    
    84   42   44 am   BACKBONE|DICT|INTERRES
    85   44   45 1    
    86   44  100 1    
    87   45   46 1    
    88   45   47 1    
    89   45  101 1    
    90   46  102 1    
    91   46  103 1    
    92   46  104 1    
    93   47   48 2    
    94   47   49 am   BACKBONE|DICT|INTERRES
    95   49   50 1    
    96   49  105 1    
    97   50   51 1    
    98   50   52 1    
    99   50  106 1    
   100   51  107 1    
   101   51  108 1    
   102   51  109 1    
   103   52   53 2    
   104   52   54 am   BACKBONE|DICT|INTERRES
   105   54   55 1    
   106   54  110 1    
   107   55   56 1    
   108   55   59 1    
   109   55  111 1    
   110   56   57 am   BACKBONE|DICT|INTERRES
   111   56   58 2    
   112   57  112 1    
   113   57  113 1    
   114   59   60 1    
   115   59  114 1    
   116   59  115 1    
   117   60   61 1    
   118   61  116 1    
   119   61  117 1    
@<TRIPOS>SUBSTRUCTURE
     1 UNK         1 GROUP             0       ****    0 ROOT    
