@<TRIPOS>MOLECULE
3R8
117   119    1
SMALL
USER_CHARGES


@<TRIPOS>ATOM
      1 CA         20.7527  -24.4720  -40.0790 C.3       0 UNK        -0.2013 
      2 C          19.4549  -24.7257  -40.8309 C.2       0 UNK         0.4866 
      3 O          18.4716  -24.0172  -40.6104 O.2       0 UNK        -0.5176 
      4 N          19.4440  -25.7295  -41.7150 N.am      1 UNK        -0.4884 
      5 CA         18.3285  -26.0524  -42.6112 C.3       1 UNK         0.0853 
      6 C6         18.3839  -27.5402  -43.0509 C.3       10 UNK        -0.0849 
      7 S7         18.2912  -28.7040  -41.6496 S.3       10 UNK        -0.2776 
      8 C8         18.1138  -30.2933  -42.5262 C.3       10 UNK         0.0316 
      9 C9         19.2922  -30.5713  -43.4493 C.ar      10 UNK        -0.0863 
     10 C10        20.5382  -30.8973  -42.9095 C.ar      10 UNK        -0.1009 
     11 C11        21.6366  -31.1446  -43.7398 C.ar      10 UNK        -0.0712 
     12 C12        21.4768  -31.0458  -45.1249 C.ar      10 UNK        -0.0894 
     13 C13        20.2361  -30.7179  -45.6805 C.ar      10 UNK        -0.0745 
     14 C14        19.1433  -30.4931  -44.8374 C.ar      10 UNK        -0.0972 
     15 C15        20.0853  -30.5978  -47.1921 C.3       10 UNK         0.0209 
     16 S16        19.6190  -28.9175  -47.7254 S.3       10 UNK        -0.2568 
     17 C17        20.9712  -27.9071  -47.0266 C.3       10 UNK        -0.0983 
     18 CA         20.7230  -26.3815  -47.1661 C.3       3 UNK         0.0876 
     19 N          19.4092  -26.0117  -46.6321 N.am      3 UNK        -0.4424 
     20 C          18.6908  -24.9260  -46.9449 C.2       2 UNK         0.4918 
     21 O          19.0188  -24.1102  -47.8057 O.2       2 UNK        -0.4875 
     22 CA         17.4087  -24.6903  -46.1150 C.3       2 UNK         0.0481 
     23 CB         16.1732  -25.1614  -46.8979 C.3       2 UNK        -0.1831 
     24 N          17.4255  -25.3431  -44.7948 N.am      2 UNK        -0.4498 
     25 C          18.3403  -25.1114  -43.8390 C.2       1 UNK         0.5027 
     26 O          19.2077  -24.2411  -43.9540 O.2       1 UNK        -0.4969 
     27 C          21.8818  -25.5894  -46.5080 C.2       3 UNK         0.5005 
     28 O          23.0404  -25.8625  -46.8243 O.2       3 UNK        -0.5279 
     29 N          21.5774  -24.6731  -45.5728 N.am      4 UNK        -0.4463 
     30 CA         22.4651  -23.8531  -44.7332 C.3       4 UNK         0.0283 
     31 CB         23.4816  -23.0440  -45.5624 C.3       4 UNK        -0.1875 
     32 C          23.1513  -24.6385  -43.6023 C.2       4 UNK         0.4949 
     33 O          23.2897  -24.1074  -42.5002 O.2       4 UNK        -0.5039 
     34 N          23.5501  -25.8841  -43.8777 N.am      5 UNK        -0.4663 
     35 CA         24.0607  -26.8431  -42.8989 C.3       5 UNK         0.0242 
     36 CB         24.7827  -27.9686  -43.6588 C.3       5 UNK        -0.1982 
     37 C          22.9337  -27.4206  -42.0225 C.2       5 UNK         0.5017 
     38 O          21.7610  -27.3517  -42.3976 O.2       5 UNK        -0.5012 
     39 N          23.3205  -28.0087  -40.8864 N.am      6 UNK        -0.4439 
     40 CA         22.4709  -28.7810  -39.9844 C.3       6 UNK         0.0297 
     41 CB         21.5292  -27.8684  -39.1776 C.3       6 UNK        -0.2006 
     42 C          23.3745  -29.5964  -39.0538 C.2       6 UNK         0.4892 
     43 O          24.4801  -29.1480  -38.7395 O.2       6 UNK        -0.5089 
     44 N          22.8733  -30.7586  -38.6273 N.am      7 UNK        -0.4243 
     45 CA         23.4847  -31.7322  -37.7229 C.3       7 UNK         0.0196 
     46 CB         24.8415  -32.2551  -38.2603 C.3       7 UNK        -0.2007 
     47 C          22.4357  -32.8398  -37.5239 C.2       7 UNK         0.5020 
     48 O          21.2508  -32.5247  -37.3990 O.2       7 UNK        -0.5147 
     49 N          22.8587  -34.1115  -37.5448 N.am      8 UNK        -0.4734 
     50 CA         21.9711  -35.2828  -37.5737 C.3       8 UNK         0.0238 
     51 CB         22.7758  -36.5319  -37.1774 C.3       8 UNK        -0.1912 
     52 C          21.2852  -35.4920  -38.9407 C.2       8 UNK         0.5038 
     53 O          20.3002  -36.2279  -39.0153 O.2       8 UNK        -0.5046 
     54 N          21.8247  -34.8542  -39.9870 N.am      9 UNK        -0.4200 
     55 CA         21.2763  -34.7660  -41.3463 C.3       9 UNK         0.0839 
     56 C          19.8808  -34.0818  -41.4144 C.2       9 UNK         0.5513 
     57 N          19.0914  -34.3994  -42.4317 N.am      9 UNK        -0.7519 
     58 O          19.5180  -33.2565  -40.5790 O.2       9 UNK        -0.4960 
     59 C59        22.3012  -34.1041  -42.3112 C.3       10 UNK        -0.0876 
     60 S60        22.9896  -32.5287  -41.6828 S.3       10 UNK        -0.2414 
     61 C61        23.0129  -31.4740  -43.1686 C.3       10 UNK         0.0169 
     62 H62        21.5688  -25.0848  -40.4610 H         1 UNK         0.0903 
     63 H63        21.0468  -23.4277  -40.1806 H         1 UNK         0.0903 
     64 H64        20.6249  -24.6916  -39.0195 H         1 UNK         0.0903 
     65 H65        20.2874  -26.2778  -41.8749 H         1 UNK         0.3096 
     66 H66        17.3887  -25.8808  -42.0817 H         1 UNK         0.1121 
     67 H67        17.5629  -27.7854  -43.7263 H         1 UNK         0.0849 
     68 H68        19.3071  -27.7388  -43.5999 H         1 UNK         0.0849 
     69 H69        18.0366  -31.0959  -41.7911 H         1 UNK         0.0865 
     70 H70        17.1749  -30.2971  -43.0819 H         1 UNK         0.0865 
     71 H71        20.6450  -30.9545  -41.8360 H         1 UNK         0.1346 
     72 H72        22.3250  -31.2158  -45.7739 H         1 UNK         0.1412 
     73 H73        18.1840  -30.2362  -45.2655 H         1 UNK         0.1426 
     74 H74        21.0085  -30.8819  -47.6995 H         1 UNK         0.0716 
     75 H75        19.3217  -31.2996  -47.5299 H         1 UNK         0.0716 
     76 H76        21.0956  -28.1668  -45.9734 H         1 UNK         0.0695 
     77 H77        21.8980  -28.1955  -47.5263 H         1 UNK         0.0695 
     78 H78        20.7389  -26.1312  -48.2291 H         1 UNK         0.0983 
     79 H79        19.0318  -26.6434  -45.9431 H         1 UNK         0.3095 
     80 H80        17.3200  -23.6146  -45.9503 H         1 UNK         0.0454 
     81 H81        16.1935  -26.2371  -47.0777 H         1 UNK         0.0851 
     82 H82        15.2509  -24.9252  -46.3670 H         1 UNK         0.0851 
     83 H83        16.1177  -24.6707  -47.8708 H         1 UNK         0.0851 
     84 H84        16.7208  -26.0496  -44.6373 H         1 UNK         0.2976 
     85 H85        20.5979  -24.5736  -45.3228 H         1 UNK         0.3116 
     86 H86        21.8048  -23.1337  -44.2460 H         1 UNK         0.0646 
     87 H87        24.2270  -23.6824  -46.0371 H         1 UNK         0.0847 
     88 H88        24.0217  -22.3400  -44.9283 H         1 UNK         0.0847 
     89 H89        22.9874  -22.4650  -46.3423 H         1 UNK         0.0847 
     90 H90        23.4048  -26.2194  -44.8228 H         1 UNK         0.3040 
     91 H91        24.7768  -26.3319  -42.2515 H         1 UNK         0.1015 
     92 H92        25.5916  -27.5751  -44.2749 H         1 UNK         0.0786 
     93 H93        24.0999  -28.5138  -44.3125 H         1 UNK         0.0786 
     94 H94        25.2256  -28.6901  -42.9712 H         1 UNK         0.0786 
     95 H95        24.3013  -28.0305  -40.6322 H         1 UNK         0.3172 
     96 H96        21.8756  -29.4739  -40.5810 H         1 UNK         0.0595 
     97 H97        20.7773  -27.4131  -39.8199 H         1 UNK         0.0839 
     98 H98        22.0751  -27.0728  -38.6698 H         1 UNK         0.0839 
     99 H99        20.9896  -28.4338  -38.4168 H         1 UNK         0.0839 
    100 H100       21.9316  -31.0128  -38.9019 H         1 UNK         0.2998 
    101 H101       23.6437  -31.2503  -36.7566 H         1 UNK         0.0822 
    102 H102       25.5657  -31.4510  -38.3843 H         1 UNK         0.0787 
    103 H103       25.2976  -32.9637  -37.5682 H         1 UNK         0.0787 
    104 H104       24.7351  -32.7495  -39.2261 H         1 UNK         0.0787 
    105 H105       23.8493  -34.2878  -37.6383 H         1 UNK         0.3055 
    106 H106       21.1786  -35.1358  -36.8361 H         1 UNK         0.1106 
    107 H107       22.1377  -37.4167  -37.1568 H         1 UNK         0.0828 
    108 H108       23.5859  -36.7318  -37.8799 H         1 UNK         0.0828 
    109 H109       23.2100  -36.4261  -36.1831 H         1 UNK         0.0828 
    110 H110       22.6150  -34.2531  -39.8113 H         1 UNK         0.2931 
    111 H111       21.1338  -35.7958  -41.6800 H         1 UNK         0.0412 
    112 H112       19.3791  -35.0688  -43.1283 H         1 UNK         0.3472 
    113 H113       18.1880  -33.9595  -42.5045 H         1 UNK         0.3472 
    114 H114       21.8619  -33.9538  -43.2991 H         1 UNK         0.0970 
    115 H115       23.1383  -34.7855  -42.4691 H         1 UNK         0.0970 
    116 H116       23.5060  -30.5378  -42.9088 H         1 UNK         0.0612 
    117 H117       23.6369  -31.9568  -43.9222 H         1 UNK         0.0612 
@<TRIPOS>BOND
     1    1    2 1    
     2    1   62 1    
     3    1   63 1    
     4    1   64 1    
     5    2    3 2    
     6    2    4 am   BACKBONE|DICT|INTERRES
     7    4    5 1    
     8    4   65 1    
     9    5    6 1    
    10    5   25 1    
    11    5   66 1    
    12    6    7 1    
    13    6   67 1    
    14    6   68 1    
    15    7    8 1    
    16    8    9 1    
    17    8   69 1    
    18    8   70 1    
    19    9   10 ar   
    20    9   14 ar   
    21   10   11 ar   
    22   10   71 1    
    23   11   12 ar   
    24   11   61 1    
    25   12   13 ar   
    26   12   72 1    
    27   13   14 ar   
    28   13   15 1    
    29   14   73 1    
    30   15   16 1    
    31   15   74 1    
    32   15   75 1    
    33   16   17 1    
    34   17   18 1    
    35   17   76 1    
    36   17   77 1    
    37   18   19 1    
    38   18   27 1    
    39   18   78 1    
    40   19   20 am   BACKBONE|DICT|INTERRES
    41   19   79 1    
    42   20   21 2    
    43   20   22 1    
    44   22   23 1    
    45   22   24 1    
    46   22   80 1    
    47   23   81 1    
    48   23   82 1    
    49   23   83 1    
    50   24   25 am   BACKBONE|DICT|INTERRES
    51   24   84 1    
    52   25   26 2    
    53   27   28 2    
    54   27   29 am   BACKBONE|DICT|INTERRES
    55   29   30 1    
    56   29   85 1    
    57   30   31 1    
    58   30   32 1    
    59   30   86 1    
    60   31   87 1    
    61   31   88 1    
    62   31   89 1    
    63   32   33 2    
    64   32   34 am   BACKBONE|DICT|INTERRES
    65   34   35 1    
    66   34   90 1    
    67   35   36 1    
    68   35   37 1    
    69   35   91 1    
    70   36   92 1    
    71   36   93 1    
    72   36   94 1    
    73   37   38 2    
    74   37   39 am   BACKBONE|DICT|INTERRES
    75   39   40 1    
    76   39   95 1    
    77   40   41 1    
    78   40   42 1    
    79   40   96 1    
    80   41   97 1    
    81   41   98 1    
    82   41   99 1    
    83   42   43 2    
    84   42   44 am   BACKBONE|DICT|INTERRES
    85   44   45 1    
    86   44  100 1    
    87   45   46 1    
    88   45   47 1    
    89   45  101 1    
    90   46  102 1    
    91   46  103 1    
    92   46  104 1    
    93   47   48 2    
    94   47   49 am   BACKBONE|DICT|INTERRES
    95   49   50 1    
    96   49  105 1    
    97   50   51 1    
    98   50   52 1    
    99   50  106 1    
   100   51  107 1    
   101   51  108 1    
   102   51  109 1    
   103   52   53 2    
   104   52   54 am   BACKBONE|DICT|INTERRES
   105   54   55 1    
   106   54  110 1    
   107   55   56 1    
   108   55   59 1    
   109   55  111 1    
   110   56   57 am   BACKBONE|DICT|INTERRES
   111   56   58 2    
   112   57  112 1    
   113   57  113 1    
   114   59   60 1    
   115   59  114 1    
   116   59  115 1    
   117   60   61 1    
   118   61  116 1    
   119   61  117 1    
@<TRIPOS>SUBSTRUCTURE
     1 UNK         1 GROUP             0       ****    0 ROOT    
