@<TRIPOS>MOLECULE
3R8
117   119    1
SMALL
USER_CHARGES


@<TRIPOS>ATOM
      1 CA         16.1201  -23.3256  -42.5514 C.3       0 UNK        -0.2013 
      2 C          16.4563  -24.7344  -42.0853 C.2       0 UNK         0.4866 
      3 O          16.6611  -24.9452  -40.8900 O.2       0 UNK        -0.5176 
      4 N          16.5118  -25.6899  -43.0240 N.am      1 UNK        -0.4884 
      5 CA         16.8178  -27.1133  -42.8135 C.3       1 UNK         0.0853 
      6 C6         15.7069  -27.8854  -42.0504 C.3       10 UNK        -0.0849 
      7 S7         14.2132  -28.0554  -43.0850 S.3       10 UNK        -0.2776 
      8 C8         14.4037  -29.7514  -43.7367 C.3       10 UNK         0.0316 
      9 C9         15.7354  -29.9629  -44.4500 C.ar      10 UNK        -0.0863 
     10 C10        16.7168  -30.7827  -43.8803 C.ar      10 UNK        -0.1009 
     11 C11        17.9405  -30.9765  -44.5272 C.ar      10 UNK        -0.0712 
     12 C12        18.1766  -30.3499  -45.7520 C.ar      10 UNK        -0.0894 
     13 C13        17.2249  -29.4959  -46.3131 C.ar      10 UNK        -0.0745 
     14 C14        15.9952  -29.3237  -45.6681 C.ar      10 UNK        -0.0972 
     15 C15        17.5303  -28.7531  -47.6064 C.3       10 UNK         0.0209 
     16 S16        18.5840  -27.2903  -47.3157 S.3       10 UNK        -0.2568 
     17 C17        20.2671  -27.9859  -47.4841 C.3       10 UNK        -0.0983 
     18 CA         21.2945  -27.4076  -46.4755 C.3       3 UNK         0.0876 
     19 N          20.8240  -27.4727  -45.0840 N.am      3 UNK        -0.4424 
     20 C          21.3683  -26.8027  -44.0558 C.2       2 UNK         0.4918 
     21 O          22.3586  -26.0781  -44.1599 O.2       2 UNK        -0.4875 
     22 CA         20.6469  -26.9343  -42.7064 C.3       2 UNK         0.0481 
     23 CB         21.1552  -25.9465  -41.6385 C.3       2 UNK        -0.1831 
     24 N          19.2166  -26.7480  -42.9324 N.am      2 UNK        -0.4498 
     25 C          18.2320  -27.3295  -42.2398 C.2       1 UNK         0.5027 
     26 O          18.4067  -27.9989  -41.2219 O.2       1 UNK        -0.4969 
     27 C          22.6716  -28.0807  -46.6749 C.2       3 UNK         0.5005 
     28 O          23.3581  -27.7796  -47.6530 O.2       3 UNK        -0.5279 
     29 N          23.0476  -28.9722  -45.7519 N.am      4 UNK        -0.4463 
     30 CA         24.3363  -29.6460  -45.6668 C.3       4 UNK         0.0283 
     31 CB         24.2227  -31.0370  -46.3150 C.3       4 UNK        -0.1875 
     32 C          24.7158  -29.7549  -44.1852 C.2       4 UNK         0.4949 
     33 O          23.8719  -29.5150  -43.3185 O.2       4 UNK        -0.5039 
     34 N          25.9787  -30.1119  -43.9166 N.am      5 UNK        -0.4663 
     35 CA         26.5823  -30.4380  -42.6101 C.3       5 UNK         0.0242 
     36 CB         25.9057  -31.6869  -42.0086 C.3       5 UNK        -0.1982 
     37 C          26.6318  -29.3070  -41.5610 C.2       5 UNK         0.5017 
     38 O          27.3583  -29.4499  -40.5772 O.2       5 UNK        -0.5012 
     39 N          25.8501  -28.2359  -41.7492 N.am      6 UNK        -0.4439 
     40 CA         25.6239  -27.0726  -40.8795 C.3       6 UNK         0.0297 
     41 CB         26.9302  -26.3186  -40.5645 C.3       6 UNK        -0.2006 
     42 C          24.8401  -27.4001  -39.5959 C.2       6 UNK         0.4892 
     43 O          23.9426  -26.6401  -39.2320 O.2       6 UNK        -0.5089 
     44 N          25.1421  -28.5373  -38.9569 N.am      7 UNK        -0.4243 
     45 CA         24.4871  -29.0724  -37.7585 C.3       7 UNK         0.0196 
     46 CB         25.4482  -30.0654  -37.0782 C.3       7 UNK        -0.2007 
     47 C          23.1027  -29.6937  -38.0495 C.2       7 UNK         0.5020 
     48 O          22.8209  -30.8089  -37.6086 O.2       7 UNK        -0.5147 
     49 N          22.2683  -28.9635  -38.8018 N.am      8 UNK        -0.4734 
     50 CA         20.8765  -29.2585  -39.1749 C.3       8 UNK         0.0238 
     51 CB         19.9693  -29.2038  -37.9275 C.3       8 UNK        -0.1912 
     52 C          20.6577  -30.5510  -39.9926 C.2       8 UNK         0.5038 
     53 O          19.5142  -30.9982  -40.0946 O.2       8 UNK        -0.5046 
     54 N          21.7382  -31.1163  -40.5574 N.am      9 UNK        -0.4200 
     55 CA         21.7855  -32.3440  -41.3789 C.3       9 UNK         0.0839 
     56 C          20.9883  -33.5712  -40.8373 C.2       9 UNK         0.5513 
     57 N          20.9420  -33.7715  -39.5254 N.am      9 UNK        -0.7519 
     58 O          20.4398  -34.3663  -41.5965 O.2       9 UNK        -0.4960 
     59 C59        21.6599  -32.0917  -42.9160 C.3       10 UNK        -0.0876 
     60 S60        20.4597  -30.8226  -43.4460 S.3       10 UNK        -0.2414 
     61 C61        19.0271  -31.8411  -43.9073 C.3       10 UNK         0.0169 
     62 H62        15.2152  -22.9734  -42.0567 H         1 UNK         0.0903 
     63 H63        16.9326  -22.6439  -42.3008 H         1 UNK         0.0903 
     64 H64        15.9575  -23.2781  -43.6281 H         1 UNK         0.0903 
     65 H65        16.3168  -25.4361  -43.9829 H         1 UNK         0.3096 
     66 H66        16.8813  -27.5418  -43.8129 H         1 UNK         0.1121 
     67 H67        16.0400  -28.8832  -41.7595 H         1 UNK         0.0849 
     68 H68        15.4461  -27.3776  -41.1209 H         1 UNK         0.0849 
     69 H69        14.2877  -30.4615  -42.9163 H         1 UNK         0.0865 
     70 H70        13.5882  -29.9570  -44.4316 H         1 UNK         0.0865 
     71 H71        16.5333  -31.2642  -42.9293 H         1 UNK         0.1346 
     72 H72        19.1215  -30.5140  -46.2471 H         1 UNK         0.1412 
     73 H73        15.2471  -28.6711  -46.0980 H         1 UNK         0.1426 
     74 H74        18.0039  -29.4229  -48.3259 H         1 UNK         0.0716 
     75 H75        16.6015  -28.4210  -48.0727 H         1 UNK         0.0716 
     76 H76        20.5970  -27.7824  -48.5047 H         1 UNK         0.0695 
     77 H77        20.2290  -29.0711  -47.4044 H         1 UNK         0.0695 
     78 H78        21.4310  -26.3507  -46.7158 H         1 UNK         0.0983 
     79 H79        20.0109  -28.0482  -44.9171 H         1 UNK         0.3095 
     80 H80        20.8293  -27.9509  -42.3523 H         1 UNK         0.0454 
     81 H81        20.6299  -26.0755  -40.6924 H         1 UNK         0.0851 
     82 H82        21.0232  -24.9112  -41.9543 H         1 UNK         0.0851 
     83 H83        22.2173  -26.0967  -41.4415 H         1 UNK         0.0851 
     84 H84        18.9717  -26.1854  -43.7365 H         1 UNK         0.2976 
     85 H85        22.4615  -29.1062  -44.9364 H         1 UNK         0.3116 
     86 H86        25.1030  -29.0582  -46.1759 H         1 UNK         0.0646 
     87 H87        23.9402  -30.9609  -47.3651 H         1 UNK         0.0847 
     88 H88        25.1718  -31.5726  -46.2752 H         1 UNK         0.0847 
     89 H89        23.4768  -31.6552  -45.8135 H         1 UNK         0.0847 
     90 H90        26.6011  -30.2307  -44.7051 H         1 UNK         0.3040 
     91 H91        27.6227  -30.6939  -42.8183 H         1 UNK         0.1015 
     92 H92        24.8705  -31.4897  -41.7307 H         1 UNK         0.0786 
     93 H93        26.4239  -32.0191  -41.1079 H         1 UNK         0.0786 
     94 H94        25.9126  -32.5208  -42.7105 H         1 UNK         0.0786 
     95 H95        25.1998  -28.3195  -42.5246 H         1 UNK         0.3172 
     96 H96        24.9939  -26.3988  -41.4629 H         1 UNK         0.0595 
     97 H97        27.6066  -26.9069  -39.9441 H         1 UNK         0.0839 
     98 H98        26.7216  -25.3944  -40.0239 H         1 UNK         0.0839 
     99 H99        27.4614  -26.0472  -41.4766 H         1 UNK         0.0839 
    100 H100       25.9059  -29.0847  -39.3424 H         1 UNK         0.2998 
    101 H101       24.3190  -28.2459  -37.0648 H         1 UNK         0.0822 
    102 H102       25.0294  -30.4414  -36.1437 H         1 UNK         0.0787 
    103 H103       25.6537  -30.9265  -37.7156 H         1 UNK         0.0787 
    104 H104       26.4004  -29.5931  -36.8356 H         1 UNK         0.0787 
    105 H105       22.6215  -28.0587  -39.1035 H         1 UNK         0.3055 
    106 H106       20.5710  -28.4466  -39.8345 H         1 UNK         0.1106 
    107 H107       20.1038  -28.2719  -37.3786 H         1 UNK         0.0828 
    108 H108       18.9162  -29.2605  -38.2067 H         1 UNK         0.0828 
    109 H109       20.1710  -30.0300  -37.2452 H         1 UNK         0.0828 
    110 H110       22.6261  -30.6669  -40.3960 H         1 UNK         0.2931 
    111 H111       22.8125  -32.6858  -41.2461 H         1 UNK         0.0412 
    112 H112       21.3836  -33.1194  -38.8948 H         1 UNK         0.3472 
    113 H113       20.4370  -34.5646  -39.1628 H         1 UNK         0.3472 
    114 H114       22.6289  -31.7570  -43.2821 H         1 UNK         0.0970 
    115 H115       21.4804  -33.0161  -43.4667 H         1 UNK         0.0970 
    116 H116       19.3331  -32.6061  -44.6223 H         1 UNK         0.0612 
    117 H117       18.6592  -32.3613  -43.0213 H         1 UNK         0.0612 
@<TRIPOS>BOND
     1    1    2 1    
     2    1   62 1    
     3    1   63 1    
     4    1   64 1    
     5    2    3 2    
     6    2    4 am   BACKBONE|DICT|INTERRES
     7    4    5 1    
     8    4   65 1    
     9    5    6 1    
    10    5   25 1    
    11    5   66 1    
    12    6    7 1    
    13    6   67 1    
    14    6   68 1    
    15    7    8 1    
    16    8    9 1    
    17    8   69 1    
    18    8   70 1    
    19    9   10 ar   
    20    9   14 ar   
    21   10   11 ar   
    22   10   71 1    
    23   11   12 ar   
    24   11   61 1    
    25   12   13 ar   
    26   12   72 1    
    27   13   14 ar   
    28   13   15 1    
    29   14   73 1    
    30   15   16 1    
    31   15   74 1    
    32   15   75 1    
    33   16   17 1    
    34   17   18 1    
    35   17   76 1    
    36   17   77 1    
    37   18   19 1    
    38   18   27 1    
    39   18   78 1    
    40   19   20 am   BACKBONE|DICT|INTERRES
    41   19   79 1    
    42   20   21 2    
    43   20   22 1    
    44   22   23 1    
    45   22   24 1    
    46   22   80 1    
    47   23   81 1    
    48   23   82 1    
    49   23   83 1    
    50   24   25 am   BACKBONE|DICT|INTERRES
    51   24   84 1    
    52   25   26 2    
    53   27   28 2    
    54   27   29 am   BACKBONE|DICT|INTERRES
    55   29   30 1    
    56   29   85 1    
    57   30   31 1    
    58   30   32 1    
    59   30   86 1    
    60   31   87 1    
    61   31   88 1    
    62   31   89 1    
    63   32   33 2    
    64   32   34 am   BACKBONE|DICT|INTERRES
    65   34   35 1    
    66   34   90 1    
    67   35   36 1    
    68   35   37 1    
    69   35   91 1    
    70   36   92 1    
    71   36   93 1    
    72   36   94 1    
    73   37   38 2    
    74   37   39 am   BACKBONE|DICT|INTERRES
    75   39   40 1    
    76   39   95 1    
    77   40   41 1    
    78   40   42 1    
    79   40   96 1    
    80   41   97 1    
    81   41   98 1    
    82   41   99 1    
    83   42   43 2    
    84   42   44 am   BACKBONE|DICT|INTERRES
    85   44   45 1    
    86   44  100 1    
    87   45   46 1    
    88   45   47 1    
    89   45  101 1    
    90   46  102 1    
    91   46  103 1    
    92   46  104 1    
    93   47   48 2    
    94   47   49 am   BACKBONE|DICT|INTERRES
    95   49   50 1    
    96   49  105 1    
    97   50   51 1    
    98   50   52 1    
    99   50  106 1    
   100   51  107 1    
   101   51  108 1    
   102   51  109 1    
   103   52   53 2    
   104   52   54 am   BACKBONE|DICT|INTERRES
   105   54   55 1    
   106   54  110 1    
   107   55   56 1    
   108   55   59 1    
   109   55  111 1    
   110   56   57 am   BACKBONE|DICT|INTERRES
   111   56   58 2    
   112   57  112 1    
   113   57  113 1    
   114   59   60 1    
   115   59  114 1    
   116   59  115 1    
   117   60   61 1    
   118   61  116 1    
   119   61  117 1    
@<TRIPOS>SUBSTRUCTURE
     1 UNK         1 GROUP             0       ****    0 ROOT    
