@<TRIPOS>MOLECULE
3R8
117   119    1
SMALL
USER_CHARGES


@<TRIPOS>ATOM
      1 CA         20.4209  -25.0157  -49.6839 C.3       0 UNK        -0.2013 
      2 C          19.1936  -24.3890  -49.0279 C.2       0 UNK         0.4866 
      3 O          18.4253  -23.7099  -49.7065 O.2       0 UNK        -0.5176 
      4 N          18.9656  -24.5794  -47.7237 N.am      1 UNK        -0.4884 
      5 CA         19.7982  -25.3157  -46.7746 C.3       1 UNK         0.0853 
      6 C6         19.4458  -26.8268  -46.7540 C.3       10 UNK        -0.0849 
      7 S7         20.7990  -27.8522  -46.0895 S.3       10 UNK        -0.2776 
      8 C8         20.0924  -29.5228  -46.2539 C.3       10 UNK         0.0316 
      9 C9         19.3460  -29.9658  -45.0014 C.ar      10 UNK        -0.0863 
     10 C10        19.9819  -30.7886  -44.0660 C.ar      10 UNK        -0.1009 
     11 C11        19.2935  -31.2566  -42.9436 C.ar      10 UNK        -0.0712 
     12 C12        17.9627  -30.8811  -42.7484 C.ar      10 UNK        -0.0894 
     13 C13        17.3223  -30.0342  -43.6582 C.ar      10 UNK        -0.0745 
     14 C14        18.0143  -29.5913  -44.7910 C.ar      10 UNK        -0.0972 
     15 C15        15.8834  -29.6019  -43.4112 C.3       10 UNK         0.0209 
     16 S16        15.7093  -28.6656  -41.8558 S.3       10 UNK        -0.2568 
     17 C17        16.5667  -27.1022  -42.2470 C.3       10 UNK        -0.0983 
     18 CA         18.0734  -27.1000  -41.8852 C.3       3 UNK         0.0876 
     19 N          18.7402  -25.9260  -42.4496 N.am      3 UNK        -0.4424 
     20 C          20.0549  -25.6832  -42.3910 C.2       2 UNK         0.4918 
     21 O          20.8698  -26.4372  -41.8597 O.2       2 UNK        -0.4875 
     22 CA         20.5349  -24.4187  -43.1189 C.3       2 UNK         0.0481 
     23 CB         21.8970  -23.9206  -42.6038 C.3       2 UNK        -0.1831 
     24 N          20.6268  -24.7218  -44.5460 N.am      2 UNK        -0.4498 
     25 C          19.5889  -24.6823  -45.3906 C.2       1 UNK         0.5027 
     26 O          18.4819  -24.2198  -45.0966 O.2       1 UNK        -0.4969 
     27 C          18.3328  -27.2125  -40.3668 C.2       3 UNK         0.5005 
     28 O          18.2382  -26.2074  -39.6574 O.2       3 UNK        -0.5279 
     29 N          18.6835  -28.4286  -39.9255 N.am      4 UNK        -0.4463 
     30 CA         19.1319  -28.8062  -38.5795 C.3       4 UNK         0.0283 
     31 CB         18.1245  -28.3830  -37.4880 C.3       4 UNK        -0.1875 
     32 C          20.5776  -28.3734  -38.2514 C.2       4 UNK         0.4949 
     33 O          20.9785  -28.5140  -37.0949 O.2       4 UNK        -0.5039 
     34 N          21.3484  -27.8799  -39.2355 N.am      5 UNK        -0.4663 
     35 CA         22.7102  -27.3785  -39.0281 C.3       5 UNK         0.0242 
     36 CB         22.6452  -25.9469  -38.4508 C.3       5 UNK        -0.1982 
     37 C          23.5968  -27.4573  -40.2875 C.2       5 UNK         0.5017 
     38 O          24.5109  -26.6390  -40.4147 O.2       5 UNK        -0.5012 
     39 N          23.3515  -28.4119  -41.1968 N.am      6 UNK        -0.4439 
     40 CA         24.1298  -28.5721  -42.4290 C.3       6 UNK         0.0297 
     41 CB         23.6457  -27.5693  -43.4930 C.3       6 UNK        -0.2006 
     42 C          24.0408  -30.0023  -42.9670 C.2       6 UNK         0.4892 
     43 O          23.0961  -30.7228  -42.6463 O.2       6 UNK        -0.5089 
     44 N          25.0132  -30.3614  -43.8183 N.am      7 UNK        -0.4243 
     45 CA         25.1212  -31.6186  -44.5658 C.3       7 UNK         0.0196 
     46 CB         24.0706  -31.6552  -45.7005 C.3       7 UNK        -0.2007 
     47 C          25.0898  -32.8524  -43.6439 C.2       7 UNK         0.5020 
     48 O          26.0815  -33.1244  -42.9667 O.2       7 UNK        -0.5147 
     49 N          23.9619  -33.5728  -43.6360 N.am      8 UNK        -0.4734 
     50 CA         23.7257  -34.7650  -42.8200 C.3       8 UNK         0.0238 
     51 CB         22.5627  -35.5594  -43.4396 C.3       8 UNK        -0.1912 
     52 C          23.4434  -34.4688  -41.3343 C.2       8 UNK         0.5038 
     53 O          23.4135  -35.4151  -40.5456 O.2       8 UNK        -0.5046 
     54 N          23.2197  -33.1991  -40.9757 N.am      9 UNK        -0.4200 
     55 CA         22.8715  -32.7481  -39.6233 C.3       9 UNK         0.0839 
     56 C          23.7546  -31.5573  -39.1547 C.2       9 UNK         0.5513 
     57 N          23.4792  -30.9944  -37.9858 N.am      9 UNK        -0.7519 
     58 O          24.7154  -31.1601  -39.8098 O.2       9 UNK        -0.4960 
     59 C59        21.3398  -32.5198  -39.4885 C.3       10 UNK        -0.0876 
     60 S60        20.6824  -31.2078  -40.5736 S.3       10 UNK        -0.2414 
     61 C61        19.9821  -32.1705  -41.9431 C.3       10 UNK         0.0169 
     62 H62        21.3222  -24.4723  -49.4018 H         1 UNK         0.0903 
     63 H63        20.5405  -26.0612  -49.4036 H         1 UNK         0.0903 
     64 H64        20.3337  -24.9765  -50.7696 H         1 UNK         0.0903 
     65 H65        18.1729  -24.1262  -47.2841 H         1 UNK         0.3096 
     66 H66        20.8470  -25.1794  -47.0472 H         1 UNK         0.1121 
     67 H67        19.2403  -27.1809  -47.7650 H         1 UNK         0.0849 
     68 H68        18.5306  -27.0089  -46.1885 H         1 UNK         0.0849 
     69 H69        19.4325  -29.5708  -47.1213 H         1 UNK         0.0865 
     70 H70        20.9065  -30.2185  -46.4635 H         1 UNK         0.0865 
     71 H71        21.0131  -31.0753  -44.2139 H         1 UNK         0.1346 
     72 H72        17.4272  -31.2361  -41.8781 H         1 UNK         0.1412 
     73 H73        17.5144  -28.9585  -45.5104 H         1 UNK         0.1426 
     74 H74        15.2529  -30.4905  -43.3586 H         1 UNK         0.0716 
     75 H75        15.5015  -29.0031  -44.2396 H         1 UNK         0.0716 
     76 H76        16.0513  -26.2914  -41.7287 H         1 UNK         0.0695 
     77 H77        16.4387  -26.9026  -43.3123 H         1 UNK         0.0695 
     78 H78        18.5436  -27.9575  -42.3694 H         1 UNK         0.0983 
     79 H79        18.1529  -25.2600  -42.9320 H         1 UNK         0.3095 
     80 H80        19.8065  -23.6228  -42.9491 H         1 UNK         0.0454 
     81 H81        22.1969  -23.0001  -43.1044 H         1 UNK         0.0851 
     82 H82        22.6868  -24.6549  -42.7538 H         1 UNK         0.0851 
     83 H83        21.8526  -23.7095  -41.5347 H         1 UNK         0.0851 
     84 H84        21.4795  -25.1712  -44.8492 H         1 UNK         0.2976 
     85 H85        18.7344  -29.1767  -40.6049 H         1 UNK         0.3116 
     86 H86        19.1422  -29.8958  -38.5717 H         1 UNK         0.0646 
     87 H87        18.1377  -27.3069  -37.3145 H         1 UNK         0.0847 
     88 H88        17.1067  -28.6712  -37.7505 H         1 UNK         0.0847 
     89 H89        18.3599  -28.8611  -36.5366 H         1 UNK         0.0847 
     90 H90        20.9650  -27.7428  -40.1651 H         1 UNK         0.3040 
     91 H91        23.2059  -28.0161  -38.2934 H         1 UNK         0.1015 
     92 H92        23.6401  -25.5633  -38.2216 H         1 UNK         0.0786 
     93 H93        22.0729  -25.9121  -37.5239 H         1 UNK         0.0786 
     94 H94        22.1806  -25.2578  -39.1572 H         1 UNK         0.0786 
     95 H95        22.6352  -29.1116  -41.0432 H         1 UNK         0.3172 
     96 H96        25.1824  -28.3803  -42.2094 H         1 UNK         0.0595 
     97 H97        22.5700  -27.6502  -43.6517 H         1 UNK         0.0839 
     98 H98        24.1312  -27.7339  -44.4556 H         1 UNK         0.0839 
     99 H99        23.8677  -26.5463  -43.1954 H         1 UNK         0.0839 
    100 H100       25.7594  -29.7003  -43.9834 H         1 UNK         0.2998 
    101 H101       26.1067  -31.6177  -45.0344 H         1 UNK         0.0822 
    102 H102       24.1461  -32.5768  -46.2793 H         1 UNK         0.0787 
    103 H103       23.0501  -31.5784  -45.3263 H         1 UNK         0.0787 
    104 H104       24.2224  -30.8298  -46.3963 H         1 UNK         0.0787 
    105 H105       23.1909  -33.2481  -44.2013 H         1 UNK         0.3055 
    106 H106       24.6225  -35.3880  -42.8539 H         1 UNK         0.1106 
    107 H107       22.7781  -35.8410  -44.4704 H         1 UNK         0.0828 
    108 H108       22.3800  -36.4823  -42.8872 H         1 UNK         0.0828 
    109 H109       21.6337  -34.9880  -43.4332 H         1 UNK         0.0828 
    110 H110       23.2903  -32.4566  -41.6663 H         1 UNK         0.2931 
    111 H111       23.1325  -33.5434  -38.9231 H         1 UNK         0.0412 
    112 H112       24.0671  -30.2467  -37.6552 H         1 UNK         0.3472 
    113 H113       22.7073  -31.3073  -37.4192 H         1 UNK         0.3472 
    114 H114       21.0774  -32.2710  -38.4596 H         1 UNK         0.0970 
    115 H115       20.8138  -33.4528  -39.6955 H         1 UNK         0.0970 
    116 H116       19.2711  -32.9002  -41.5533 H         1 UNK         0.0612 
    117 H117       20.7769  -32.7355  -42.4316 H         1 UNK         0.0612 
@<TRIPOS>BOND
     1    1    2 1    
     2    1   62 1    
     3    1   63 1    
     4    1   64 1    
     5    2    3 2    
     6    2    4 am   BACKBONE|DICT|INTERRES
     7    4    5 1    
     8    4   65 1    
     9    5    6 1    
    10    5   25 1    
    11    5   66 1    
    12    6    7 1    
    13    6   67 1    
    14    6   68 1    
    15    7    8 1    
    16    8    9 1    
    17    8   69 1    
    18    8   70 1    
    19    9   10 ar   
    20    9   14 ar   
    21   10   11 ar   
    22   10   71 1    
    23   11   12 ar   
    24   11   61 1    
    25   12   13 ar   
    26   12   72 1    
    27   13   14 ar   
    28   13   15 1    
    29   14   73 1    
    30   15   16 1    
    31   15   74 1    
    32   15   75 1    
    33   16   17 1    
    34   17   18 1    
    35   17   76 1    
    36   17   77 1    
    37   18   19 1    
    38   18   27 1    
    39   18   78 1    
    40   19   20 am   BACKBONE|DICT|INTERRES
    41   19   79 1    
    42   20   21 2    
    43   20   22 1    
    44   22   23 1    
    45   22   24 1    
    46   22   80 1    
    47   23   81 1    
    48   23   82 1    
    49   23   83 1    
    50   24   25 am   BACKBONE|DICT|INTERRES
    51   24   84 1    
    52   25   26 2    
    53   27   28 2    
    54   27   29 am   BACKBONE|DICT|INTERRES
    55   29   30 1    
    56   29   85 1    
    57   30   31 1    
    58   30   32 1    
    59   30   86 1    
    60   31   87 1    
    61   31   88 1    
    62   31   89 1    
    63   32   33 2    
    64   32   34 am   BACKBONE|DICT|INTERRES
    65   34   35 1    
    66   34   90 1    
    67   35   36 1    
    68   35   37 1    
    69   35   91 1    
    70   36   92 1    
    71   36   93 1    
    72   36   94 1    
    73   37   38 2    
    74   37   39 am   BACKBONE|DICT|INTERRES
    75   39   40 1    
    76   39   95 1    
    77   40   41 1    
    78   40   42 1    
    79   40   96 1    
    80   41   97 1    
    81   41   98 1    
    82   41   99 1    
    83   42   43 2    
    84   42   44 am   BACKBONE|DICT|INTERRES
    85   44   45 1    
    86   44  100 1    
    87   45   46 1    
    88   45   47 1    
    89   45  101 1    
    90   46  102 1    
    91   46  103 1    
    92   46  104 1    
    93   47   48 2    
    94   47   49 am   BACKBONE|DICT|INTERRES
    95   49   50 1    
    96   49  105 1    
    97   50   51 1    
    98   50   52 1    
    99   50  106 1    
   100   51  107 1    
   101   51  108 1    
   102   51  109 1    
   103   52   53 2    
   104   52   54 am   BACKBONE|DICT|INTERRES
   105   54   55 1    
   106   54  110 1    
   107   55   56 1    
   108   55   59 1    
   109   55  111 1    
   110   56   57 am   BACKBONE|DICT|INTERRES
   111   56   58 2    
   112   57  112 1    
   113   57  113 1    
   114   59   60 1    
   115   59  114 1    
   116   59  115 1    
   117   60   61 1    
   118   61  116 1    
   119   61  117 1    
@<TRIPOS>SUBSTRUCTURE
     1 UNK         1 GROUP             0       ****    0 ROOT    
