@<TRIPOS>MOLECULE
3R8
117   119    1
SMALL
USER_CHARGES


@<TRIPOS>ATOM
      1 CA         12.6921  -25.7760  -43.8147 C.3       0 UNK        -0.2013 
      2 C          14.1094  -25.7796  -44.3664 C.2       0 UNK         0.4866 
      3 O          14.7911  -24.7549  -44.3178 O.2       0 UNK        -0.5176 
      4 N          14.5690  -26.9264  -44.8813 N.am      1 UNK        -0.4884 
      5 CA         15.9016  -27.1467  -45.4590 C.3       1 UNK         0.0853 
      6 C6         15.8769  -28.2802  -46.5217 C.3       10 UNK        -0.0849 
      7 S7         15.1382  -29.8570  -45.9511 S.3       10 UNK        -0.2776 
      8 C8         16.2316  -31.0985  -46.7206 C.3       10 UNK         0.0316 
      9 C9         17.5995  -31.1401  -46.0554 C.ar      10 UNK        -0.0863 
     10 C10        17.7699  -31.8099  -44.8407 C.ar      10 UNK        -0.1009 
     11 C11        19.0107  -31.8083  -44.1938 C.ar      10 UNK        -0.0712 
     12 C12        20.0894  -31.1396  -44.7827 C.ar      10 UNK        -0.0894 
     13 C13        19.9374  -30.4892  -46.0109 C.ar      10 UNK        -0.0745 
     14 C14        18.6931  -30.5012  -46.6461 C.ar      10 UNK        -0.0972 
     15 C15        21.1105  -29.7796  -46.6683 C.3       10 UNK         0.0209 
     16 S16        21.0738  -27.9868  -46.3587 S.3       10 UNK        -0.2568 
     17 C17        21.9943  -27.8611  -44.7911 C.3       10 UNK        -0.0983 
     18 CA         21.5253  -26.6583  -43.9404 C.3       3 UNK         0.0876 
     19 N          20.1529  -26.8275  -43.4472 N.am      3 UNK        -0.4424 
     20 C          19.4342  -25.8766  -42.8365 C.2       2 UNK         0.4918 
     21 O          19.8260  -24.7199  -42.6716 O.2       2 UNK        -0.4875 
     22 CA         18.0309  -26.2835  -42.3553 C.3       2 UNK         0.0481 
     23 CB         17.4871  -25.3381  -41.2692 C.3       2 UNK        -0.1831 
     24 N          17.0774  -26.3306  -43.4613 N.am      2 UNK        -0.4498 
     25 C          16.9921  -27.3085  -44.3707 C.2       1 UNK         0.5027 
     26 O          17.7267  -28.2943  -44.3514 O.2       1 UNK        -0.4969 
     27 C          22.5273  -26.3581  -42.8044 C.2       3 UNK         0.5005 
     28 O          23.3803  -25.4845  -42.9755 O.2       3 UNK        -0.5279 
     29 N          22.3702  -27.0528  -41.6669 N.am      4 UNK        -0.4463 
     30 CA         23.1382  -26.9411  -40.4219 C.3       4 UNK         0.0283 
     31 CB         23.0589  -25.5091  -39.8479 C.3       4 UNK        -0.1875 
     32 C          24.5863  -27.4521  -40.5472 C.2       4 UNK         0.4949 
     33 O          24.9995  -27.9294  -41.6064 O.2       4 UNK        -0.5039 
     34 N          25.3228  -27.3849  -39.4281 N.am      5 UNK        -0.4663 
     35 CA         26.6988  -27.8670  -39.2522 C.3       5 UNK         0.0242 
     36 CB         27.6883  -26.9641  -40.0259 C.3       5 UNK        -0.1982 
     37 C          26.8165  -29.3703  -39.5783 C.2       5 UNK         0.5017 
     38 O          25.9866  -30.1500  -39.1058 O.2       5 UNK        -0.5012 
     39 N          27.8132  -29.7515  -40.3886 N.am      6 UNK        -0.4439 
     40 CA         28.0655  -31.1271  -40.8297 C.3       6 UNK         0.0297 
     41 CB         29.4212  -31.1832  -41.5527 C.3       6 UNK        -0.2006 
     42 C          26.9577  -31.7232  -41.7202 C.2       6 UNK         0.4892 
     43 O          26.8430  -32.9478  -41.7834 O.2       6 UNK        -0.5089 
     44 N          26.1661  -30.8681  -42.3847 N.am      7 UNK        -0.4243 
     45 CA         25.0210  -31.2763  -43.2030 C.3       7 UNK         0.0196 
     46 CB         24.7292  -30.1868  -44.2452 C.3       7 UNK        -0.2007 
     47 C          23.7641  -31.5850  -42.3680 C.2       7 UNK         0.5020 
     48 O          22.8713  -32.2609  -42.8778 O.2       7 UNK        -0.5147 
     49 N          23.7285  -31.1126  -41.1122 N.am      8 UNK        -0.4734 
     50 CA         22.6545  -31.2660  -40.1235 C.3       8 UNK         0.0238 
     51 CB         22.4283  -32.7589  -39.7897 C.3       8 UNK        -0.1912 
     52 C          21.3537  -30.5273  -40.5062 C.2       8 UNK         0.5038 
     53 O          21.3577  -29.6749  -41.3974 O.2       8 UNK        -0.5046 
     54 N          20.2728  -30.8300  -39.7749 N.am      9 UNK        -0.4200 
     55 CA         18.9380  -30.2094  -39.8728 C.3       9 UNK         0.0839 
     56 C          18.8551  -28.7401  -39.3597 C.2       9 UNK         0.5513 
     57 N          19.8999  -28.1772  -38.7650 N.am      9 UNK        -0.7519 
     58 O          17.8032  -28.1146  -39.4503 O.2       9 UNK        -0.4960 
     59 C59        18.2656  -30.4000  -41.2645 C.3       10 UNK        -0.0876 
     60 S60        17.9325  -32.1577  -41.6263 S.3       10 UNK        -0.2414 
     61 C61        19.2024  -32.5492  -42.8750 C.3       10 UNK         0.0169 
     62 H62        12.7026  -25.5199  -42.7556 H         1 UNK         0.0903 
     63 H63        12.0879  -25.0358  -44.3386 H         1 UNK         0.0903 
     64 H64        12.2094  -26.7470  -43.9245 H         1 UNK         0.0903 
     65 H65        13.9818  -27.7495  -44.8667 H         1 UNK         0.3096 
     66 H66        16.1797  -26.2375  -45.9975 H         1 UNK         0.1121 
     67 H67        16.8805  -28.4478  -46.9118 H         1 UNK         0.0849 
     68 H68        15.2926  -27.9471  -47.3808 H         1 UNK         0.0849 
     69 H69        15.7614  -32.0797  -46.6413 H         1 UNK         0.0865 
     70 H70        16.3239  -30.8926  -47.7882 H         1 UNK         0.0865 
     71 H71        16.9283  -32.3149  -44.3869 H         1 UNK         0.1346 
     72 H72        21.0502  -31.1304  -44.2877 H         1 UNK         0.1412 
     73 H73        18.5738  -29.9896  -47.5912 H         1 UNK         0.1426 
     74 H74        21.0740  -29.9462  -47.7459 H         1 UNK         0.0716 
     75 H75        22.0585  -30.2003  -46.3327 H         1 UNK         0.0716 
     76 H76        21.8979  -28.7888  -44.2238 H         1 UNK         0.0695 
     77 H77        23.0499  -27.7611  -45.0504 H         1 UNK         0.0695 
     78 H78        21.5226  -25.7756  -44.5840 H         1 UNK         0.0983 
     79 H79        19.7074  -27.7186  -43.6352 H         1 UNK         0.3095 
     80 H80        18.1079  -27.2816  -41.9227 H         1 UNK         0.0454 
     81 H81        18.1787  -25.2760  -40.4279 H         1 UNK         0.0851 
     82 H82        17.3364  -24.3260  -41.6467 H         1 UNK         0.0851 
     83 H83        16.5357  -25.6961  -40.8757 H         1 UNK         0.0851 
     84 H84        16.4367  -25.5484  -43.5574 H         1 UNK         0.2976 
     85 H85        21.7215  -27.8370  -41.6845 H         1 UNK         0.3116 
     86 H86        22.6411  -27.6083  -39.7175 H         1 UNK         0.0646 
     87 H87        23.4176  -25.4692  -38.8193 H         1 UNK         0.0847 
     88 H88        22.0321  -25.1429  -39.8401 H         1 UNK         0.0847 
     89 H89        23.6588  -24.8059  -40.4264 H         1 UNK         0.0847 
     90 H90        24.8844  -27.0220  -38.5931 H         1 UNK         0.3040 
     91 H91        26.9276  -27.7744  -38.1892 H         1 UNK         0.1015 
     92 H92        27.5609  -25.9187  -39.7441 H         1 UNK         0.0786 
     93 H93        27.5487  -27.0287  -41.1059 H         1 UNK         0.0786 
     94 H94        28.7241  -27.2238  -39.8033 H         1 UNK         0.0786 
     95 H95        28.4365  -29.0394  -40.7416 H         1 UNK         0.3172 
     96 H96        28.1313  -31.7519  -39.9364 H         1 UNK         0.0595 
     97 H97        29.6546  -32.2021  -41.8657 H         1 UNK         0.0839 
     98 H98        30.2331  -30.8536  -40.9041 H         1 UNK         0.0839 
     99 H99        29.4288  -30.5592  -42.4474 H         1 UNK         0.0839 
    100 H100       26.2998  -29.8732  -42.2566 H         1 UNK         0.2998 
    101 H101       25.2835  -32.1900  -43.7411 H         1 UNK         0.0822 
    102 H102       25.5959  -29.9978  -44.8786 H         1 UNK         0.0787 
    103 H103       23.9095  -30.4862  -44.8978 H         1 UNK         0.0787 
    104 H104       24.4453  -29.2471  -43.7732 H         1 UNK         0.0787 
    105 H105       24.5222  -30.5670  -40.7995 H         1 UNK         0.3055 
    106 H106       23.0237  -30.7772  -39.2203 H         1 UNK         0.1106 
    107 H107       21.9119  -33.2819  -40.5956 H         1 UNK         0.0828 
    108 H108       23.3748  -33.2712  -39.6154 H         1 UNK         0.0828 
    109 H109       21.8336  -32.8840  -38.8847 H         1 UNK         0.0828 
    110 H110       20.3637  -31.5295  -39.0532 H         1 UNK         0.2931 
    111 H111       18.3309  -30.7609  -39.1539 H         1 UNK         0.0412 
    112 H112       20.7517  -28.6942  -38.6301 H         1 UNK         0.3472 
    113 H113       19.8149  -27.2374  -38.4122 H         1 UNK         0.3472 
    114 H114       17.3022  -29.8885  -41.3020 H         1 UNK         0.0970 
    115 H115       18.8612  -29.9518  -42.0610 H         1 UNK         0.0970 
    116 H116       20.1856  -32.3430  -42.4529 H         1 UNK         0.0612 
    117 H117       19.1742  -33.6209  -43.0739 H         1 UNK         0.0612 
@<TRIPOS>BOND
     1    1    2 1    
     2    1   62 1    
     3    1   63 1    
     4    1   64 1    
     5    2    3 2    
     6    2    4 am   BACKBONE|DICT|INTERRES
     7    4    5 1    
     8    4   65 1    
     9    5    6 1    
    10    5   25 1    
    11    5   66 1    
    12    6    7 1    
    13    6   67 1    
    14    6   68 1    
    15    7    8 1    
    16    8    9 1    
    17    8   69 1    
    18    8   70 1    
    19    9   10 ar   
    20    9   14 ar   
    21   10   11 ar   
    22   10   71 1    
    23   11   12 ar   
    24   11   61 1    
    25   12   13 ar   
    26   12   72 1    
    27   13   14 ar   
    28   13   15 1    
    29   14   73 1    
    30   15   16 1    
    31   15   74 1    
    32   15   75 1    
    33   16   17 1    
    34   17   18 1    
    35   17   76 1    
    36   17   77 1    
    37   18   19 1    
    38   18   27 1    
    39   18   78 1    
    40   19   20 am   BACKBONE|DICT|INTERRES
    41   19   79 1    
    42   20   21 2    
    43   20   22 1    
    44   22   23 1    
    45   22   24 1    
    46   22   80 1    
    47   23   81 1    
    48   23   82 1    
    49   23   83 1    
    50   24   25 am   BACKBONE|DICT|INTERRES
    51   24   84 1    
    52   25   26 2    
    53   27   28 2    
    54   27   29 am   BACKBONE|DICT|INTERRES
    55   29   30 1    
    56   29   85 1    
    57   30   31 1    
    58   30   32 1    
    59   30   86 1    
    60   31   87 1    
    61   31   88 1    
    62   31   89 1    
    63   32   33 2    
    64   32   34 am   BACKBONE|DICT|INTERRES
    65   34   35 1    
    66   34   90 1    
    67   35   36 1    
    68   35   37 1    
    69   35   91 1    
    70   36   92 1    
    71   36   93 1    
    72   36   94 1    
    73   37   38 2    
    74   37   39 am   BACKBONE|DICT|INTERRES
    75   39   40 1    
    76   39   95 1    
    77   40   41 1    
    78   40   42 1    
    79   40   96 1    
    80   41   97 1    
    81   41   98 1    
    82   41   99 1    
    83   42   43 2    
    84   42   44 am   BACKBONE|DICT|INTERRES
    85   44   45 1    
    86   44  100 1    
    87   45   46 1    
    88   45   47 1    
    89   45  101 1    
    90   46  102 1    
    91   46  103 1    
    92   46  104 1    
    93   47   48 2    
    94   47   49 am   BACKBONE|DICT|INTERRES
    95   49   50 1    
    96   49  105 1    
    97   50   51 1    
    98   50   52 1    
    99   50  106 1    
   100   51  107 1    
   101   51  108 1    
   102   51  109 1    
   103   52   53 2    
   104   52   54 am   BACKBONE|DICT|INTERRES
   105   54   55 1    
   106   54  110 1    
   107   55   56 1    
   108   55   59 1    
   109   55  111 1    
   110   56   57 am   BACKBONE|DICT|INTERRES
   111   56   58 2    
   112   57  112 1    
   113   57  113 1    
   114   59   60 1    
   115   59  114 1    
   116   59  115 1    
   117   60   61 1    
   118   61  116 1    
   119   61  117 1    
@<TRIPOS>SUBSTRUCTURE
     1 UNK         1 GROUP             0       ****    0 ROOT    
