@<TRIPOS>MOLECULE
3R8
117   119    1
SMALL
USER_CHARGES


@<TRIPOS>ATOM
      1 CA         14.7512  -21.4731  -46.3699 C.3       0 UNK        -0.2013 
      2 C          15.8514  -22.1716  -45.5846 C.2       0 UNK         0.4866 
      3 O          16.6068  -21.5120  -44.8695 O.2       0 UNK        -0.5176 
      4 N          15.9546  -23.4992  -45.7191 N.am      1 UNK        -0.4884 
      5 CA         16.9212  -24.3362  -45.0025 C.3       1 UNK         0.0853 
      6 C6         16.9862  -25.7708  -45.5831 C.3       10 UNK        -0.0849 
      7 S7         17.6255  -25.8777  -47.2872 S.3       10 UNK        -0.2776 
      8 C8         19.2541  -26.6835  -47.0357 C.3       10 UNK         0.0316 
      9 C9         19.2537  -28.0832  -46.4034 C.ar      10 UNK        -0.0863 
     10 C10        20.4879  -28.6635  -46.0886 C.ar      10 UNK        -0.1009 
     11 C11        20.5631  -29.9215  -45.4802 C.ar      10 UNK        -0.0712 
     12 C12        19.3817  -30.6020  -45.1719 C.ar      10 UNK        -0.0894 
     13 C13        18.1399  -30.0300  -45.4558 C.ar      10 UNK        -0.0745 
     14 C14        18.0829  -28.7944  -46.1047 C.ar      10 UNK        -0.0972 
     15 C15        16.8547  -30.7201  -45.0234 C.3       10 UNK         0.0209 
     16 S16        16.1298  -29.9119  -43.5553 S.3       10 UNK        -0.2568 
     17 C17        17.3061  -30.3716  -42.2344 C.3       10 UNK        -0.0983 
     18 CA         18.3727  -29.2770  -41.9624 C.3       3 UNK         0.0876 
     19 N          17.7778  -27.9854  -41.5849 N.am      3 UNK        -0.4424 
     20 C          18.3585  -26.7968  -41.7862 C.2       2 UNK         0.4918 
     21 O          19.5051  -26.6651  -42.2253 O.2       2 UNK        -0.4875 
     22 CA         17.5347  -25.5388  -41.4922 C.3       2 UNK         0.0481 
     23 CB         18.1326  -24.7453  -40.3196 C.3       2 UNK        -0.1831 
     24 N          17.6208  -24.7570  -42.7185 N.am      2 UNK        -0.4498 
     25 C          16.5816  -24.4600  -43.5036 C.2       1 UNK         0.5027 
     26 O          15.4091  -24.4207  -43.1204 O.2       1 UNK        -0.4969 
     27 C          19.4657  -29.7349  -40.9679 C.2       3 UNK         0.5005 
     28 O          19.4094  -30.8481  -40.4442 O.2       3 UNK        -0.5279 
     29 N          20.4450  -28.8562  -40.7360 N.am      4 UNK        -0.4463 
     30 CA         21.6749  -29.0856  -39.9812 C.3       4 UNK         0.0283 
     31 CB         21.4254  -28.8806  -38.4753 C.3       4 UNK        -0.1875 
     32 C          22.8069  -28.1956  -40.5274 C.2       4 UNK         0.4949 
     33 O          23.7491  -27.8878  -39.7984 O.2       4 UNK        -0.5039 
     34 N          22.6952  -27.7822  -41.8003 N.am      5 UNK        -0.4663 
     35 CA         23.6656  -26.9393  -42.5038 C.3       5 UNK         0.0242 
     36 CB         23.0634  -26.4916  -43.8453 C.3       5 UNK        -0.1982 
     37 C          25.0148  -27.6432  -42.7214 C.2       5 UNK         0.5017 
     38 O          26.0611  -27.0093  -42.5847 O.2       5 UNK        -0.5012 
     39 N          24.9631  -28.9500  -43.0078 N.am      6 UNK        -0.4439 
     40 CA         26.1149  -29.8449  -43.0949 C.3       6 UNK         0.0297 
     41 CB         25.9244  -30.7965  -44.2909 C.3       6 UNK        -0.2006 
     42 C          26.2664  -30.5889  -41.7585 C.2       6 UNK         0.4892 
     43 O          26.1331  -31.8148  -41.7166 O.2       6 UNK        -0.5089 
     44 N          26.4785  -29.8160  -40.6819 N.am      7 UNK        -0.4243 
     45 CA         26.6159  -30.1948  -39.2655 C.3       7 UNK         0.0196 
     46 CB         27.8513  -31.0892  -39.0417 C.3       7 UNK        -0.2007 
     47 C          25.3547  -30.8238  -38.6440 C.2       7 UNK         0.5020 
     48 O          24.8944  -30.3642  -37.5992 O.2       7 UNK        -0.5147 
     49 N          24.8286  -31.8619  -39.2949 N.am      8 UNK        -0.4734 
     50 CA         23.6063  -32.5803  -38.9392 C.3       8 UNK         0.0238 
     51 CB         23.9577  -33.7630  -38.0187 C.3       8 UNK        -0.1912 
     52 C          22.8199  -33.0531  -40.1751 C.2       8 UNK         0.5038 
     53 O          21.6834  -33.4950  -40.0043 O.2       8 UNK        -0.5046 
     54 N          23.4117  -32.9612  -41.3789 N.am      9 UNK        -0.4200 
     55 CA         22.8339  -33.3974  -42.6625 C.3       9 UNK         0.0839 
     56 C          22.5433  -34.9311  -42.7201 C.2       9 UNK         0.5513 
     57 N          21.7389  -35.4008  -43.6653 N.am      9 UNK        -0.7519 
     58 O          23.0920  -35.7199  -41.9525 O.2       9 UNK        -0.4960 
     59 C59        21.6440  -32.4963  -43.1122 C.3       10 UNK        -0.0876 
     60 S60        22.1623  -30.7623  -43.3651 S.3       10 UNK        -0.2414 
     61 C61        21.9206  -30.5354  -45.1569 C.3       10 UNK         0.0169 
     62 H62        14.1701  -22.1736  -46.9695 H         1 UNK         0.0903 
     63 H63        14.0700  -20.9638  -45.6888 H         1 UNK         0.0903 
     64 H64        15.1823  -20.7300  -47.0402 H         1 UNK         0.0903 
     65 H65        15.3052  -23.9937  -46.3140 H         1 UNK         0.3096 
     66 H66        17.9054  -23.8706  -45.0954 H         1 UNK         0.1121 
     67 H67        15.9963  -26.2320  -45.5675 H         1 UNK         0.0849 
     68 H68        17.6108  -26.4013  -44.9478 H         1 UNK         0.0849 
     69 H69        19.7503  -26.7461  -48.0052 H         1 UNK         0.0865 
     70 H70        19.8675  -26.0214  -46.4223 H         1 UNK         0.0865 
     71 H71        21.3985  -28.1279  -46.3199 H         1 UNK         0.1346 
     72 H72        19.4241  -31.5630  -44.6811 H         1 UNK         0.1412 
     73 H73        17.1115  -28.3820  -46.3338 H         1 UNK         0.1426 
     74 H74        17.0259  -31.7775  -44.8155 H         1 UNK         0.0716 
     75 H75        16.1321  -30.6825  -45.8399 H         1 UNK         0.0716 
     76 H76        17.7828  -31.3144  -42.5095 H         1 UNK         0.0695 
     77 H77        16.7350  -30.5762  -41.3272 H         1 UNK         0.0695 
     78 H78        18.9022  -29.1207  -42.9038 H         1 UNK         0.0983 
     79 H79        16.8386  -28.0218  -41.2158 H         1 UNK         0.3095 
     80 H80        16.5037  -25.8152  -41.2607 H         1 UNK         0.0454 
     81 H81        19.1758  -24.4796  -40.4965 H         1 UNK         0.0851 
     82 H82        18.0947  -25.3258  -39.3971 H         1 UNK         0.0851 
     83 H83        17.5789  -23.8226  -40.1464 H         1 UNK         0.0851 
     84 H84        18.5426  -24.7823  -43.1366 H         1 UNK         0.2976 
     85 H85        20.3593  -27.9459  -41.1848 H         1 UNK         0.3116 
     86 H86        21.9939  -30.1167  -40.1429 H         1 UNK         0.0646 
     87 H87        21.1233  -27.8562  -38.2555 H         1 UNK         0.0847 
     88 H88        22.3261  -29.0892  -37.8963 H         1 UNK         0.0847 
     89 H89        20.6464  -29.5480  -38.1069 H         1 UNK         0.0847 
     90 H90        21.9049  -28.1009  -42.3426 H         1 UNK         0.3040 
     91 H91        23.8483  -26.0528  -41.8922 H         1 UNK         0.1015 
     92 H92        22.8594  -27.3401  -44.4988 H         1 UNK         0.0786 
     93 H93        23.7455  -25.8264  -44.3766 H         1 UNK         0.0786 
     94 H94        22.1288  -25.9489  -43.6996 H         1 UNK         0.0786 
     95 H95        24.0519  -29.3885  -43.0554 H         1 UNK         0.3172 
     96 H96        27.0315  -29.2757  -43.2634 H         1 UNK         0.0595 
     97 H97        25.8387  -30.2434  -45.2262 H         1 UNK         0.0839 
     98 H98        25.0314  -31.4123  -44.1854 H         1 UNK         0.0839 
     99 H99        26.7752  -31.4717  -44.3907 H         1 UNK         0.0839 
    100 H100       26.5027  -28.8181  -40.8485 H         1 UNK         0.2998 
    101 H101       26.7888  -29.2600  -38.7295 H         1 UNK         0.0822 
    102 H102       28.7610  -30.6007  -39.3908 H         1 UNK         0.0787 
    103 H103       27.9867  -31.3061  -37.9813 H         1 UNK         0.0787 
    104 H104       27.7661  -32.0454  -39.5587 H         1 UNK         0.0787 
    105 H105       25.3104  -32.1418  -40.1456 H         1 UNK         0.3055 
    106 H106       22.9418  -31.9030  -38.3974 H         1 UNK         0.1106 
    107 H107       23.0618  -34.3118  -37.7253 H         1 UNK         0.0828 
    108 H108       24.6272  -34.4690  -38.5114 H         1 UNK         0.0828 
    109 H109       24.4420  -33.4232  -37.1031 H         1 UNK         0.0828 
    110 H110       24.3585  -32.6105  -41.4477 H         1 UNK         0.2931 
    111 H111       23.6359  -33.2583  -43.3879 H         1 UNK         0.0412 
    112 H112       21.5744  -36.3946  -43.7113 H         1 UNK         0.3472 
    113 H113       21.3024  -34.7931  -44.3393 H         1 UNK         0.3472 
    114 H114       20.8412  -32.5179  -42.3734 H         1 UNK         0.0970 
    115 H115       21.2061  -32.8648  -44.0384 H         1 UNK         0.0970 
    116 H116       22.0358  -31.4827  -45.6846 H         1 UNK         0.0612 
    117 H117       22.7226  -29.8919  -45.5219 H         1 UNK         0.0612 
@<TRIPOS>BOND
     1    1    2 1    
     2    1   62 1    
     3    1   63 1    
     4    1   64 1    
     5    2    3 2    
     6    2    4 am   BACKBONE|DICT|INTERRES
     7    4    5 1    
     8    4   65 1    
     9    5    6 1    
    10    5   25 1    
    11    5   66 1    
    12    6    7 1    
    13    6   67 1    
    14    6   68 1    
    15    7    8 1    
    16    8    9 1    
    17    8   69 1    
    18    8   70 1    
    19    9   10 ar   
    20    9   14 ar   
    21   10   11 ar   
    22   10   71 1    
    23   11   12 ar   
    24   11   61 1    
    25   12   13 ar   
    26   12   72 1    
    27   13   14 ar   
    28   13   15 1    
    29   14   73 1    
    30   15   16 1    
    31   15   74 1    
    32   15   75 1    
    33   16   17 1    
    34   17   18 1    
    35   17   76 1    
    36   17   77 1    
    37   18   19 1    
    38   18   27 1    
    39   18   78 1    
    40   19   20 am   BACKBONE|DICT|INTERRES
    41   19   79 1    
    42   20   21 2    
    43   20   22 1    
    44   22   23 1    
    45   22   24 1    
    46   22   80 1    
    47   23   81 1    
    48   23   82 1    
    49   23   83 1    
    50   24   25 am   BACKBONE|DICT|INTERRES
    51   24   84 1    
    52   25   26 2    
    53   27   28 2    
    54   27   29 am   BACKBONE|DICT|INTERRES
    55   29   30 1    
    56   29   85 1    
    57   30   31 1    
    58   30   32 1    
    59   30   86 1    
    60   31   87 1    
    61   31   88 1    
    62   31   89 1    
    63   32   33 2    
    64   32   34 am   BACKBONE|DICT|INTERRES
    65   34   35 1    
    66   34   90 1    
    67   35   36 1    
    68   35   37 1    
    69   35   91 1    
    70   36   92 1    
    71   36   93 1    
    72   36   94 1    
    73   37   38 2    
    74   37   39 am   BACKBONE|DICT|INTERRES
    75   39   40 1    
    76   39   95 1    
    77   40   41 1    
    78   40   42 1    
    79   40   96 1    
    80   41   97 1    
    81   41   98 1    
    82   41   99 1    
    83   42   43 2    
    84   42   44 am   BACKBONE|DICT|INTERRES
    85   44   45 1    
    86   44  100 1    
    87   45   46 1    
    88   45   47 1    
    89   45  101 1    
    90   46  102 1    
    91   46  103 1    
    92   46  104 1    
    93   47   48 2    
    94   47   49 am   BACKBONE|DICT|INTERRES
    95   49   50 1    
    96   49  105 1    
    97   50   51 1    
    98   50   52 1    
    99   50  106 1    
   100   51  107 1    
   101   51  108 1    
   102   51  109 1    
   103   52   53 2    
   104   52   54 am   BACKBONE|DICT|INTERRES
   105   54   55 1    
   106   54  110 1    
   107   55   56 1    
   108   55   59 1    
   109   55  111 1    
   110   56   57 am   BACKBONE|DICT|INTERRES
   111   56   58 2    
   112   57  112 1    
   113   57  113 1    
   114   59   60 1    
   115   59  114 1    
   116   59  115 1    
   117   60   61 1    
   118   61  116 1    
   119   61  117 1    
@<TRIPOS>SUBSTRUCTURE
     1 UNK         1 GROUP             0       ****    0 ROOT    
