@<TRIPOS>MOLECULE
3R8
117   119    1
SMALL
USER_CHARGES


@<TRIPOS>ATOM
      1 CA         14.6865  -24.6303  -49.1129 C.3       0 UNK        -0.2013 
      2 C          15.0048  -23.7188  -47.9305 C.2       0 UNK         0.4866 
      3 O          14.9583  -22.4996  -48.0792 O.2       0 UNK        -0.5176 
      4 N          15.3298  -24.2471  -46.7408 N.am      1 UNK        -0.4884 
      5 CA         15.4625  -25.6745  -46.4103 C.3       1 UNK         0.0853 
      6 C6         15.3289  -25.9018  -44.8795 C.3       10 UNK        -0.0849 
      7 S7         14.6715  -27.5556  -44.4785 S.3       10 UNK        -0.2776 
      8 C8         14.8812  -27.6120  -42.6707 C.3       10 UNK         0.0316 
      9 C9         16.3318  -27.8234  -42.2553 C.ar      10 UNK        -0.0863 
     10 C10        16.9451  -29.0650  -42.4509 C.ar      10 UNK        -0.1009 
     11 C11        18.2604  -29.2858  -42.0294 C.ar      10 UNK        -0.0712 
     12 C12        18.9538  -28.2560  -41.3870 C.ar      10 UNK        -0.0894 
     13 C13        18.3629  -26.9997  -41.2094 C.ar      10 UNK        -0.0745 
     14 C14        17.0507  -26.7912  -41.6455 C.ar      10 UNK        -0.0972 
     15 C15        19.1297  -25.8668  -40.5373 C.3       10 UNK         0.0209 
     16 S16        20.7707  -25.5841  -41.2792 S.3       10 UNK        -0.2568 
     17 C17        20.3443  -25.0912  -42.9867 C.3       10 UNK        -0.0983 
     18 CA         20.4226  -26.2390  -44.0292 C.3       3 UNK         0.0876 
     19 N          19.9553  -25.7746  -45.3360 N.am      3 UNK        -0.4424 
     20 C          19.8365  -26.5110  -46.4494 C.2       2 UNK         0.4918 
     21 O          20.1653  -27.6947  -46.5458 O.2       2 UNK        -0.4875 
     22 CA         19.1489  -25.7906  -47.6238 C.3       2 UNK         0.0481 
     23 CB         19.2152  -26.5764  -48.9511 C.3       2 UNK        -0.1831 
     24 N          17.7660  -25.4445  -47.2659 N.am      2 UNK        -0.4498 
     25 C          16.7717  -26.2944  -46.9518 C.2       1 UNK         0.5027 
     26 O          16.8487  -27.5168  -47.0732 O.2       1 UNK        -0.4969 
     27 C          21.8275  -26.8784  -44.0908 C.2       3 UNK         0.5005 
     28 O          22.7393  -26.3083  -44.6958 O.2       3 UNK        -0.5279 
     29 N          21.9662  -28.0307  -43.4252 N.am      4 UNK        -0.4463 
     30 CA         23.2100  -28.7778  -43.2525 C.3       4 UNK         0.0283 
     31 CB         23.2841  -29.9107  -44.2935 C.3       4 UNK        -0.1875 
     32 C          23.3211  -29.2871  -41.8065 C.2       4 UNK         0.4949 
     33 O          23.8309  -30.3848  -41.5782 O.2       4 UNK        -0.5039 
     34 N          22.8470  -28.4869  -40.8380 N.am      5 UNK        -0.4663 
     35 CA         22.8424  -28.8204  -39.4060 C.3       5 UNK         0.0242 
     36 CB         22.0751  -27.7449  -38.6227 C.3       5 UNK        -0.1982 
     37 C          24.2448  -29.0260  -38.8062 C.2       5 UNK         0.5017 
     38 O          24.3882  -29.8116  -37.8700 O.2       5 UNK        -0.5012 
     39 N          25.2606  -28.3771  -39.3940 N.am      6 UNK        -0.4439 
     40 CA         26.6811  -28.5730  -39.0821 C.3       6 UNK         0.0297 
     41 CB         27.5116  -27.5136  -39.8241 C.3       6 UNK        -0.2006 
     42 C          27.1991  -29.9886  -39.4110 C.2       6 UNK         0.4892 
     43 O          28.1754  -30.4251  -38.8013 O.2       6 UNK        -0.5089 
     44 N          26.5287  -30.6808  -40.3424 N.am      7 UNK        -0.4243 
     45 CA         26.7631  -32.0795  -40.7038 C.3       7 UNK         0.0196 
     46 CB         26.8478  -32.1781  -42.2383 C.3       7 UNK        -0.2007 
     47 C          25.6536  -32.9934  -40.1467 C.2       7 UNK         0.5020 
     48 O          25.5128  -34.1223  -40.6187 O.2       7 UNK        -0.5147 
     49 N          24.8574  -32.4896  -39.1880 N.am      8 UNK        -0.4734 
     50 CA         23.6942  -33.1326  -38.5596 C.3       8 UNK         0.0238 
     51 CB         24.1463  -34.3047  -37.6627 C.3       8 UNK        -0.1912 
     52 C          22.5974  -33.5404  -39.5654 C.2       8 UNK         0.5038 
     53 O          21.9062  -34.5358  -39.3410 O.2       8 UNK        -0.5046 
     54 N          22.4768  -32.7773  -40.6616 N.am      9 UNK        -0.4200 
     55 CA         21.6175  -33.0492  -41.8245 C.3       9 UNK         0.0839 
     56 C          22.0447  -34.2953  -42.6607 C.2       9 UNK         0.5513 
     57 N          23.2439  -34.8407  -42.4880 N.am      9 UNK        -0.7519 
     58 O          21.2898  -34.7599  -43.5111 O.2       9 UNK        -0.4960 
     59 C59        20.0967  -33.0326  -41.4919 C.3       10 UNK        -0.0876 
     60 S60        19.5354  -31.4400  -40.7957 S.3       10 UNK        -0.2414 
     61 C61        18.9392  -30.6209  -42.3082 C.3       10 UNK         0.0169 
     62 H62        15.5455  -25.2437  -49.3818 H         1 UNK         0.0903 
     63 H63        13.8414  -25.2806  -48.8898 H         1 UNK         0.0903 
     64 H64        14.4207  -24.0376  -49.9881 H         1 UNK         0.0903 
     65 H65        15.5170  -23.6105  -45.9783 H         1 UNK         0.3096 
     66 H66        14.6398  -26.2020  -46.8970 H         1 UNK         0.1121 
     67 H67        14.6320  -25.1797  -44.4504 H         1 UNK         0.0849 
     68 H68        16.2791  -25.7420  -44.3652 H         1 UNK         0.0849 
     69 H69        14.4749  -26.7006  -42.2291 H         1 UNK         0.0865 
     70 H70        14.2789  -28.4312  -42.2753 H         1 UNK         0.0865 
     71 H71        16.3940  -29.8576  -42.9389 H         1 UNK         0.1346 
     72 H72        19.9614  -28.4292  -41.0376 H         1 UNK         0.1412 
     73 H73        16.5822  -25.8277  -41.4969 H         1 UNK         0.1426 
     74 H74        18.5641  -24.9345  -40.5755 H         1 UNK         0.0716 
     75 H75        19.2549  -26.1053  -39.4807 H         1 UNK         0.0716 
     76 H76        21.0143  -24.2785  -43.2738 H         1 UNK         0.0695 
     77 H77        19.3414  -24.6609  -42.9810 H         1 UNK         0.0695 
     78 H78        19.7129  -27.0133  -43.7348 H         1 UNK         0.0983 
     79 H79        19.6685  -24.8084  -45.3775 H         1 UNK         0.3095 
     80 H80        19.6791  -24.8491  -47.7761 H         1 UNK         0.0454 
     81 H81        18.7271  -26.0315  -49.7589 H         1 UNK         0.0851 
     82 H82        18.7446  -27.5568  -48.8764 H         1 UNK         0.0851 
     83 H83        20.2510  -26.7409  -49.2497 H         1 UNK         0.0851 
     84 H84        17.5787  -24.4584  -47.1453 H         1 UNK         0.2976 
     85 H85        21.1592  -28.4173  -42.9570 H         1 UNK         0.3116 
     86 H86        24.0641  -28.1151  -43.4056 H         1 UNK         0.0646 
     87 H87        23.2484  -29.5152  -45.3087 H         1 UNK         0.0847 
     88 H88        24.2136  -30.4738  -44.2002 H         1 UNK         0.0847 
     89 H89        22.4601  -30.6154  -44.1822 H         1 UNK         0.0847 
     90 H90        22.4686  -27.5848  -41.0955 H         1 UNK         0.3040 
     91 H91        22.3080  -29.7666  -39.2921 H         1 UNK         0.1015 
     92 H92        22.5050  -26.7530  -38.7668 H         1 UNK         0.0786 
     93 H93        22.0889  -27.9546  -37.5521 H         1 UNK         0.0786 
     94 H94        21.0293  -27.7082  -38.9246 H         1 UNK         0.0786 
     95 H95        25.0413  -27.7467  -40.1517 H         1 UNK         0.3172 
     96 H96        26.8100  -28.4193  -38.0087 H         1 UNK         0.0595 
     97 H97        27.4102  -27.6043  -40.9063 H         1 UNK         0.0839 
     98 H98        28.5720  -27.6141  -39.5878 H         1 UNK         0.0839 
     99 H99        27.2142  -26.5038  -39.5406 H         1 UNK         0.0839 
    100 H100       25.7110  -30.2602  -40.7707 H         1 UNK         0.2998 
    101 H101       27.7084  -32.4295  -40.2841 H         1 UNK         0.0822 
    102 H102       27.0937  -33.1925  -42.5551 H         1 UNK         0.0787 
    103 H103       25.9026  -31.9085  -42.7112 H         1 UNK         0.0787 
    104 H104       27.6214  -31.5209  -42.6356 H         1 UNK         0.0787 
    105 H105       25.0424  -31.5462  -38.8657 H         1 UNK         0.3055 
    106 H106       23.2386  -32.3801  -37.9138 H         1 UNK         0.1106 
    107 H107       24.9074  -33.9880  -36.9498 H         1 UNK         0.0828 
    108 H108       23.3108  -34.7024  -37.0853 H         1 UNK         0.0828 
    109 H109       24.5566  -35.1274  -38.2491 H         1 UNK         0.0828 
    110 H110       23.1046  -31.9878  -40.7789 H         1 UNK         0.2931 
    111 H111       21.7972  -32.2115  -42.4977 H         1 UNK         0.0412 
    112 H112       23.8927  -34.4825  -41.7955 H         1 UNK         0.3472 
    113 H113       23.5039  -35.6370  -43.0477 H         1 UNK         0.3472 
    114 H114       19.8494  -33.8246  -40.7842 H         1 UNK         0.0970 
    115 H115       19.5044  -33.2484  -42.3826 H         1 UNK         0.0970 
    116 H116       18.2510  -31.2915  -42.8251 H         1 UNK         0.0612 
    117 H117       19.7811  -30.4603  -42.9829 H         1 UNK         0.0612 
@<TRIPOS>BOND
     1    1    2 1    
     2    1   62 1    
     3    1   63 1    
     4    1   64 1    
     5    2    3 2    
     6    2    4 am   BACKBONE|DICT|INTERRES
     7    4    5 1    
     8    4   65 1    
     9    5    6 1    
    10    5   25 1    
    11    5   66 1    
    12    6    7 1    
    13    6   67 1    
    14    6   68 1    
    15    7    8 1    
    16    8    9 1    
    17    8   69 1    
    18    8   70 1    
    19    9   10 ar   
    20    9   14 ar   
    21   10   11 ar   
    22   10   71 1    
    23   11   12 ar   
    24   11   61 1    
    25   12   13 ar   
    26   12   72 1    
    27   13   14 ar   
    28   13   15 1    
    29   14   73 1    
    30   15   16 1    
    31   15   74 1    
    32   15   75 1    
    33   16   17 1    
    34   17   18 1    
    35   17   76 1    
    36   17   77 1    
    37   18   19 1    
    38   18   27 1    
    39   18   78 1    
    40   19   20 am   BACKBONE|DICT|INTERRES
    41   19   79 1    
    42   20   21 2    
    43   20   22 1    
    44   22   23 1    
    45   22   24 1    
    46   22   80 1    
    47   23   81 1    
    48   23   82 1    
    49   23   83 1    
    50   24   25 am   BACKBONE|DICT|INTERRES
    51   24   84 1    
    52   25   26 2    
    53   27   28 2    
    54   27   29 am   BACKBONE|DICT|INTERRES
    55   29   30 1    
    56   29   85 1    
    57   30   31 1    
    58   30   32 1    
    59   30   86 1    
    60   31   87 1    
    61   31   88 1    
    62   31   89 1    
    63   32   33 2    
    64   32   34 am   BACKBONE|DICT|INTERRES
    65   34   35 1    
    66   34   90 1    
    67   35   36 1    
    68   35   37 1    
    69   35   91 1    
    70   36   92 1    
    71   36   93 1    
    72   36   94 1    
    73   37   38 2    
    74   37   39 am   BACKBONE|DICT|INTERRES
    75   39   40 1    
    76   39   95 1    
    77   40   41 1    
    78   40   42 1    
    79   40   96 1    
    80   41   97 1    
    81   41   98 1    
    82   41   99 1    
    83   42   43 2    
    84   42   44 am   BACKBONE|DICT|INTERRES
    85   44   45 1    
    86   44  100 1    
    87   45   46 1    
    88   45   47 1    
    89   45  101 1    
    90   46  102 1    
    91   46  103 1    
    92   46  104 1    
    93   47   48 2    
    94   47   49 am   BACKBONE|DICT|INTERRES
    95   49   50 1    
    96   49  105 1    
    97   50   51 1    
    98   50   52 1    
    99   50  106 1    
   100   51  107 1    
   101   51  108 1    
   102   51  109 1    
   103   52   53 2    
   104   52   54 am   BACKBONE|DICT|INTERRES
   105   54   55 1    
   106   54  110 1    
   107   55   56 1    
   108   55   59 1    
   109   55  111 1    
   110   56   57 am   BACKBONE|DICT|INTERRES
   111   56   58 2    
   112   57  112 1    
   113   57  113 1    
   114   59   60 1    
   115   59  114 1    
   116   59  115 1    
   117   60   61 1    
   118   61  116 1    
   119   61  117 1    
@<TRIPOS>SUBSTRUCTURE
     1 UNK         1 GROUP             0       ****    0 ROOT    
