@<TRIPOS>MOLECULE
3R8
117   119    1
SMALL
USER_CHARGES


@<TRIPOS>ATOM
      1 CA         15.1464  -25.8481  -40.6482 C.3       0 UNK        -0.2013 
      2 C          15.2477  -26.0550  -42.1521 C.2       0 UNK         0.4866 
      3 O          14.2415  -26.3410  -42.8013 O.2       0 UNK        -0.5176 
      4 N          16.4531  -25.9096  -42.7096 N.am      1 UNK        -0.4884 
      5 CA         16.7610  -26.0277  -44.1337 C.3       1 UNK         0.0853 
      6 C6         16.7657  -27.5019  -44.6200 C.3       10 UNK        -0.0849 
      7 S7         16.4774  -27.6475  -46.4181 S.3       10 UNK        -0.2776 
      8 C8         16.3356  -29.4515  -46.6153 C.3       10 UNK         0.0316 
      9 C9         17.5930  -30.1675  -46.1466 C.ar      10 UNK        -0.0863 
     10 C10        17.6009  -30.8391  -44.9195 C.ar      10 UNK        -0.1009 
     11 C11        18.7584  -31.4799  -44.4713 C.ar      10 UNK        -0.0712 
     12 C12        19.9043  -31.4605  -45.2678 C.ar      10 UNK        -0.0894 
     13 C13        19.9199  -30.7666  -46.4805 C.ar      10 UNK        -0.0745 
     14 C14        18.7551  -30.1342  -46.9244 C.ar      10 UNK        -0.0972 
     15 C15        21.2074  -30.6799  -47.2889 C.3       10 UNK         0.0209 
     16 S16        21.9785  -29.0276  -47.1981 S.3       10 UNK        -0.2568 
     17 C17        22.2612  -28.8073  -45.4052 C.3       10 UNK        -0.0983 
     18 CA         22.2558  -27.3194  -44.9711 C.3       3 UNK         0.0876 
     19 N          21.0879  -26.5742  -45.4549 N.am      3 UNK        -0.4424 
     20 C          21.0488  -25.2391  -45.5706 C.2       2 UNK         0.4918 
     21 O          21.9857  -24.4956  -45.2778 O.2       2 UNK        -0.4875 
     22 CA         19.7527  -24.6202  -46.1227 C.3       2 UNK         0.0481 
     23 CB         19.7759  -24.6143  -47.6596 C.3       2 UNK        -0.1831 
     24 N          18.5328  -25.2840  -45.6584 N.am      2 UNK        -0.4498 
     25 C          18.0971  -25.3027  -44.3923 C.2       1 UNK         0.5027 
     26 O          18.6998  -24.7732  -43.4540 O.2       1 UNK        -0.4969 
     27 C          22.3776  -27.1922  -43.4414 C.2       3 UNK         0.5005 
     28 O          23.4244  -26.7712  -42.9448 O.2       3 UNK        -0.5279 
     29 N          21.2912  -27.5466  -42.7338 N.am      4 UNK        -0.4463 
     30 CA         21.1190  -27.4993  -41.2779 C.3       4 UNK         0.0283 
     31 CB         20.8494  -26.0479  -40.8235 C.3       4 UNK        -0.1875 
     32 C          22.2830  -28.1805  -40.5346 C.2       4 UNK         0.4949 
     33 O          22.4310  -29.3991  -40.6338 O.2       4 UNK        -0.5039 
     34 N          23.1061  -27.3899  -39.8333 N.am      5 UNK        -0.4663 
     35 CA         24.2841  -27.8308  -39.0833 C.3       5 UNK         0.0242 
     36 CB         24.8838  -26.6293  -38.3361 C.3       5 UNK        -0.1982 
     37 C          25.3615  -28.5241  -39.9363 C.2       5 UNK         0.5017 
     38 O          26.0868  -29.3602  -39.3985 O.2       5 UNK        -0.5012 
     39 N          25.4289  -28.2150  -41.2416 N.am      6 UNK        -0.4439 
     40 CA         26.3431  -28.8643  -42.1895 C.3       6 UNK         0.0297 
     41 CB         26.4001  -28.0575  -43.4967 C.3       6 UNK        -0.2006 
     42 C          25.9747  -30.3312  -42.4813 C.2       6 UNK         0.4892 
     43 O          26.8564  -31.1048  -42.8558 O.2       6 UNK        -0.5089 
     44 N          24.6961  -30.6857  -42.2960 N.am      7 UNK        -0.4243 
     45 CA         24.1658  -32.0435  -42.4370 C.3       7 UNK         0.0196 
     46 CB         22.9598  -31.9889  -43.3850 C.3       7 UNK        -0.2007 
     47 C          23.7690  -32.6551  -41.0801 C.2       7 UNK         0.5020 
     48 O          23.2589  -33.7754  -41.0564 O.2       7 UNK        -0.5147 
     49 N          23.9962  -31.9150  -39.9837 N.am      8 UNK        -0.4734 
     50 CA         23.6252  -32.2226  -38.5974 C.3       8 UNK         0.0238 
     51 CB         24.4369  -33.4247  -38.0685 C.3       8 UNK        -0.1912 
     52 C          22.1037  -32.3819  -38.3871 C.2       8 UNK         0.5038 
     53 O          21.6898  -33.1936  -37.5565 O.2       8 UNK        -0.5046 
     54 N          21.3040  -31.6014  -39.1269 N.am      9 UNK        -0.4200 
     55 CA         19.8331  -31.5788  -39.0551 C.3       9 UNK         0.0839 
     56 C          19.2485  -30.2202  -38.5715 C.2       9 UNK         0.5513 
     57 N          20.0605  -29.2748  -38.1126 N.am      9 UNK        -0.7519 
     58 O          18.0350  -30.0299  -38.5789 O.2       9 UNK        -0.4960 
     59 C59        19.1811  -32.1094  -40.3608 C.3       10 UNK        -0.0876 
     60 S60        19.4685  -31.0781  -41.8383 S.3       10 UNK        -0.2414 
     61 C61        18.7824  -32.1730  -43.1190 C.3       10 UNK         0.0169 
     62 H62        14.7744  -26.7537  -40.1696 H         1 UNK         0.0903 
     63 H63        16.1111  -25.6026  -40.2043 H         1 UNK         0.0903 
     64 H64        14.4542  -25.0361  -40.4266 H         1 UNK         0.0903 
     65 H65        17.2464  -25.6038  -42.1575 H         1 UNK         0.3096 
     66 H66        15.9918  -25.4723  -44.6758 H         1 UNK         0.1121 
     67 H67        15.9735  -28.0663  -44.1259 H         1 UNK         0.0849 
     68 H68        17.6983  -27.9998  -44.3474 H         1 UNK         0.0849 
     69 H69        15.4596  -29.8067  -46.0702 H         1 UNK         0.0865 
     70 H70        16.1547  -29.6826  -47.6661 H         1 UNK         0.0865 
     71 H71        16.7119  -30.8483  -44.3036 H         1 UNK         0.1346 
     72 H72        20.7971  -31.9592  -44.9252 H         1 UNK         0.1412 
     73 H73        18.7611  -29.5937  -47.8614 H         1 UNK         0.1426 
     74 H74        21.9284  -31.4257  -46.9502 H         1 UNK         0.0716 
     75 H75        20.9944  -30.9134  -48.3329 H         1 UNK         0.0716 
     76 H76        21.5065  -29.3601  -44.8482 H         1 UNK         0.0695 
     77 H77        23.2184  -29.2684  -45.1550 H         1 UNK         0.0695 
     78 H78        23.1463  -26.8564  -45.4032 H         1 UNK         0.0983 
     79 H79        20.2909  -27.1170  -45.7520 H         1 UNK         0.3095 
     80 H80        19.7128  -23.5831  -45.7827 H         1 UNK         0.0454 
     81 H81        19.7846  -25.6254  -48.0691 H         1 UNK         0.0851 
     82 H82        18.9100  -24.0934  -48.0685 H         1 UNK         0.0851 
     83 H83        20.6644  -24.1041  -48.0344 H         1 UNK         0.0851 
     84 H84        17.9809  -25.7686  -46.3552 H         1 UNK         0.2976 
     85 H85        20.5014  -27.9120  -43.2453 H         1 UNK         0.3116 
     86 H86        20.2299  -28.0882  -41.0477 H         1 UNK         0.0646 
     87 H87        21.6573  -25.3700  -41.1014 H         1 UNK         0.0847 
     88 H88        19.9357  -25.6647  -41.2756 H         1 UNK         0.0847 
     89 H89        20.7126  -25.9877  -39.7428 H         1 UNK         0.0847 
     90 H90        22.9242  -26.3967  -39.8413 H         1 UNK         0.3040 
     91 H91        23.9456  -28.5590  -38.3432 H         1 UNK         0.1015 
     92 H92        25.2147  -25.8503  -39.0243 H         1 UNK         0.0786 
     93 H93        25.7492  -26.9296  -37.7434 H         1 UNK         0.0786 
     94 H94        24.1618  -26.1875  -37.6489 H         1 UNK         0.0786 
     95 H95        24.7671  -27.5457  -41.6272 H         1 UNK         0.3172 
     96 H96        27.3417  -28.8575  -41.7473 H         1 UNK         0.0595 
     97 H97        27.1630  -28.4580  -44.1656 H         1 UNK         0.0839 
     98 H98        26.6480  -27.0122  -43.3116 H         1 UNK         0.0839 
     99 H99        25.4527  -28.0890  -44.0350 H         1 UNK         0.0839 
    100 H100       24.0393  -29.9893  -41.9621 H         1 UNK         0.2998 
    101 H101       24.9145  -32.7070  -42.8744 H         1 UNK         0.0822 
    102 H102       22.5016  -32.9722  -43.4998 H         1 UNK         0.0787 
    103 H103       22.1934  -31.3086  -43.0124 H         1 UNK         0.0787 
    104 H104       23.2557  -31.6525  -44.3785 H         1 UNK         0.0787 
    105 H105       24.4319  -31.0137  -40.1217 H         1 UNK         0.3055 
    106 H106       23.9137  -31.3512  -38.0075 H         1 UNK         0.1106 
    107 H107       25.5068  -33.2753  -38.2135 H         1 UNK         0.0828 
    108 H108       24.2744  -33.5680  -36.9995 H         1 UNK         0.0828 
    109 H109       24.1568  -34.3535  -38.5662 H         1 UNK         0.0828 
    110 H110       21.7204  -30.9408  -39.7790 H         1 UNK         0.2931 
    111 H111       19.5178  -32.2706  -38.2727 H         1 UNK         0.0412 
    112 H112       19.6673  -28.4096  -37.7780 H         1 UNK         0.3472 
    113 H113       21.0534  -29.4333  -38.0670 H         1 UNK         0.3472 
    114 H114       19.5563  -33.1137  -40.5642 H         1 UNK         0.0970 
    115 H115       18.1039  -32.2202  -40.2237 H         1 UNK         0.0970 
    116 H116       19.3813  -33.0834  -43.1757 H         1 UNK         0.0612 
    117 H117       17.7745  -32.4790  -42.8342 H         1 UNK         0.0612 
@<TRIPOS>BOND
     1    1    2 1    
     2    1   62 1    
     3    1   63 1    
     4    1   64 1    
     5    2    3 2    
     6    2    4 am   BACKBONE|DICT|INTERRES
     7    4    5 1    
     8    4   65 1    
     9    5    6 1    
    10    5   25 1    
    11    5   66 1    
    12    6    7 1    
    13    6   67 1    
    14    6   68 1    
    15    7    8 1    
    16    8    9 1    
    17    8   69 1    
    18    8   70 1    
    19    9   10 ar   
    20    9   14 ar   
    21   10   11 ar   
    22   10   71 1    
    23   11   12 ar   
    24   11   61 1    
    25   12   13 ar   
    26   12   72 1    
    27   13   14 ar   
    28   13   15 1    
    29   14   73 1    
    30   15   16 1    
    31   15   74 1    
    32   15   75 1    
    33   16   17 1    
    34   17   18 1    
    35   17   76 1    
    36   17   77 1    
    37   18   19 1    
    38   18   27 1    
    39   18   78 1    
    40   19   20 am   BACKBONE|DICT|INTERRES
    41   19   79 1    
    42   20   21 2    
    43   20   22 1    
    44   22   23 1    
    45   22   24 1    
    46   22   80 1    
    47   23   81 1    
    48   23   82 1    
    49   23   83 1    
    50   24   25 am   BACKBONE|DICT|INTERRES
    51   24   84 1    
    52   25   26 2    
    53   27   28 2    
    54   27   29 am   BACKBONE|DICT|INTERRES
    55   29   30 1    
    56   29   85 1    
    57   30   31 1    
    58   30   32 1    
    59   30   86 1    
    60   31   87 1    
    61   31   88 1    
    62   31   89 1    
    63   32   33 2    
    64   32   34 am   BACKBONE|DICT|INTERRES
    65   34   35 1    
    66   34   90 1    
    67   35   36 1    
    68   35   37 1    
    69   35   91 1    
    70   36   92 1    
    71   36   93 1    
    72   36   94 1    
    73   37   38 2    
    74   37   39 am   BACKBONE|DICT|INTERRES
    75   39   40 1    
    76   39   95 1    
    77   40   41 1    
    78   40   42 1    
    79   40   96 1    
    80   41   97 1    
    81   41   98 1    
    82   41   99 1    
    83   42   43 2    
    84   42   44 am   BACKBONE|DICT|INTERRES
    85   44   45 1    
    86   44  100 1    
    87   45   46 1    
    88   45   47 1    
    89   45  101 1    
    90   46  102 1    
    91   46  103 1    
    92   46  104 1    
    93   47   48 2    
    94   47   49 am   BACKBONE|DICT|INTERRES
    95   49   50 1    
    96   49  105 1    
    97   50   51 1    
    98   50   52 1    
    99   50  106 1    
   100   51  107 1    
   101   51  108 1    
   102   51  109 1    
   103   52   53 2    
   104   52   54 am   BACKBONE|DICT|INTERRES
   105   54   55 1    
   106   54  110 1    
   107   55   56 1    
   108   55   59 1    
   109   55  111 1    
   110   56   57 am   BACKBONE|DICT|INTERRES
   111   56   58 2    
   112   57  112 1    
   113   57  113 1    
   114   59   60 1    
   115   59  114 1    
   116   59  115 1    
   117   60   61 1    
   118   61  116 1    
   119   61  117 1    
@<TRIPOS>SUBSTRUCTURE
     1 UNK         1 GROUP             0       ****    0 ROOT    
