@<TRIPOS>MOLECULE
3R8
117   119    1
SMALL
USER_CHARGES


@<TRIPOS>ATOM
      1 CA         16.7821  -23.6929  -47.1615 C.3       0 UNK        -0.2013 
      2 C          18.0598  -24.5183  -47.1484 C.2       0 UNK         0.4866 
      3 O          19.0859  -24.0672  -47.6577 O.2       0 UNK        -0.5176 
      4 N          18.0061  -25.7252  -46.5694 N.am      1 UNK        -0.4884 
      5 CA         19.1363  -26.6624  -46.4840 C.3       1 UNK         0.0853 
      6 C6         18.6716  -28.1013  -46.1517 C.3       10 UNK        -0.0849 
      7 S7         17.5153  -28.7899  -47.3875 S.3       10 UNK        -0.2776 
      8 C8         16.0207  -29.1236  -46.3934 C.3       10 UNK         0.0316 
      9 C9         16.3027  -30.0584  -45.2239 C.ar      10 UNK        -0.0863 
     10 C10        16.6774  -31.3858  -45.4540 C.ar      10 UNK        -0.1009 
     11 C11        16.9861  -32.2304  -44.3840 C.ar      10 UNK        -0.0712 
     12 C12        16.9025  -31.7448  -43.0759 C.ar      10 UNK        -0.0894 
     13 C13        16.5293  -30.4206  -42.8329 C.ar      10 UNK        -0.0745 
     14 C14        16.2141  -29.5870  -43.9100 C.ar      10 UNK        -0.0972 
     15 C15        16.4925  -29.8872  -41.4071 C.3       10 UNK         0.0209 
     16 S16        17.6633  -28.5142  -41.1483 S.3       10 UNK        -0.2568 
     17 C17        19.2562  -29.2775  -41.6261 C.3       10 UNK        -0.0983 
     18 CA         20.4657  -28.3146  -41.5026 C.3       3 UNK         0.0876 
     19 N          20.2316  -27.0677  -42.2469 N.am      3 UNK        -0.4424 
     20 C          21.0914  -26.0553  -42.4255 C.2       2 UNK         0.4918 
     21 O          22.1927  -25.9895  -41.8803 O.2       2 UNK        -0.4875 
     22 CA         20.6185  -24.9128  -43.3479 C.3       2 UNK         0.0481 
     23 CB         21.7794  -24.0137  -43.8239 C.3       2 UNK        -0.1831 
     24 N          19.8162  -25.3900  -44.4839 N.am      2 UNK        -0.4498 
     25 C          20.2094  -26.2217  -45.4645 C.2       1 UNK         0.5027 
     26 O          21.3524  -26.6669  -45.5730 O.2       1 UNK        -0.4969 
     27 C          20.8923  -28.1302  -40.0281 C.2       3 UNK         0.5005 
     28 O          21.5468  -29.0138  -39.4725 O.2       3 UNK        -0.5279 
     29 N          20.5224  -26.9952  -39.4201 N.am      4 UNK        -0.4463 
     30 CA         20.9143  -26.6142  -38.0627 C.3       4 UNK         0.0283 
     31 CB         19.9100  -25.5799  -37.5282 C.3       4 UNK        -0.1875 
     32 C          22.3491  -26.0596  -37.9704 C.2       4 UNK         0.4949 
     33 O          22.8986  -26.0322  -36.8686 O.2       4 UNK        -0.5039 
     34 N          22.9171  -25.6005  -39.0948 N.am      5 UNK        -0.4663 
     35 CA         24.2136  -24.9196  -39.1547 C.3       5 UNK         0.0242 
     36 CB         24.0112  -23.5278  -39.7774 C.3       5 UNK        -0.1982 
     37 C          25.2677  -25.7016  -39.9526 C.2       5 UNK         0.5017 
     38 O          26.4507  -25.6008  -39.6240 O.2       5 UNK        -0.5012 
     39 N          24.8456  -26.4403  -40.9850 N.am      6 UNK        -0.4439 
     40 CA         25.7103  -27.1733  -41.9070 C.3       6 UNK         0.0297 
     41 CB         25.8814  -26.3394  -43.1896 C.3       6 UNK        -0.2006 
     42 C          25.1063  -28.5455  -42.2291 C.2       6 UNK         0.4892 
     43 O          23.9057  -28.7500  -42.0409 O.2       6 UNK        -0.5089 
     44 N          25.9602  -29.4432  -42.7424 N.am      7 UNK        -0.4243 
     45 CA         25.6693  -30.8309  -43.1264 C.3       7 UNK         0.0196 
     46 CB         24.6443  -30.8761  -44.2850 C.3       7 UNK        -0.2007 
     47 C          25.2747  -31.7142  -41.9233 C.2       7 UNK         0.5020 
     48 O          25.5836  -31.3766  -40.7781 O.2       7 UNK        -0.5147 
     49 N          24.6367  -32.8547  -42.2067 N.am      8 UNK        -0.4734 
     50 CA         24.1731  -33.8321  -41.2192 C.3       8 UNK         0.0238 
     51 CB         25.2949  -34.8468  -40.9175 C.3       8 UNK        -0.1912 
     52 C          22.8705  -34.4944  -41.6977 C.2       8 UNK         0.5038 
     53 O          22.6960  -35.7024  -41.5279 O.2       8 UNK        -0.5046 
     54 N          21.9911  -33.6948  -42.3181 N.am      9 UNK        -0.4200 
     55 CA         20.6901  -34.1324  -42.8504 C.3       9 UNK         0.0839 
     56 C          19.6638  -34.5352  -41.7516 C.2       9 UNK         0.5513 
     57 N          19.7148  -33.9428  -40.5640 N.am      9 UNK        -0.7519 
     58 O          18.8281  -35.4073  -41.9697 O.2       9 UNK        -0.4960 
     59 C59        20.1055  -33.0741  -43.8261 C.3       10 UNK        -0.0876 
     60 S60        19.1450  -33.7958  -45.2036 S.3       10 UNK        -0.2414 
     61 C61        17.4157  -33.6673  -44.6378 C.3       10 UNK         0.0169 
     62 H62        16.4910  -23.4695  -48.1876 H         1 UNK         0.0903 
     63 H63        15.9541  -24.2133  -46.6805 H         1 UNK         0.0903 
     64 H64        16.9392  -22.7496  -46.6390 H         1 UNK         0.0903 
     65 H65        17.1298  -26.0581  -46.1938 H         1 UNK         0.3096 
     66 H66        19.6264  -26.6845  -47.4604 H         1 UNK         0.1121 
     67 H67        19.5274  -28.7783  -46.1062 H         1 UNK         0.0849 
     68 H68        18.2222  -28.1274  -45.1587 H         1 UNK         0.0849 
     69 H69        15.6039  -28.1773  -46.0453 H         1 UNK         0.0865 
     70 H70        15.2613  -29.5725  -47.0351 H         1 UNK         0.0865 
     71 H71        16.7542  -31.7542  -46.4681 H         1 UNK         0.1346 
     72 H72        17.1484  -32.3952  -42.2472 H         1 UNK         0.1412 
     73 H73        15.9315  -28.5602  -43.7206 H         1 UNK         0.1426 
     74 H74        16.7143  -30.6775  -40.6881 H         1 UNK         0.0716 
     75 H75        15.4835  -29.5398  -41.1817 H         1 UNK         0.0716 
     76 H76        19.4112  -30.1846  -41.0382 H         1 UNK         0.0695 
     77 H77        19.1763  -29.6089  -42.6626 H         1 UNK         0.0695 
     78 H78        21.3122  -28.7993  -41.9918 H         1 UNK         0.0983 
     79 H79        19.3318  -27.0062  -42.6992 H         1 UNK         0.3095 
     80 H80        19.9524  -24.2943  -42.7451 H         1 UNK         0.0454 
     81 H81        22.2749  -23.5354  -42.9786 H         1 UNK         0.0851 
     82 H82        21.4240  -23.2201  -44.4809 H         1 UNK         0.0851 
     83 H83        22.5386  -24.5814  -44.3627 H         1 UNK         0.0851 
     84 H84        18.8555  -25.0770  -44.5066 H         1 UNK         0.2976 
     85 H85        19.9613  -26.3370  -39.9410 H         1 UNK         0.3116 
     86 H86        20.8620  -27.4978  -37.4227 H         1 UNK         0.0646 
     87 H87        20.1483  -25.2993  -36.5012 H         1 UNK         0.0847 
     88 H88        19.9140  -24.6660  -38.1236 H         1 UNK         0.0847 
     89 H89        18.8944  -25.9763  -37.5253 H         1 UNK         0.0847 
     90 H90        22.4244  -25.7089  -39.9757 H         1 UNK         0.3040 
     91 H91        24.6180  -24.7794  -38.1496 H         1 UNK         0.1015 
     92 H92        24.9542  -22.9818  -39.8314 H         1 UNK         0.0786 
     93 H93        23.3222  -22.9257  -39.1848 H         1 UNK         0.0786 
     94 H94        23.6130  -23.5934  -40.7907 H         1 UNK         0.0786 
     95 H95        23.8521  -26.4891  -41.2025 H         1 UNK         0.3172 
     96 H96        26.6892  -27.3404  -41.4525 H         1 UNK         0.0595 
     97 H97        24.9228  -26.1586  -43.6788 H         1 UNK         0.0839 
     98 H98        26.5259  -26.8449  -43.9096 H         1 UNK         0.0839 
     99 H99        26.3342  -25.3712  -42.9750 H         1 UNK         0.0839 
    100 H100       26.9295  -29.1709  -42.8287 H         1 UNK         0.2998 
    101 H101       26.6095  -31.2383  -43.5013 H         1 UNK         0.0822 
    102 H102       24.5988  -31.8640  -44.7440 H         1 UNK         0.0787 
    103 H103       23.6382  -30.6208  -43.9496 H         1 UNK         0.0787 
    104 H104       24.9146  -30.1762  -45.0760 H         1 UNK         0.0787 
    105 H105       24.4362  -33.0729  -43.1737 H         1 UNK         0.3055 
    106 H106       23.9218  -33.3156  -40.2896 H         1 UNK         0.1106 
    107 H107       26.1904  -34.3497  -40.5444 H         1 UNK         0.0828 
    108 H108       24.9844  -35.5617  -40.1544 H         1 UNK         0.0828 
    109 H109       25.5721  -35.4148  -41.8062 H         1 UNK         0.0828 
    110 H110       22.2039  -32.7112  -42.3910 H         1 UNK         0.2931 
    111 H111       20.8963  -35.0366  -43.4273 H         1 UNK         0.0412 
    112 H112       20.4075  -33.2388  -40.3668 H         1 UNK         0.3472 
    113 H113       19.0586  -34.2169  -39.8497 H         1 UNK         0.3472 
    114 H114       19.5350  -32.3106  -43.2978 H         1 UNK         0.0970 
    115 H115       20.9189  -32.5277  -44.3061 H         1 UNK         0.0970 
    116 H116       16.7690  -34.1051  -45.3994 H         1 UNK         0.0612 
    117 H117       17.2755  -34.2740  -43.7435 H         1 UNK         0.0612 
@<TRIPOS>BOND
     1    1    2 1    
     2    1   62 1    
     3    1   63 1    
     4    1   64 1    
     5    2    3 2    
     6    2    4 am   BACKBONE|DICT|INTERRES
     7    4    5 1    
     8    4   65 1    
     9    5    6 1    
    10    5   25 1    
    11    5   66 1    
    12    6    7 1    
    13    6   67 1    
    14    6   68 1    
    15    7    8 1    
    16    8    9 1    
    17    8   69 1    
    18    8   70 1    
    19    9   10 ar   
    20    9   14 ar   
    21   10   11 ar   
    22   10   71 1    
    23   11   12 ar   
    24   11   61 1    
    25   12   13 ar   
    26   12   72 1    
    27   13   14 ar   
    28   13   15 1    
    29   14   73 1    
    30   15   16 1    
    31   15   74 1    
    32   15   75 1    
    33   16   17 1    
    34   17   18 1    
    35   17   76 1    
    36   17   77 1    
    37   18   19 1    
    38   18   27 1    
    39   18   78 1    
    40   19   20 am   BACKBONE|DICT|INTERRES
    41   19   79 1    
    42   20   21 2    
    43   20   22 1    
    44   22   23 1    
    45   22   24 1    
    46   22   80 1    
    47   23   81 1    
    48   23   82 1    
    49   23   83 1    
    50   24   25 am   BACKBONE|DICT|INTERRES
    51   24   84 1    
    52   25   26 2    
    53   27   28 2    
    54   27   29 am   BACKBONE|DICT|INTERRES
    55   29   30 1    
    56   29   85 1    
    57   30   31 1    
    58   30   32 1    
    59   30   86 1    
    60   31   87 1    
    61   31   88 1    
    62   31   89 1    
    63   32   33 2    
    64   32   34 am   BACKBONE|DICT|INTERRES
    65   34   35 1    
    66   34   90 1    
    67   35   36 1    
    68   35   37 1    
    69   35   91 1    
    70   36   92 1    
    71   36   93 1    
    72   36   94 1    
    73   37   38 2    
    74   37   39 am   BACKBONE|DICT|INTERRES
    75   39   40 1    
    76   39   95 1    
    77   40   41 1    
    78   40   42 1    
    79   40   96 1    
    80   41   97 1    
    81   41   98 1    
    82   41   99 1    
    83   42   43 2    
    84   42   44 am   BACKBONE|DICT|INTERRES
    85   44   45 1    
    86   44  100 1    
    87   45   46 1    
    88   45   47 1    
    89   45  101 1    
    90   46  102 1    
    91   46  103 1    
    92   46  104 1    
    93   47   48 2    
    94   47   49 am   BACKBONE|DICT|INTERRES
    95   49   50 1    
    96   49  105 1    
    97   50   51 1    
    98   50   52 1    
    99   50  106 1    
   100   51  107 1    
   101   51  108 1    
   102   51  109 1    
   103   52   53 2    
   104   52   54 am   BACKBONE|DICT|INTERRES
   105   54   55 1    
   106   54  110 1    
   107   55   56 1    
   108   55   59 1    
   109   55  111 1    
   110   56   57 am   BACKBONE|DICT|INTERRES
   111   56   58 2    
   112   57  112 1    
   113   57  113 1    
   114   59   60 1    
   115   59  114 1    
   116   59  115 1    
   117   60   61 1    
   118   61  116 1    
   119   61  117 1    
@<TRIPOS>SUBSTRUCTURE
     1 UNK         1 GROUP             0       ****    0 ROOT    
