@<TRIPOS>MOLECULE
3R8
117   119    1
SMALL
USER_CHARGES


@<TRIPOS>ATOM
      1 CA         20.6687  -32.2458  -47.7150 C.3       0 UNK        -0.2013 
      2 C          19.9249  -30.9220  -47.6160 C.2       0 UNK         0.4866 
      3 O          19.8187  -30.2100  -48.6144 O.2       0 UNK        -0.5176 
      4 N          19.4113  -30.5957  -46.4208 N.am      1 UNK        -0.4884 
      5 CA         18.5928  -29.4095  -46.1165 C.3       1 UNK         0.0853 
      6 C6         17.2014  -29.4259  -46.8098 C.3       10 UNK        -0.0849 
      7 S7         16.1878  -30.8331  -46.2413 S.3       10 UNK        -0.2776 
      8 C8         15.0326  -30.0162  -45.0892 C.3       10 UNK         0.0316 
      9 C9         15.7485  -29.2901  -43.9559 C.ar      10 UNK        -0.0863 
     10 C10        16.4650  -30.0123  -42.9967 C.ar      10 UNK        -0.1009 
     11 C11        17.1195  -29.3500  -41.9537 C.ar      10 UNK        -0.0712 
     12 C12        17.0281  -27.9599  -41.8540 C.ar      10 UNK        -0.0894 
     13 C13        16.3433  -27.2239  -42.8232 C.ar      10 UNK        -0.0745 
     14 C14        15.6992  -27.8947  -43.8680 C.ar      10 UNK        -0.0972 
     15 C15        16.3078  -25.7050  -42.7546 C.3       10 UNK         0.0209 
     16 S16        17.6159  -24.9745  -43.7911 S.3       10 UNK        -0.2568 
     17 C17        18.9752  -24.6718  -42.6054 C.3       10 UNK        -0.0983 
     18 CA         19.9623  -25.8639  -42.4149 C.3       3 UNK         0.0876 
     19 N          20.4029  -26.4949  -43.6616 N.am      3 UNK        -0.4424 
     20 C          21.0997  -25.9340  -44.6602 C.2       2 UNK         0.4918 
     21 O          21.4575  -24.7556  -44.6825 O.2       2 UNK        -0.4875 
     22 CA         21.4652  -26.8524  -45.8449 C.3       2 UNK         0.0481 
     23 CB         22.9478  -27.2513  -45.7706 C.3       2 UNK        -0.1831 
     24 N          20.6342  -28.0623  -45.9060 N.am      2 UNK        -0.4498 
     25 C          19.3567  -28.0810  -46.3178 C.2       1 UNK         0.5027 
     26 O          18.7889  -27.1029  -46.8072 O.2       1 UNK        -0.4969 
     27 C          21.1653  -25.5410  -41.4977 C.2       3 UNK         0.5005 
     28 O          22.2049  -26.1968  -41.6053 O.2       3 UNK        -0.5279 
     29 N          20.9951  -24.5811  -40.5727 N.am      4 UNK        -0.4463 
     30 CA         22.0070  -24.0404  -39.6476 C.3       4 UNK         0.0283 
     31 CB         23.0536  -23.2229  -40.4346 C.3       4 UNK        -0.1875 
     32 C          22.6717  -25.0827  -38.7204 C.2       4 UNK         0.4949 
     33 O          23.7750  -24.8397  -38.2294 O.2       4 UNK        -0.5039 
     34 N          21.9984  -26.2253  -38.5122 N.am      5 UNK        -0.4663 
     35 CA         22.4748  -27.4254  -37.8107 C.3       5 UNK         0.0242 
     36 CB         22.6378  -27.1506  -36.3000 C.3       5 UNK        -0.1982 
     37 C          23.7351  -28.0532  -38.4482 C.2       5 UNK         0.5017 
     38 O          24.5392  -28.6600  -37.7370 O.2       5 UNK        -0.5012 
     39 N          23.8890  -27.9001  -39.7726 N.am      6 UNK        -0.4439 
     40 CA         24.9693  -28.4900  -40.5663 C.3       6 UNK         0.0297 
     41 CB         24.9533  -27.8561  -41.9679 C.3       6 UNK        -0.2006 
     42 C          24.8465  -30.0199  -40.6749 C.2       6 UNK         0.4892 
     43 O          23.7700  -30.5754  -40.4435 O.2       6 UNK        -0.5089 
     44 N          25.9415  -30.6690  -41.0980 N.am      7 UNK        -0.4243 
     45 CA         26.0457  -32.1201  -41.3172 C.3       7 UNK         0.0196 
     46 CB         27.4778  -32.4631  -41.7575 C.3       7 UNK        -0.2007 
     47 C          25.0246  -32.6945  -42.3193 C.2       7 UNK         0.5020 
     48 O          24.6924  -33.8764  -42.2329 O.2       7 UNK        -0.5147 
     49 N          24.5037  -31.8414  -43.2124 N.am      8 UNK        -0.4734 
     50 CA         23.3933  -32.1253  -44.1265 C.3       8 UNK         0.0238 
     51 CB         23.1803  -30.8999  -45.0279 C.3       8 UNK        -0.1912 
     52 C          22.0729  -32.4979  -43.4207 C.2       8 UNK         0.5038 
     53 O          21.2405  -33.1645  -44.0362 O.2       8 UNK        -0.5046 
     54 N          21.9062  -32.0710  -42.1617 N.am      9 UNK        -0.4200 
     55 CA         20.7994  -32.4616  -41.2761 C.3       9 UNK         0.0839 
     56 C          21.0624  -33.7841  -40.4970 C.2       9 UNK         0.5513 
     57 N          22.2050  -34.4456  -40.6449 N.am      9 UNK        -0.7519 
     58 O          20.1981  -34.2335  -39.7488 O.2       9 UNK        -0.4960 
     59 C59        20.4034  -31.3041  -40.3209 C.3       10 UNK        -0.0876 
     60 S60        19.7253  -29.8812  -41.2378 S.3       10 UNK        -0.2414 
     61 C61        17.9453  -30.1311  -40.9470 C.3       10 UNK         0.0169 
     62 H62        21.6998  -32.0769  -48.0240 H         1 UNK         0.0903 
     63 H63        20.6804  -32.7814  -46.7657 H         1 UNK         0.0903 
     64 H64        20.1927  -32.8867  -48.4567 H         1 UNK         0.0903 
     65 H65        19.5247  -31.2433  -45.6521 H         1 UNK         0.3096 
     66 H66        18.4116  -29.4469  -45.0414 H         1 UNK         0.1121 
     67 H67        16.6513  -28.5035  -46.6156 H         1 UNK         0.0849 
     68 H68        17.3089  -29.4834  -47.8939 H         1 UNK         0.0849 
     69 H69        14.3962  -29.3301  -45.6503 H         1 UNK         0.0865 
     70 H70        14.3661  -30.7687  -44.6653 H         1 UNK         0.0865 
     71 H71        16.5251  -31.0895  -43.0752 H         1 UNK         0.1346 
     72 H72        17.5154  -27.4520  -41.0339 H         1 UNK         0.1412 
     73 H73        15.1652  -27.3251  -44.6168 H         1 UNK         0.1426 
     74 H74        16.3943  -25.3589  -41.7238 H         1 UNK         0.0716 
     75 H75        15.3407  -25.3479  -43.1117 H         1 UNK         0.0716 
     76 H76        18.5319  -24.3783  -41.6530 H         1 UNK         0.0695 
     77 H77        19.5171  -23.7955  -42.9660 H         1 UNK         0.0695 
     78 H78        19.4283  -26.6484  -41.8842 H         1 UNK         0.0983 
     79 H79        20.1967  -27.4784  -43.7352 H         1 UNK         0.3095 
     80 H80        21.3147  -26.2844  -46.7654 H         1 UNK         0.0454 
     81 H81        23.1896  -27.7375  -44.8260 H         1 UNK         0.0851 
     82 H82        23.5873  -26.3710  -45.8480 H         1 UNK         0.0851 
     83 H83        23.2251  -27.9235  -46.5827 H         1 UNK         0.0851 
     84 H84        21.0388  -28.9192  -45.5598 H         1 UNK         0.2976 
     85 H85        20.0931  -24.1267  -40.5287 H         1 UNK         0.3116 
     86 H86        21.4780  -23.3508  -38.9881 H         1 UNK         0.0646 
     87 H87        23.6646  -23.8619  -41.0734 H         1 UNK         0.0847 
     88 H88        23.7297  -22.6935  -39.7622 H         1 UNK         0.0847 
     89 H89        22.5792  -22.4729  -41.0672 H         1 UNK         0.0847 
     90 H90        21.0999  -26.3143  -38.9651 H         1 UNK         0.3040 
     91 H91        21.6891  -28.1744  -37.9235 H         1 UNK         0.1015 
     92 H92        23.4601  -26.4633  -36.0992 H         1 UNK         0.0786 
     93 H93        22.8453  -28.0720  -35.7544 H         1 UNK         0.0786 
     94 H94        21.7305  -26.7223  -35.8742 H         1 UNK         0.0786 
     95 H95        23.1909  -27.3724  -40.2892 H         1 UNK         0.3172 
     96 H96        25.9179  -28.2519  -40.0809 H         1 UNK         0.0595 
     97 H97        25.7848  -28.2102  -42.5782 H         1 UNK         0.0839 
     98 H98        25.0359  -26.7702  -41.9124 H         1 UNK         0.0839 
     99 H99        24.0312  -28.0901  -42.5015 H         1 UNK         0.0839 
    100 H100       26.7778  -30.1310  -41.2765 H         1 UNK         0.2998 
    101 H101       25.8557  -32.6057  -40.3577 H         1 UNK         0.0822 
    102 H102       27.5951  -33.5383  -41.9022 H         1 UNK         0.0787 
    103 H103       27.7379  -31.9776  -42.6990 H         1 UNK         0.0787 
    104 H104       28.2085  -32.1589  -41.0078 H         1 UNK         0.0787 
    105 H105       24.8500  -30.8936  -43.2047 H         1 UNK         0.3055 
    106 H106       23.6812  -32.9757  -44.7484 H         1 UNK         0.1106 
    107 H107       22.3983  -31.0855  -45.7622 H         1 UNK         0.0828 
    108 H108       22.8820  -30.0295  -44.4441 H         1 UNK         0.0828 
    109 H109       24.0852  -30.6456  -45.5802 H         1 UNK         0.0828 
    110 H110       22.6423  -31.5290  -41.7185 H         1 UNK         0.2931 
    111 H111       19.9260  -32.6724  -41.8965 H         1 UNK         0.0412 
    112 H112       22.9341  -34.1132  -41.2654 H         1 UNK         0.3472 
    113 H113       22.3419  -35.3022  -40.1323 H         1 UNK         0.3472 
    114 H114       21.2661  -30.9702  -39.7427 H         1 UNK         0.0970 
    115 H115       19.6661  -31.6324  -39.5859 H         1 UNK         0.0970 
    116 H116       17.7108  -31.1949  -41.0132 H         1 UNK         0.0612 
    117 H117       17.6941  -29.8170  -39.9329 H         1 UNK         0.0612 
@<TRIPOS>BOND
     1    1    2 1    
     2    1   62 1    
     3    1   63 1    
     4    1   64 1    
     5    2    3 2    
     6    2    4 am   BACKBONE|DICT|INTERRES
     7    4    5 1    
     8    4   65 1    
     9    5    6 1    
    10    5   25 1    
    11    5   66 1    
    12    6    7 1    
    13    6   67 1    
    14    6   68 1    
    15    7    8 1    
    16    8    9 1    
    17    8   69 1    
    18    8   70 1    
    19    9   10 ar   
    20    9   14 ar   
    21   10   11 ar   
    22   10   71 1    
    23   11   12 ar   
    24   11   61 1    
    25   12   13 ar   
    26   12   72 1    
    27   13   14 ar   
    28   13   15 1    
    29   14   73 1    
    30   15   16 1    
    31   15   74 1    
    32   15   75 1    
    33   16   17 1    
    34   17   18 1    
    35   17   76 1    
    36   17   77 1    
    37   18   19 1    
    38   18   27 1    
    39   18   78 1    
    40   19   20 am   BACKBONE|DICT|INTERRES
    41   19   79 1    
    42   20   21 2    
    43   20   22 1    
    44   22   23 1    
    45   22   24 1    
    46   22   80 1    
    47   23   81 1    
    48   23   82 1    
    49   23   83 1    
    50   24   25 am   BACKBONE|DICT|INTERRES
    51   24   84 1    
    52   25   26 2    
    53   27   28 2    
    54   27   29 am   BACKBONE|DICT|INTERRES
    55   29   30 1    
    56   29   85 1    
    57   30   31 1    
    58   30   32 1    
    59   30   86 1    
    60   31   87 1    
    61   31   88 1    
    62   31   89 1    
    63   32   33 2    
    64   32   34 am   BACKBONE|DICT|INTERRES
    65   34   35 1    
    66   34   90 1    
    67   35   36 1    
    68   35   37 1    
    69   35   91 1    
    70   36   92 1    
    71   36   93 1    
    72   36   94 1    
    73   37   38 2    
    74   37   39 am   BACKBONE|DICT|INTERRES
    75   39   40 1    
    76   39   95 1    
    77   40   41 1    
    78   40   42 1    
    79   40   96 1    
    80   41   97 1    
    81   41   98 1    
    82   41   99 1    
    83   42   43 2    
    84   42   44 am   BACKBONE|DICT|INTERRES
    85   44   45 1    
    86   44  100 1    
    87   45   46 1    
    88   45   47 1    
    89   45  101 1    
    90   46  102 1    
    91   46  103 1    
    92   46  104 1    
    93   47   48 2    
    94   47   49 am   BACKBONE|DICT|INTERRES
    95   49   50 1    
    96   49  105 1    
    97   50   51 1    
    98   50   52 1    
    99   50  106 1    
   100   51  107 1    
   101   51  108 1    
   102   51  109 1    
   103   52   53 2    
   104   52   54 am   BACKBONE|DICT|INTERRES
   105   54   55 1    
   106   54  110 1    
   107   55   56 1    
   108   55   59 1    
   109   55  111 1    
   110   56   57 am   BACKBONE|DICT|INTERRES
   111   56   58 2    
   112   57  112 1    
   113   57  113 1    
   114   59   60 1    
   115   59  114 1    
   116   59  115 1    
   117   60   61 1    
   118   61  116 1    
   119   61  117 1    
@<TRIPOS>SUBSTRUCTURE
     1 UNK         1 GROUP             0       ****    0 ROOT    
