@<TRIPOS>MOLECULE
3R8
117   119    1
SMALL
USER_CHARGES


@<TRIPOS>ATOM
      1 CA         15.2876  -21.7444  -42.0305 C.3       0 UNK        -0.2013 
      2 C          15.7350  -22.5855  -43.2167 C.2       0 UNK         0.4866 
      3 O          15.9282  -22.0505  -44.3089 O.2       0 UNK        -0.5176 
      4 N          15.8951  -23.8996  -43.0146 N.am      1 UNK        -0.4884 
      5 CA         16.3834  -24.8450  -44.0207 C.3       1 UNK         0.0853 
      6 C6         16.0076  -26.2995  -43.6411 C.3       10 UNK        -0.0849 
      7 S7         16.1636  -27.4428  -45.0500 S.3       10 UNK        -0.2776 
      8 C8         15.8305  -29.0649  -44.2705 C.3       10 UNK         0.0316 
      9 C9         17.0040  -30.0287  -44.4181 C.ar      10 UNK        -0.0863 
     10 C10        17.4782  -30.7578  -43.3218 C.ar      10 UNK        -0.1009 
     11 C11        18.5717  -31.6228  -43.4578 C.ar      10 UNK        -0.0712 
     12 C12        19.1960  -31.7469  -44.7047 C.ar      10 UNK        -0.0894 
     13 C13        18.7158  -31.0438  -45.8131 C.ar      10 UNK        -0.0745 
     14 C14        17.6043  -30.2124  -45.6656 C.ar      10 UNK        -0.0972 
     15 C15        19.3738  -31.1937  -47.1788 C.3       10 UNK         0.0209 
     16 S16        20.8355  -30.1213  -47.3848 S.3       10 UNK        -0.2568 
     17 C17        20.1390  -28.4370  -47.2097 C.3       10 UNK        -0.0983 
     18 CA         20.8234  -27.5116  -46.1651 C.3       3 UNK         0.0876 
     19 N          20.1138  -26.2307  -46.0976 N.am      3 UNK        -0.4424 
     20 C          20.6631  -25.0657  -45.7328 C.2       2 UNK         0.4918 
     21 O          21.8500  -24.9296  -45.4364 O.2       2 UNK        -0.4875 
     22 CA         19.7274  -23.8432  -45.6868 C.3       2 UNK         0.0481 
     23 CB         19.7891  -23.0739  -47.0159 C.3       2 UNK        -0.1831 
     24 N          18.3281  -24.1654  -45.3763 N.am      2 UNK        -0.4498 
     25 C          17.9044  -24.6575  -44.2031 C.2       1 UNK         0.5027 
     26 O          18.6623  -24.9502  -43.2773 O.2       1 UNK        -0.4969 
     27 C          21.0203  -28.1408  -44.7615 C.2       3 UNK         0.5005 
     28 O          21.9156  -28.9728  -44.5997 O.2       3 UNK        -0.5279 
     29 N          20.2489  -27.7069  -43.7499 N.am      4 UNK        -0.4463 
     30 CA         20.3175  -28.1961  -42.3676 C.3       4 UNK         0.0283 
     31 CB         18.9881  -27.9050  -41.6492 C.3       4 UNK        -0.1875 
     32 C          21.5328  -27.6508  -41.5893 C.2       4 UNK         0.4949 
     33 O          21.3749  -27.0494  -40.5251 O.2       4 UNK        -0.5039 
     34 N          22.7322  -27.8742  -42.1345 N.am      5 UNK        -0.4663 
     35 CA         24.0140  -27.6703  -41.4627 C.3       5 UNK         0.0242 
     36 CB         25.1248  -27.6354  -42.5249 C.3       5 UNK        -0.1982 
     37 C          24.2689  -28.8046  -40.4583 C.2       5 UNK         0.5017 
     38 O          23.7434  -29.9042  -40.6423 O.2       5 UNK        -0.5012 
     39 N          25.1167  -28.5440  -39.4531 N.am      6 UNK        -0.4439 
     40 CA         25.4504  -29.4699  -38.3592 C.3       6 UNK         0.0297 
     41 CB         26.4396  -28.7864  -37.4011 C.3       6 UNK        -0.2006 
     42 C          25.9981  -30.8413  -38.8028 C.2       6 UNK         0.4892 
     43 O          25.8035  -31.8272  -38.0912 O.2       6 UNK        -0.5089 
     44 N          26.6551  -30.8827  -39.9700 N.am      7 UNK        -0.4243 
     45 CA         27.1375  -32.1066  -40.6119 C.3       7 UNK         0.0196 
     46 CB         28.1935  -31.7337  -41.6654 C.3       7 UNK        -0.2007 
     47 C          26.0157  -32.9466  -41.2532 C.2       7 UNK         0.5020 
     48 O          26.2076  -34.1490  -41.4365 O.2       7 UNK        -0.5147 
     49 N          24.8846  -32.3165  -41.5993 N.am      8 UNK        -0.4734 
     50 CA         23.7223  -32.9680  -42.2033 C.3       8 UNK         0.0238 
     51 CB         23.0671  -32.0236  -43.2271 C.3       8 UNK        -0.1912 
     52 C          22.7097  -33.3935  -41.1326 C.2       8 UNK         0.5038 
     53 O          22.2460  -34.5341  -41.1700 O.2       8 UNK        -0.5046 
     54 N          22.3872  -32.4859  -40.2031 N.am      9 UNK        -0.4200 
     55 CA         21.4065  -32.6964  -39.1307 C.3       9 UNK         0.0839 
     56 C          21.5350  -31.6343  -38.0096 C.2       9 UNK         0.5513 
     57 N          21.1103  -31.9657  -36.7974 N.am      9 UNK        -0.7519 
     58 O          21.9870  -30.5133  -38.2206 O.2       9 UNK        -0.4960 
     59 C59        19.9432  -32.8339  -39.6472 C.3       10 UNK        -0.0876 
     60 S60        19.4051  -31.5037  -40.7828 S.3       10 UNK        -0.2414 
     61 C61        19.0456  -32.4725  -42.2831 C.3       10 UNK         0.0169 
     62 H62        16.0327  -20.9803  -41.8106 H         1 UNK         0.0903 
     63 H63        14.3456  -21.2462  -42.2581 H         1 UNK         0.0903 
     64 H64        15.1444  -22.3466  -41.1335 H         1 UNK         0.0903 
     65 H65        15.7543  -24.2783  -42.0884 H         1 UNK         0.3096 
     66 H66        15.8847  -24.6077  -44.9638 H         1 UNK         0.1121 
     67 H67        16.6007  -26.6568  -42.7990 H         1 UNK         0.0849 
     68 H68        14.9673  -26.3379  -43.3131 H         1 UNK         0.0849 
     69 H69        15.5763  -28.9281  -43.2183 H         1 UNK         0.0865 
     70 H70        14.9521  -29.5077  -44.7417 H         1 UNK         0.0865 
     71 H71        16.9980  -30.6559  -42.3582 H         1 UNK         0.1346 
     72 H72        20.0438  -32.4070  -44.8229 H         1 UNK         0.1412 
     73 H73        17.2142  -29.6839  -46.5244 H         1 UNK         0.1426 
     74 H74        18.6581  -30.9761  -47.9733 H         1 UNK         0.0716 
     75 H75        19.6783  -32.2312  -47.3238 H         1 UNK         0.0716 
     76 H76        19.0732  -28.4959  -47.0051 H         1 UNK         0.0695 
     77 H77        20.2074  -27.9676  -48.1923 H         1 UNK         0.0695 
     78 H78        21.8315  -27.3133  -46.5368 H         1 UNK         0.0983 
     79 H79        19.1309  -26.2455  -46.3277 H         1 UNK         0.3095 
     80 H80        20.0954  -23.1829  -44.8987 H         1 UNK         0.0454 
     81 H81        20.8158  -22.7959  -47.2587 H         1 UNK         0.0851 
     82 H82        19.2100  -22.1515  -46.9685 H         1 UNK         0.0851 
     83 H83        19.4081  -23.6687  -47.8469 H         1 UNK         0.0851 
     84 H84        17.6423  -23.9244  -46.0783 H         1 UNK         0.2976 
     85 H85        19.6012  -26.9494  -43.9208 H         1 UNK         0.3116 
     86 H86        20.4332  -29.2808  -42.4077 H         1 UNK         0.0646 
     87 H87        18.1422  -28.3083  -42.2014 H         1 UNK         0.0847 
     88 H88        18.8261  -26.8368  -41.5086 H         1 UNK         0.0847 
     89 H89        18.9750  -28.3660  -40.6609 H         1 UNK         0.0847 
     90 H90        22.7439  -28.3925  -43.0099 H         1 UNK         0.3040 
     91 H91        23.9895  -26.7172  -40.9297 H         1 UNK         0.1015 
     92 H92        26.0997  -27.4527  -42.0713 H         1 UNK         0.0786 
     93 H93        24.9526  -26.8399  -43.2504 H         1 UNK         0.0786 
     94 H94        25.1891  -28.5774  -43.0721 H         1 UNK         0.0786 
     95 H95        25.5236  -27.6210  -39.3954 H         1 UNK         0.3172 
     96 H96        24.5267  -29.6595  -37.8097 H         1 UNK         0.0595 
     97 H97        27.3750  -28.5305  -37.9004 H         1 UNK         0.0839 
     98 H98        26.6867  -29.4405  -36.5634 H         1 UNK         0.0839 
     99 H99        26.0203  -27.8725  -36.9801 H         1 UNK         0.0839 
    100 H100       26.7745  -30.0201  -40.4805 H         1 UNK         0.2998 
    101 H101       27.6176  -32.7275  -39.8521 H         1 UNK         0.0822 
    102 H102       29.0317  -31.2003  -41.2166 H         1 UNK         0.0787 
    103 H103       28.5990  -32.6263  -42.1441 H         1 UNK         0.0787 
    104 H104       27.7750  -31.1042  -42.4518 H         1 UNK         0.0787 
    105 H105       24.7583  -31.3433  -41.3355 H         1 UNK         0.3055 
    106 H106       24.0418  -33.8659  -42.7374 H         1 UNK         0.1106 
    107 H107       23.7767  -31.7102  -43.9926 H         1 UNK         0.0828 
    108 H108       22.2410  -32.5191  -43.7371 H         1 UNK         0.0828 
    109 H109       22.6628  -31.1239  -42.7613 H         1 UNK         0.0828 
    110 H110       22.8055  -31.5582  -40.2302 H         1 UNK         0.2931 
    111 H111       21.6767  -33.6456  -38.6628 H         1 UNK         0.0412 
    112 H112       20.7328  -32.8809  -36.6061 H         1 UNK         0.3472 
    113 H113       21.1746  -31.2859  -36.0557 H         1 UNK         0.3472 
    114 H114       19.8328  -33.7967  -40.1474 H         1 UNK         0.0970 
    115 H115       19.2410  -32.8744  -38.8126 H         1 UNK         0.0970 
    116 H116       18.2737  -33.2081  -42.0539 H         1 UNK         0.0612 
    117 H117       19.9403  -33.0346  -42.5547 H         1 UNK         0.0612 
@<TRIPOS>BOND
     1    1    2 1    
     2    1   62 1    
     3    1   63 1    
     4    1   64 1    
     5    2    3 2    
     6    2    4 am   BACKBONE|DICT|INTERRES
     7    4    5 1    
     8    4   65 1    
     9    5    6 1    
    10    5   25 1    
    11    5   66 1    
    12    6    7 1    
    13    6   67 1    
    14    6   68 1    
    15    7    8 1    
    16    8    9 1    
    17    8   69 1    
    18    8   70 1    
    19    9   10 ar   
    20    9   14 ar   
    21   10   11 ar   
    22   10   71 1    
    23   11   12 ar   
    24   11   61 1    
    25   12   13 ar   
    26   12   72 1    
    27   13   14 ar   
    28   13   15 1    
    29   14   73 1    
    30   15   16 1    
    31   15   74 1    
    32   15   75 1    
    33   16   17 1    
    34   17   18 1    
    35   17   76 1    
    36   17   77 1    
    37   18   19 1    
    38   18   27 1    
    39   18   78 1    
    40   19   20 am   BACKBONE|DICT|INTERRES
    41   19   79 1    
    42   20   21 2    
    43   20   22 1    
    44   22   23 1    
    45   22   24 1    
    46   22   80 1    
    47   23   81 1    
    48   23   82 1    
    49   23   83 1    
    50   24   25 am   BACKBONE|DICT|INTERRES
    51   24   84 1    
    52   25   26 2    
    53   27   28 2    
    54   27   29 am   BACKBONE|DICT|INTERRES
    55   29   30 1    
    56   29   85 1    
    57   30   31 1    
    58   30   32 1    
    59   30   86 1    
    60   31   87 1    
    61   31   88 1    
    62   31   89 1    
    63   32   33 2    
    64   32   34 am   BACKBONE|DICT|INTERRES
    65   34   35 1    
    66   34   90 1    
    67   35   36 1    
    68   35   37 1    
    69   35   91 1    
    70   36   92 1    
    71   36   93 1    
    72   36   94 1    
    73   37   38 2    
    74   37   39 am   BACKBONE|DICT|INTERRES
    75   39   40 1    
    76   39   95 1    
    77   40   41 1    
    78   40   42 1    
    79   40   96 1    
    80   41   97 1    
    81   41   98 1    
    82   41   99 1    
    83   42   43 2    
    84   42   44 am   BACKBONE|DICT|INTERRES
    85   44   45 1    
    86   44  100 1    
    87   45   46 1    
    88   45   47 1    
    89   45  101 1    
    90   46  102 1    
    91   46  103 1    
    92   46  104 1    
    93   47   48 2    
    94   47   49 am   BACKBONE|DICT|INTERRES
    95   49   50 1    
    96   49  105 1    
    97   50   51 1    
    98   50   52 1    
    99   50  106 1    
   100   51  107 1    
   101   51  108 1    
   102   51  109 1    
   103   52   53 2    
   104   52   54 am   BACKBONE|DICT|INTERRES
   105   54   55 1    
   106   54  110 1    
   107   55   56 1    
   108   55   59 1    
   109   55  111 1    
   110   56   57 am   BACKBONE|DICT|INTERRES
   111   56   58 2    
   112   57  112 1    
   113   57  113 1    
   114   59   60 1    
   115   59  114 1    
   116   59  115 1    
   117   60   61 1    
   118   61  116 1    
   119   61  117 1    
@<TRIPOS>SUBSTRUCTURE
     1 UNK         1 GROUP             0       ****    0 ROOT    
