@<TRIPOS>MOLECULE
3R8
117   119    1
SMALL
USER_CHARGES


@<TRIPOS>ATOM
      1 CA         16.7484  -26.8538  -38.7907 C.3       0 UNK        -0.2013 
      2 C          16.4065  -26.5123  -40.2333 C.2       0 UNK         0.4866 
      3 O          15.6029  -25.6120  -40.4779 O.2       0 UNK        -0.5176 
      4 N          17.0182  -27.2206  -41.1883 N.am      1 UNK        -0.4884 
      5 CA         16.8954  -26.9703  -42.6292 C.3       1 UNK         0.0853 
      6 C6         17.1277  -28.2514  -43.4631 C.3       10 UNK        -0.0849 
      7 S7         16.0179  -29.6321  -43.0122 S.3       10 UNK        -0.2776 
      8 C8         16.0075  -30.6275  -44.5429 C.3       10 UNK         0.0316 
      9 C9         17.4151  -30.8721  -45.0681 C.ar      10 UNK        -0.0863 
     10 C10        18.2598  -31.7878  -44.4347 C.ar      10 UNK        -0.1009 
     11 C11        19.5815  -31.9439  -44.8639 C.ar      10 UNK        -0.0712 
     12 C12        20.0541  -31.1877  -45.9396 C.ar      10 UNK        -0.0894 
     13 C13        19.2186  -30.2628  -46.5715 C.ar      10 UNK        -0.0745 
     14 C14        17.8942  -30.1284  -46.1499 C.ar      10 UNK        -0.0972 
     15 C15        19.7582  -29.3532  -47.6621 C.3       10 UNK         0.0209 
     16 S16        20.0660  -27.6789  -47.0123 S.3       10 UNK        -0.2568 
     17 C17        21.4805  -27.9869  -45.9052 C.3       10 UNK        -0.0983 
     18 CA         21.9552  -26.6897  -45.2111 C.3       3 UNK         0.0876 
     19 N          21.0044  -26.2254  -44.1959 N.am      3 UNK        -0.4424 
     20 C          20.9590  -24.9724  -43.7233 C.2       2 UNK         0.4918 
     21 O          21.6340  -24.0512  -44.1861 O.2       2 UNK        -0.4875 
     22 CA         20.0463  -24.7038  -42.5087 C.3       2 UNK         0.0481 
     23 CB         19.5029  -23.2595  -42.4744 C.3       2 UNK        -0.1831 
     24 N          18.9720  -25.6882  -42.3292 N.am      2 UNK        -0.4498 
     25 C          17.8748  -25.8666  -43.0841 C.2       1 UNK         0.5027 
     26 O          17.6187  -25.2130  -44.0956 O.2       1 UNK        -0.4969 
     27 C          23.3436  -26.8946  -44.5745 C.2       3 UNK         0.5005 
     28 O          23.4378  -27.3083  -43.4156 O.2       3 UNK        -0.5279 
     29 N          24.3979  -26.6418  -45.3615 N.am      4 UNK        -0.4463 
     30 CA         25.8066  -26.6427  -44.9446 C.3       4 UNK         0.0283 
     31 CB         26.6636  -26.1064  -46.1043 C.3       4 UNK        -0.1875 
     32 C          26.3662  -27.9895  -44.4420 C.2       4 UNK         0.4949 
     33 O          27.4747  -28.0021  -43.9061 O.2       4 UNK        -0.5039 
     34 N          25.6182  -29.0877  -44.6237 N.am      5 UNK        -0.4663 
     35 CA         25.9553  -30.4301  -44.1449 C.3       5 UNK         0.0242 
     36 CB         24.9166  -31.4391  -44.6627 C.3       5 UNK        -0.1982 
     37 C          26.0949  -30.5004  -42.6135 C.2       5 UNK         0.5017 
     38 O          27.1448  -30.9258  -42.1297 O.2       5 UNK        -0.5012 
     39 N          25.0574  -30.0559  -41.8883 N.am      6 UNK        -0.4439 
     40 CA         25.0451  -29.9607  -40.4218 C.3       6 UNK         0.0297 
     41 CB         25.0386  -31.3626  -39.7684 C.3       6 UNK        -0.2006 
     42 C          23.8853  -29.1054  -39.8765 C.2       6 UNK         0.4892 
     43 O          23.5967  -29.2070  -38.6827 O.2       6 UNK        -0.5089 
     44 N          23.2155  -28.3079  -40.7257 N.am      7 UNK        -0.4243 
     45 CA         22.0358  -27.4698  -40.4537 C.3       7 UNK         0.0196 
     46 CB         22.3415  -26.3610  -39.4289 C.3       7 UNK        -0.2007 
     47 C          20.7554  -28.2364  -40.0767 C.2       7 UNK         0.5020 
     48 O          19.7066  -27.9653  -40.6595 O.2       7 UNK        -0.5147 
     49 N          20.8522  -29.1639  -39.1215 N.am      8 UNK        -0.4734 
     50 CA         19.7570  -29.9782  -38.5922 C.3       8 UNK         0.0238 
     51 CB         19.5266  -29.6069  -37.1152 C.3       8 UNK        -0.1912 
     52 C          20.0385  -31.4777  -38.7920 C.2       8 UNK         0.5038 
     53 O          19.7011  -32.2891  -37.9276 O.2       8 UNK        -0.5046 
     54 N          20.6553  -31.8183  -39.9296 N.am      9 UNK        -0.4200 
     55 CA         20.8535  -33.1898  -40.4213 C.3       9 UNK         0.0839 
     56 C          19.5200  -33.9363  -40.7139 C.2       9 UNK         0.5513 
     57 N          19.5367  -35.2618  -40.6748 N.am      9 UNK        -0.7519 
     58 O          18.4879  -33.3370  -41.0083 O.2       9 UNK        -0.4960 
     59 C59        21.8165  -33.2297  -41.6433 C.3       10 UNK        -0.0876 
     60 S60        21.4790  -31.9438  -42.8950 S.3       10 UNK        -0.2414 
     61 C61        20.5173  -32.8792  -44.1213 C.3       10 UNK         0.0169 
     62 H62        15.8610  -27.2098  -38.2682 H         1 UNK         0.0903 
     63 H63        17.5140  -27.6264  -38.7266 H         1 UNK         0.0903 
     64 H64        17.1185  -25.9693  -38.2732 H         1 UNK         0.0903 
     65 H65        17.7257  -27.9006  -40.9278 H         1 UNK         0.3096 
     66 H66        15.8854  -26.6108  -42.8398 H         1 UNK         0.1121 
     67 H67        16.9847  -28.0246  -44.5212 H         1 UNK         0.0849 
     68 H68        18.1575  -28.6008  -43.3585 H         1 UNK         0.0849 
     69 H69        15.5176  -31.5822  -44.3462 H         1 UNK         0.0865 
     70 H70        15.3988  -30.1213  -45.2939 H         1 UNK         0.0865 
     71 H71        17.9018  -32.3451  -43.5791 H         1 UNK         0.1346 
     72 H72        21.0857  -31.2844  -46.2496 H         1 UNK         0.1412 
     73 H73        17.2556  -29.3989  -46.6294 H         1 UNK         0.1426 
     74 H74        19.0365  -29.2923  -48.4780 H         1 UNK         0.0716 
     75 H75        20.6767  -29.7565  -48.0914 H         1 UNK         0.0716 
     76 H76        21.2092  -28.7385  -45.1617 H         1 UNK         0.0695 
     77 H77        22.2769  -28.4231  -46.5118 H         1 UNK         0.0695 
     78 H78        22.0503  -25.9093  -45.9702 H         1 UNK         0.0983 
     79 H79        20.4399  -26.9325  -43.7516 H         1 UNK         0.3095 
     80 H80        20.6877  -24.8172  -41.6344 H         1 UNK         0.0454 
     81 H81        20.3175  -22.5365  -42.4187 H         1 UNK         0.0851 
     82 H82        18.8670  -23.0943  -41.6049 H         1 UNK         0.0851 
     83 H83        18.9228  -23.0214  -43.3662 H         1 UNK         0.0851 
     84 H84        19.0977  -26.3339  -41.5543 H         1 UNK         0.2976 
     85 H85        24.2237  -26.3448  -46.3116 H         1 UNK         0.3116 
     86 H86        25.8931  -25.9432  -44.1106 H         1 UNK         0.0646 
     87 H87        26.6025  -26.7509  -46.9822 H         1 UNK         0.0847 
     88 H88        26.3543  -25.1035  -46.3992 H         1 UNK         0.0847 
     89 H89        27.7153  -26.0441  -45.8206 H         1 UNK         0.0847 
     90 H90        24.7230  -28.9734  -45.0743 H         1 UNK         0.3040 
     91 H91        26.9256  -30.6973  -44.5698 H         1 UNK         0.1015 
     92 H92        25.1080  -32.4383  -44.2686 H         1 UNK         0.0786 
     93 H93        24.9446  -31.5109  -45.7501 H         1 UNK         0.0786 
     94 H94        23.9028  -31.1625  -44.3748 H         1 UNK         0.0786 
     95 H95        24.2332  -29.7380  -42.3781 H         1 UNK         0.3172 
     96 H96        25.9622  -29.4498  -40.1218 H         1 UNK         0.0595 
     97 H97        24.0837  -31.8642  -39.9120 H         1 UNK         0.0839 
     98 H98        25.1992  -31.2894  -38.6920 H         1 UNK         0.0839 
     99 H99        25.8226  -32.0121  -40.1552 H         1 UNK         0.0839 
    100 H100       23.5449  -28.2133  -41.6817 H         1 UNK         0.2998 
    101 H101       21.8177  -26.9748  -41.3992 H         1 UNK         0.0822 
    102 H102       21.4840  -25.6982  -39.3049 H         1 UNK         0.0787 
    103 H103       23.1817  -25.7466  -39.7522 H         1 UNK         0.0787 
    104 H104       22.5803  -26.7648  -38.4448 H         1 UNK         0.0787 
    105 H105       21.7787  -29.3242  -38.7275 H         1 UNK         0.3055 
    106 H106       18.8349  -29.7731  -39.1401 H         1 UNK         0.1106 
    107 H107       19.3173  -28.5431  -37.0022 H         1 UNK         0.0828 
    108 H108       18.6750  -30.1481  -36.7008 H         1 UNK         0.0828 
    109 H109       20.3966  -29.8437  -36.5018 H         1 UNK         0.0828 
    110 H110       20.8674  -31.0886  -40.5940 H         1 UNK         0.2931 
    111 H111       21.3402  -33.7353  -39.6101 H         1 UNK         0.0412 
    112 H112       18.6869  -35.7672  -40.8726 H         1 UNK         0.3472 
    113 H113       20.3753  -35.7688  -40.4371 H         1 UNK         0.3472 
    114 H114       22.8389  -33.0798  -41.3013 H         1 UNK         0.0970 
    115 H115       21.8270  -34.2149  -42.1137 H         1 UNK         0.0970 
    116 H116       19.9422  -33.6669  -43.6330 H         1 UNK         0.0612 
    117 H117       21.1970  -33.3739  -44.8166 H         1 UNK         0.0612 
@<TRIPOS>BOND
     1    1    2 1    
     2    1   62 1    
     3    1   63 1    
     4    1   64 1    
     5    2    3 2    
     6    2    4 am   BACKBONE|DICT|INTERRES
     7    4    5 1    
     8    4   65 1    
     9    5    6 1    
    10    5   25 1    
    11    5   66 1    
    12    6    7 1    
    13    6   67 1    
    14    6   68 1    
    15    7    8 1    
    16    8    9 1    
    17    8   69 1    
    18    8   70 1    
    19    9   10 ar   
    20    9   14 ar   
    21   10   11 ar   
    22   10   71 1    
    23   11   12 ar   
    24   11   61 1    
    25   12   13 ar   
    26   12   72 1    
    27   13   14 ar   
    28   13   15 1    
    29   14   73 1    
    30   15   16 1    
    31   15   74 1    
    32   15   75 1    
    33   16   17 1    
    34   17   18 1    
    35   17   76 1    
    36   17   77 1    
    37   18   19 1    
    38   18   27 1    
    39   18   78 1    
    40   19   20 am   BACKBONE|DICT|INTERRES
    41   19   79 1    
    42   20   21 2    
    43   20   22 1    
    44   22   23 1    
    45   22   24 1    
    46   22   80 1    
    47   23   81 1    
    48   23   82 1    
    49   23   83 1    
    50   24   25 am   BACKBONE|DICT|INTERRES
    51   24   84 1    
    52   25   26 2    
    53   27   28 2    
    54   27   29 am   BACKBONE|DICT|INTERRES
    55   29   30 1    
    56   29   85 1    
    57   30   31 1    
    58   30   32 1    
    59   30   86 1    
    60   31   87 1    
    61   31   88 1    
    62   31   89 1    
    63   32   33 2    
    64   32   34 am   BACKBONE|DICT|INTERRES
    65   34   35 1    
    66   34   90 1    
    67   35   36 1    
    68   35   37 1    
    69   35   91 1    
    70   36   92 1    
    71   36   93 1    
    72   36   94 1    
    73   37   38 2    
    74   37   39 am   BACKBONE|DICT|INTERRES
    75   39   40 1    
    76   39   95 1    
    77   40   41 1    
    78   40   42 1    
    79   40   96 1    
    80   41   97 1    
    81   41   98 1    
    82   41   99 1    
    83   42   43 2    
    84   42   44 am   BACKBONE|DICT|INTERRES
    85   44   45 1    
    86   44  100 1    
    87   45   46 1    
    88   45   47 1    
    89   45  101 1    
    90   46  102 1    
    91   46  103 1    
    92   46  104 1    
    93   47   48 2    
    94   47   49 am   BACKBONE|DICT|INTERRES
    95   49   50 1    
    96   49  105 1    
    97   50   51 1    
    98   50   52 1    
    99   50  106 1    
   100   51  107 1    
   101   51  108 1    
   102   51  109 1    
   103   52   53 2    
   104   52   54 am   BACKBONE|DICT|INTERRES
   105   54   55 1    
   106   54  110 1    
   107   55   56 1    
   108   55   59 1    
   109   55  111 1    
   110   56   57 am   BACKBONE|DICT|INTERRES
   111   56   58 2    
   112   57  112 1    
   113   57  113 1    
   114   59   60 1    
   115   59  114 1    
   116   59  115 1    
   117   60   61 1    
   118   61  116 1    
   119   61  117 1    
@<TRIPOS>SUBSTRUCTURE
     1 UNK         1 GROUP             0       ****    0 ROOT    
