@<TRIPOS>MOLECULE
3R8
117   119    1
SMALL
USER_CHARGES


@<TRIPOS>ATOM
      1 CA         18.7425  -22.9546  -49.4238 C.3       0 UNK        -0.2013 
      2 C          19.4934  -23.6747  -48.3135 C.2       0 UNK         0.4866 
      3 O          20.5742  -23.2351  -47.9191 O.2       0 UNK        -0.5176 
      4 N          18.9348  -24.7827  -47.8123 N.am      1 UNK        -0.4884 
      5 CA         19.4710  -25.5586  -46.6899 C.3       1 UNK         0.0853 
      6 C6         18.8777  -26.9946  -46.6540 C.3       10 UNK        -0.0849 
      7 S7         17.0523  -27.0389  -46.5641 S.3       10 UNK        -0.2776 
      8 C8         16.7073  -28.8070  -46.8262 C.3       10 UNK         0.0316 
      9 C9         16.9610  -29.6516  -45.5831 C.ar      10 UNK        -0.0863 
     10 C10        17.8614  -30.7213  -45.6286 C.ar      10 UNK        -0.1009 
     11 C11        18.0331  -31.5542  -44.5182 C.ar      10 UNK        -0.0712 
     12 C12        17.2958  -31.3085  -43.3567 C.ar      10 UNK        -0.0894 
     13 C13        16.4287  -30.2151  -43.2804 C.ar      10 UNK        -0.0745 
     14 C14        16.2551  -29.3980  -44.4015 C.ar      10 UNK        -0.0972 
     15 C15        15.6883  -29.9190  -41.9831 C.3       10 UNK         0.0209 
     16 S16        16.8348  -29.6065  -40.5980 S.3       10 UNK        -0.2568 
     17 C17        17.5763  -28.0011  -41.0552 C.3       10 UNK        -0.0983 
     18 CA         18.8718  -28.1204  -41.9104 C.3       3 UNK         0.0876 
     19 N          19.1948  -26.8768  -42.6138 N.am      3 UNK        -0.4424 
     20 C          19.5895  -25.7225  -42.0545 C.2       2 UNK         0.4918 
     21 O          19.6173  -25.5305  -40.8384 O.2       2 UNK        -0.4875 
     22 CA         20.0658  -24.6037  -43.0032 C.3       2 UNK         0.0481 
     23 CB         21.4297  -24.0455  -42.5585 C.3       2 UNK        -0.1831 
     24 N          20.1681  -25.0702  -44.3919 N.am      2 UNK        -0.4498 
     25 C          19.2635  -24.8212  -45.3479 C.2       1 UNK         0.5027 
     26 O          18.2818  -24.0899  -45.1894 O.2       1 UNK        -0.4969 
     27 C          20.1267  -28.6485  -41.1787 C.2       3 UNK         0.5005 
     28 O          21.2165  -28.5907  -41.7529 O.2       3 UNK        -0.5279 
     29 N          19.9821  -29.1397  -39.9405 N.am      4 UNK        -0.4463 
     30 CA         21.0552  -29.7167  -39.1201 C.3       4 UNK         0.0283 
     31 CB         20.4710  -30.1983  -37.7839 C.3       4 UNK        -0.1875 
     32 C          22.2640  -28.7919  -38.8826 C.2       4 UNK         0.4949 
     33 O          23.3724  -29.2928  -38.6939 O.2       4 UNK        -0.5039 
     34 N          22.0536  -27.4690  -38.9502 N.am      5 UNK        -0.4663 
     35 CA         23.1064  -26.4517  -38.8735 C.3       5 UNK         0.0242 
     36 CB         22.4630  -25.0656  -38.7134 C.3       5 UNK        -0.1982 
     37 C          24.0828  -26.4664  -40.0671 C.2       5 UNK         0.5017 
     38 O          25.1867  -25.9381  -39.9323 O.2       5 UNK        -0.5012 
     39 N          23.6910  -27.0823  -41.1943 N.am      6 UNK        -0.4439 
     40 CA         24.5601  -27.3132  -42.3534 C.3       6 UNK         0.0297 
     41 CB         23.6930  -27.4545  -43.6174 C.3       6 UNK        -0.2006 
     42 C          25.4706  -28.5488  -42.1923 C.2       6 UNK         0.4892 
     43 O          26.3129  -28.7708  -43.0637 O.2       6 UNK        -0.5089 
     44 N          25.2785  -29.3241  -41.1107 N.am      7 UNK        -0.4243 
     45 CA         25.8503  -30.6449  -40.8156 C.3       7 UNK         0.0196 
     46 CB         27.3932  -30.6373  -40.8708 C.3       7 UNK        -0.2007 
     47 C          25.2401  -31.7520  -41.6956 C.2       7 UNK         0.5020 
     48 O          24.4987  -31.4675  -42.6385 O.2       7 UNK        -0.5147 
     49 N          25.5149  -33.0128  -41.3282 N.am      8 UNK        -0.4734 
     50 CA         25.0221  -34.2760  -41.9133 C.3       8 UNK         0.0238 
     51 CB         25.4341  -34.4173  -43.3922 C.3       8 UNK        -0.1912 
     52 C          23.5104  -34.5247  -41.7329 C.2       8 UNK         0.5038 
     53 O          23.1193  -35.6484  -41.4159 O.2       8 UNK        -0.5046 
     54 N          22.6998  -33.4770  -41.9061 N.am      9 UNK        -0.4200 
     55 CA         21.2514  -33.4346  -41.6636 C.3       9 UNK         0.0839 
     56 C          20.8376  -33.5260  -40.1644 C.2       9 UNK         0.5513 
     57 N          21.7515  -33.4267  -39.2060 N.am      9 UNK        -0.7519 
     58 O          19.6582  -33.6936  -39.8674 O.2       9 UNK        -0.4960 
     59 C59        20.6231  -32.1844  -42.3309 C.3       10 UNK        -0.0876 
     60 S60        20.7000  -32.2446  -44.1532 S.3       10 UNK        -0.2414 
     61 C61        18.9980  -32.7307  -44.5837 C.3       10 UNK         0.0169 
     62 H62        18.4993  -21.9387  -49.1139 H         1 UNK         0.0903 
     63 H63        19.3599  -22.8994  -50.3201 H         1 UNK         0.0903 
     64 H64        17.8132  -23.4617  -49.6831 H         1 UNK         0.0903 
     65 H65        18.0259  -25.0802  -48.1393 H         1 UNK         0.3096 
     66 H66        20.5486  -25.6516  -46.8469 H         1 UNK         0.1121 
     67 H67        19.1861  -27.5288  -47.5543 H         1 UNK         0.0849 
     68 H68        19.2876  -27.5688  -45.8212 H         1 UNK         0.0849 
     69 H69        15.6594  -28.9169  -47.1088 H         1 UNK         0.0865 
     70 H70        17.2879  -29.1686  -47.6764 H         1 UNK         0.0865 
     71 H71        18.4164  -30.9220  -46.5351 H         1 UNK         0.1346 
     72 H72        17.4066  -31.9552  -42.4975 H         1 UNK         0.1412 
     73 H73        15.5673  -28.5641  -44.3601 H         1 UNK         0.1426 
     74 H74        15.0598  -30.7747  -41.7330 H         1 UNK         0.0716 
     75 H75        15.0166  -29.0666  -42.0961 H         1 UNK         0.0716 
     76 H76        16.8248  -27.4350  -41.6080 H         1 UNK         0.0695 
     77 H77        17.7595  -27.4257  -40.1461 H         1 UNK         0.0695 
     78 H78        18.6890  -28.8462  -42.7020 H         1 UNK         0.0983 
     79 H79        19.2138  -26.9410  -43.6190 H         1 UNK         0.3095 
     80 H80        19.3383  -23.7931  -42.9294 H         1 UNK         0.0454 
     81 H81        22.1818  -24.8281  -42.4623 H         1 UNK         0.0851 
     82 H82        21.8046  -23.3020  -43.2619 H         1 UNK         0.0851 
     83 H83        21.3493  -23.5533  -41.5889 H         1 UNK         0.0851 
     84 H84        20.9564  -25.6655  -44.6049 H         1 UNK         0.2976 
     85 H85        19.0467  -29.1682  -39.5556 H         1 UNK         0.3116 
     86 H86        21.4333  -30.5874  -39.6570 H         1 UNK         0.0646 
     87 H87        21.2433  -30.6536  -37.1621 H         1 UNK         0.0847 
     88 H88        19.6985  -30.9523  -37.9378 H         1 UNK         0.0847 
     89 H89        20.0346  -29.3773  -37.2139 H         1 UNK         0.0847 
     90 H90        21.1160  -27.1406  -39.1384 H         1 UNK         0.3040 
     91 H91        23.6987  -26.6555  -37.9785 H         1 UNK         0.1015 
     92 H92        21.8340  -25.0192  -37.8242 H         1 UNK         0.0786 
     93 H93        21.8475  -24.8057  -39.5736 H         1 UNK         0.0786 
     94 H94        23.2237  -24.2903  -38.6114 H         1 UNK         0.0786 
     95 H95        22.7723  -27.5195  -41.2302 H         1 UNK         0.3172 
     96 H96        25.2078  -26.4443  -42.4876 H         1 UNK         0.0595 
     97 H97        23.0342  -26.5990  -43.7534 H         1 UNK         0.0839 
     98 H98        23.0779  -28.3547  -43.5851 H         1 UNK         0.0839 
     99 H99        24.3164  -27.5252  -44.5097 H         1 UNK         0.0839 
    100 H100       24.5500  -29.0403  -40.4661 H         1 UNK         0.2998 
    101 H101       25.5538  -30.8611  -39.7879 H         1 UNK         0.0822 
    102 H102       27.8063  -29.7986  -40.3102 H         1 UNK         0.0787 
    103 H103       27.8069  -31.5479  -40.4368 H         1 UNK         0.0787 
    104 H104       27.7660  -30.5740  -41.8935 H         1 UNK         0.0787 
    105 H105       26.1096  -33.1347  -40.5191 H         1 UNK         0.3055 
    106 H106       25.5272  -35.0710  -41.3615 H         1 UNK         0.1106 
    107 H107       25.1617  -35.4005  -43.7781 H         1 UNK         0.0828 
    108 H108       24.9467  -33.6769  -44.0273 H         1 UNK         0.0828 
    109 H109       26.5114  -34.3080  -43.5159 H         1 UNK         0.0828 
    110 H110       23.1343  -32.6085  -42.2092 H         1 UNK         0.2931 
    111 H111       20.8213  -34.3184  -42.1389 H         1 UNK         0.0412 
    112 H112       21.4640  -33.5010  -38.2432 H         1 UNK         0.3472 
    113 H113       22.7239  -33.3038  -39.4346 H         1 UNK         0.3472 
    114 H114       21.1510  -31.2876  -42.0060 H         1 UNK         0.0970 
    115 H115       19.5899  -32.0477  -42.0164 H         1 UNK         0.0970 
    116 H116       18.9997  -33.1448  -45.5931 H         1 UNK         0.0612 
    117 H117       18.6691  -33.5372  -43.9264 H         1 UNK         0.0612 
@<TRIPOS>BOND
     1    1    2 1    
     2    1   62 1    
     3    1   63 1    
     4    1   64 1    
     5    2    3 2    
     6    2    4 am   BACKBONE|DICT|INTERRES
     7    4    5 1    
     8    4   65 1    
     9    5    6 1    
    10    5   25 1    
    11    5   66 1    
    12    6    7 1    
    13    6   67 1    
    14    6   68 1    
    15    7    8 1    
    16    8    9 1    
    17    8   69 1    
    18    8   70 1    
    19    9   10 ar   
    20    9   14 ar   
    21   10   11 ar   
    22   10   71 1    
    23   11   12 ar   
    24   11   61 1    
    25   12   13 ar   
    26   12   72 1    
    27   13   14 ar   
    28   13   15 1    
    29   14   73 1    
    30   15   16 1    
    31   15   74 1    
    32   15   75 1    
    33   16   17 1    
    34   17   18 1    
    35   17   76 1    
    36   17   77 1    
    37   18   19 1    
    38   18   27 1    
    39   18   78 1    
    40   19   20 am   BACKBONE|DICT|INTERRES
    41   19   79 1    
    42   20   21 2    
    43   20   22 1    
    44   22   23 1    
    45   22   24 1    
    46   22   80 1    
    47   23   81 1    
    48   23   82 1    
    49   23   83 1    
    50   24   25 am   BACKBONE|DICT|INTERRES
    51   24   84 1    
    52   25   26 2    
    53   27   28 2    
    54   27   29 am   BACKBONE|DICT|INTERRES
    55   29   30 1    
    56   29   85 1    
    57   30   31 1    
    58   30   32 1    
    59   30   86 1    
    60   31   87 1    
    61   31   88 1    
    62   31   89 1    
    63   32   33 2    
    64   32   34 am   BACKBONE|DICT|INTERRES
    65   34   35 1    
    66   34   90 1    
    67   35   36 1    
    68   35   37 1    
    69   35   91 1    
    70   36   92 1    
    71   36   93 1    
    72   36   94 1    
    73   37   38 2    
    74   37   39 am   BACKBONE|DICT|INTERRES
    75   39   40 1    
    76   39   95 1    
    77   40   41 1    
    78   40   42 1    
    79   40   96 1    
    80   41   97 1    
    81   41   98 1    
    82   41   99 1    
    83   42   43 2    
    84   42   44 am   BACKBONE|DICT|INTERRES
    85   44   45 1    
    86   44  100 1    
    87   45   46 1    
    88   45   47 1    
    89   45  101 1    
    90   46  102 1    
    91   46  103 1    
    92   46  104 1    
    93   47   48 2    
    94   47   49 am   BACKBONE|DICT|INTERRES
    95   49   50 1    
    96   49  105 1    
    97   50   51 1    
    98   50   52 1    
    99   50  106 1    
   100   51  107 1    
   101   51  108 1    
   102   51  109 1    
   103   52   53 2    
   104   52   54 am   BACKBONE|DICT|INTERRES
   105   54   55 1    
   106   54  110 1    
   107   55   56 1    
   108   55   59 1    
   109   55  111 1    
   110   56   57 am   BACKBONE|DICT|INTERRES
   111   56   58 2    
   112   57  112 1    
   113   57  113 1    
   114   59   60 1    
   115   59  114 1    
   116   59  115 1    
   117   60   61 1    
   118   61  116 1    
   119   61  117 1    
@<TRIPOS>SUBSTRUCTURE
     1 UNK         1 GROUP             0       ****    0 ROOT    
