@<TRIPOS>MOLECULE
3R8
117   119    1
SMALL
USER_CHARGES


@<TRIPOS>ATOM
      1 CA         15.9784  -21.9033  -46.4293 C.3       0 UNK        -0.2013 
      2 C          16.2197  -23.0888  -45.5068 C.2       0 UNK         0.4866 
      3 O          16.0050  -22.9760  -44.3002 O.2       0 UNK        -0.5176 
      4 N          16.6717  -24.2216  -46.0665 N.am      1 UNK        -0.4884 
      5 CA         16.9633  -25.4877  -45.3693 C.3       1 UNK         0.0853 
      6 C6         15.7076  -26.0902  -44.6635 C.3       10 UNK        -0.0849 
      7 S7         15.3837  -27.8270  -45.1254 S.3       10 UNK        -0.2776 
      8 C8         16.0438  -28.7375  -43.6884 C.3       10 UNK         0.0316 
      9 C9         17.0900  -29.7765  -44.0791 C.ar      10 UNK        -0.0863 
     10 C10        17.0342  -31.0635  -43.5386 C.ar      10 UNK        -0.1009 
     11 C11        18.0142  -32.0114  -43.8466 C.ar      10 UNK        -0.0712 
     12 C12        19.0489  -31.6627  -44.7244 C.ar      10 UNK        -0.0894 
     13 C13        19.1334  -30.3755  -45.2664 C.ar      10 UNK        -0.0745 
     14 C14        18.1471  -29.4394  -44.9292 C.ar      10 UNK        -0.0972 
     15 C15        20.3030  -30.0534  -46.2027 C.3       10 UNK         0.0209 
     16 S16        20.3984  -28.3184  -46.7847 S.3       10 UNK        -0.2568 
     17 C17        22.1060  -27.8459  -46.3371 C.3       10 UNK        -0.0983 
     18 CA         22.2368  -27.1369  -44.9648 C.3       3 UNK         0.0876 
     19 N          21.3410  -25.9829  -44.8436 N.am      3 UNK        -0.4424 
     20 C          21.3378  -25.0981  -43.8369 C.2       2 UNK         0.4918 
     21 O          22.1469  -25.1180  -42.9081 O.2       2 UNK        -0.4875 
     22 CA         20.2247  -24.0350  -43.8402 C.3       2 UNK         0.0481 
     23 CB         20.7832  -22.6805  -44.3036 C.3       2 UNK        -0.1831 
     24 N          19.0475  -24.3720  -44.6515 N.am      2 UNK        -0.4498 
     25 C          18.2096  -25.4025  -44.4480 C.2       1 UNK         0.5027 
     26 O          18.4104  -26.2693  -43.5955 O.2       1 UNK        -0.4969 
     27 C          22.1238  -28.1381  -43.7954 C.2       3 UNK         0.5005 
     28 O          23.0894  -28.8607  -43.5472 O.2       3 UNK        -0.5279 
     29 N          20.9904  -28.1433  -43.0726 N.am      4 UNK        -0.4463 
     30 CA         20.7547  -28.9762  -41.8902 C.3       4 UNK         0.0283 
     31 CB         19.3544  -28.7032  -41.3246 C.3       4 UNK        -0.1875 
     32 C          21.7977  -28.7847  -40.7802 C.2       4 UNK         0.4949 
     33 O          22.1956  -29.7677  -40.1572 O.2       4 UNK        -0.5039 
     34 N          22.2347  -27.5347  -40.5732 N.am      5 UNK        -0.4663 
     35 CA         23.2523  -27.1710  -39.5858 C.3       5 UNK         0.0242 
     36 CB         23.2098  -25.6524  -39.3525 C.3       5 UNK        -0.1982 
     37 C          24.6663  -27.6146  -39.9944 C.2       5 UNK         0.5017 
     38 O          25.4681  -27.9453  -39.1211 O.2       5 UNK        -0.5012 
     39 N          24.9431  -27.6183  -41.3056 N.am      6 UNK        -0.4439 
     40 CA         26.2147  -28.0553  -41.8833 C.3       6 UNK         0.0297 
     41 CB         26.3753  -27.4595  -43.2919 C.3       6 UNK        -0.2006 
     42 C          26.3259  -29.5870  -41.9208 C.2       6 UNK         0.4892 
     43 O          27.3748  -30.1284  -41.5706 O.2       6 UNK        -0.5089 
     44 N          25.2408  -30.2527  -42.3377 N.am      7 UNK        -0.4243 
     45 CA         25.1414  -31.7097  -42.4356 C.3       7 UNK         0.0196 
     46 CB         23.9806  -32.0580  -43.3831 C.3       7 UNK        -0.2007 
     47 C          24.9477  -32.4114  -41.0796 C.2       7 UNK         0.5020 
     48 O          25.1870  -33.6165  -41.0011 O.2       7 UNK        -0.5147 
     49 N          24.4869  -31.6674  -40.0608 N.am      8 UNK        -0.4734 
     50 CA         24.0050  -32.1462  -38.7553 C.3       8 UNK         0.0238 
     51 CB         25.1455  -32.7771  -37.9281 C.3       8 UNK        -0.1912 
     52 C          22.7809  -33.0697  -38.9222 C.2       8 UNK         0.5038 
     53 O          22.7286  -34.1559  -38.3413 O.2       8 UNK        -0.5046 
     54 N          21.8476  -32.6240  -39.7709 N.am      9 UNK        -0.4200 
     55 CA         20.6555  -33.3622  -40.2013 C.3       9 UNK         0.0839 
     56 C          19.5499  -33.4234  -39.1127 C.2       9 UNK         0.5513 
     57 N          18.6491  -34.3914  -39.2051 N.am      9 UNK        -0.7519 
     58 O          19.4793  -32.5912  -38.2103 O.2       9 UNK        -0.4960 
     59 C59        20.1284  -32.7953  -41.5472 C.3       10 UNK        -0.0876 
     60 S60        19.5245  -34.0910  -42.6794 S.3       10 UNK        -0.2414 
     61 C61        17.9238  -33.4061  -43.2271 C.3       10 UNK         0.0169 
     62 H62        16.2112  -22.1385  -47.4677 H         1 UNK         0.0903 
     63 H63        14.9344  -21.5955  -46.3779 H         1 UNK         0.0903 
     64 H64        16.5973  -21.0594  -46.1256 H         1 UNK         0.0903 
     65 H65        16.8230  -24.2424  -47.0669 H         1 UNK         0.3096 
     66 H66        17.2654  -26.1694  -46.1661 H         1 UNK         0.1121 
     67 H67        14.8104  -25.5438  -44.9581 H         1 UNK         0.0849 
     68 H68        15.7475  -25.9755  -43.5786 H         1 UNK         0.0849 
     69 H69        16.4921  -28.0521  -42.9693 H         1 UNK         0.0865 
     70 H70        15.2063  -29.2104  -43.1734 H         1 UNK         0.0865 
     71 H71        16.2297  -31.3260  -42.8649 H         1 UNK         0.1346 
     72 H72        19.8024  -32.3956  -44.9784 H         1 UNK         0.1412 
     73 H73        18.1867  -28.4347  -45.3196 H         1 UNK         0.1426 
     74 H74        21.2304  -30.3242  -45.6963 H         1 UNK         0.0716 
     75 H75        20.2355  -30.6991  -47.0792 H         1 UNK         0.0716 
     76 H76        22.4613  -27.1696  -47.1160 H         1 UNK         0.0695 
     77 H77        22.7640  -28.7153  -46.3973 H         1 UNK         0.0695 
     78 H78        23.2526  -26.7395  -44.9068 H         1 UNK         0.0983 
     79 H79        20.6339  -25.8987  -45.5587 H         1 UNK         0.3095 
     80 H80        19.8855  -23.9265  -42.8081 H         1 UNK         0.0454 
     81 H81        20.0380  -21.8901  -44.2113 H         1 UNK         0.0851 
     82 H82        21.1136  -22.7132  -45.3425 H         1 UNK         0.0851 
     83 H83        21.6413  -22.3837  -43.6986 H         1 UNK         0.0851 
     84 H84        18.8023  -23.7174  -45.3803 H         1 UNK         0.2976 
     85 H85        20.2364  -27.5243  -43.3483 H         1 UNK         0.3116 
     86 H86        20.8001  -30.0139  -42.2194 H         1 UNK         0.0646 
     87 H87        18.5837  -28.9307  -42.0542 H         1 UNK         0.0847 
     88 H88        19.1572  -29.3210  -40.4472 H         1 UNK         0.0847 
     89 H89        19.2322  -27.6607  -41.0279 H         1 UNK         0.0847 
     90 H90        21.8714  -26.7904  -41.1546 H         1 UNK         0.3040 
     91 H91        23.0110  -27.6702  -38.6444 H         1 UNK         0.1015 
     92 H92        23.4221  -25.0965  -40.2669 H         1 UNK         0.0786 
     93 H93        23.9477  -25.3507  -38.6076 H         1 UNK         0.0786 
     94 H94        22.2332  -25.3349  -38.9865 H         1 UNK         0.0786 
     95 H95        24.2042  -27.3729  -41.9494 H         1 UNK         0.3172 
     96 H96        27.0282  -27.6731  -41.2626 H         1 UNK         0.0595 
     97 H97        25.5960  -27.8031  -43.9729 H         1 UNK         0.0839 
     98 H98        27.3342  -27.7452  -43.7264 H         1 UNK         0.0839 
     99 H99        26.3436  -26.3701  -43.2679 H         1 UNK         0.0839 
    100 H100       24.4338  -29.7211  -42.6618 H         1 UNK         0.2998 
    101 H101       26.0667  -32.0920  -42.8720 H         1 UNK         0.0822 
    102 H102       23.8647  -33.1377  -43.4871 H         1 UNK         0.0787 
    103 H103       23.0335  -31.6594  -43.0188 H         1 UNK         0.0787 
    104 H104       24.1487  -31.6514  -44.3806 H         1 UNK         0.0787 
    105 H105       24.2800  -30.6966  -40.2594 H         1 UNK         0.3055 
    106 H106       23.6518  -31.2671  -38.2131 H         1 UNK         0.1106 
    107 H107       25.9895  -32.0942  -37.8324 H         1 UNK         0.0828 
    108 H108       24.8061  -33.0169  -36.9198 H         1 UNK         0.0828 
    109 H109       25.5111  -33.7026  -38.3736 H         1 UNK         0.0828 
    110 H110       21.9439  -31.6724  -40.1115 H         1 UNK         0.2931 
    111 H111       20.9919  -34.3877  -40.3694 H         1 UNK         0.0412 
    112 H112       18.6881  -35.0610  -39.9585 H         1 UNK         0.3472 
    113 H113       17.9135  -34.4485  -38.5181 H         1 UNK         0.3472 
    114 H114       19.3674  -32.0284  -41.3879 H         1 UNK         0.0970 
    115 H115       20.9325  -32.2995  -42.0902 H         1 UNK         0.0970 
    116 H116       17.4864  -34.0851  -43.9598 H         1 UNK         0.0612 
    117 H117       17.2495  -33.3999  -42.3691 H         1 UNK         0.0612 
@<TRIPOS>BOND
     1    1    2 1    
     2    1   62 1    
     3    1   63 1    
     4    1   64 1    
     5    2    3 2    
     6    2    4 am   BACKBONE|DICT|INTERRES
     7    4    5 1    
     8    4   65 1    
     9    5    6 1    
    10    5   25 1    
    11    5   66 1    
    12    6    7 1    
    13    6   67 1    
    14    6   68 1    
    15    7    8 1    
    16    8    9 1    
    17    8   69 1    
    18    8   70 1    
    19    9   10 ar   
    20    9   14 ar   
    21   10   11 ar   
    22   10   71 1    
    23   11   12 ar   
    24   11   61 1    
    25   12   13 ar   
    26   12   72 1    
    27   13   14 ar   
    28   13   15 1    
    29   14   73 1    
    30   15   16 1    
    31   15   74 1    
    32   15   75 1    
    33   16   17 1    
    34   17   18 1    
    35   17   76 1    
    36   17   77 1    
    37   18   19 1    
    38   18   27 1    
    39   18   78 1    
    40   19   20 am   BACKBONE|DICT|INTERRES
    41   19   79 1    
    42   20   21 2    
    43   20   22 1    
    44   22   23 1    
    45   22   24 1    
    46   22   80 1    
    47   23   81 1    
    48   23   82 1    
    49   23   83 1    
    50   24   25 am   BACKBONE|DICT|INTERRES
    51   24   84 1    
    52   25   26 2    
    53   27   28 2    
    54   27   29 am   BACKBONE|DICT|INTERRES
    55   29   30 1    
    56   29   85 1    
    57   30   31 1    
    58   30   32 1    
    59   30   86 1    
    60   31   87 1    
    61   31   88 1    
    62   31   89 1    
    63   32   33 2    
    64   32   34 am   BACKBONE|DICT|INTERRES
    65   34   35 1    
    66   34   90 1    
    67   35   36 1    
    68   35   37 1    
    69   35   91 1    
    70   36   92 1    
    71   36   93 1    
    72   36   94 1    
    73   37   38 2    
    74   37   39 am   BACKBONE|DICT|INTERRES
    75   39   40 1    
    76   39   95 1    
    77   40   41 1    
    78   40   42 1    
    79   40   96 1    
    80   41   97 1    
    81   41   98 1    
    82   41   99 1    
    83   42   43 2    
    84   42   44 am   BACKBONE|DICT|INTERRES
    85   44   45 1    
    86   44  100 1    
    87   45   46 1    
    88   45   47 1    
    89   45  101 1    
    90   46  102 1    
    91   46  103 1    
    92   46  104 1    
    93   47   48 2    
    94   47   49 am   BACKBONE|DICT|INTERRES
    95   49   50 1    
    96   49  105 1    
    97   50   51 1    
    98   50   52 1    
    99   50  106 1    
   100   51  107 1    
   101   51  108 1    
   102   51  109 1    
   103   52   53 2    
   104   52   54 am   BACKBONE|DICT|INTERRES
   105   54   55 1    
   106   54  110 1    
   107   55   56 1    
   108   55   59 1    
   109   55  111 1    
   110   56   57 am   BACKBONE|DICT|INTERRES
   111   56   58 2    
   112   57  112 1    
   113   57  113 1    
   114   59   60 1    
   115   59  114 1    
   116   59  115 1    
   117   60   61 1    
   118   61  116 1    
   119   61  117 1    
@<TRIPOS>SUBSTRUCTURE
     1 UNK         1 GROUP             0       ****    0 ROOT    
