@<TRIPOS>MOLECULE
3R8
117   119    1
SMALL
USER_CHARGES


@<TRIPOS>ATOM
      1 CA         19.6941  -29.5372  -41.7236 C.3       0 UNK        -0.2013 
      2 C          18.7011  -28.3913  -41.8190 C.2       0 UNK         0.4866 
      3 O          18.3281  -27.8178  -40.7951 O.2       0 UNK        -0.5176 
      4 N          18.2714  -28.0606  -43.0427 N.am      1 UNK        -0.4884 
      5 CA         17.3469  -26.9614  -43.3458 C.3       1 UNK         0.0853 
      6 C6         16.4130  -27.3058  -44.5400 C.3       10 UNK        -0.0849 
      7 S7         15.5137  -28.8764  -44.3119 S.3       10 UNK        -0.2776 
      8 C8         16.0800  -29.8331  -45.7552 C.3       10 UNK         0.0316 
      9 C9         17.5378  -30.2641  -45.6449 C.ar      10 UNK        -0.0863 
     10 C10        17.8858  -31.3334  -44.8154 C.ar      10 UNK        -0.1009 
     11 C11        19.1993  -31.8098  -44.7807 C.ar      10 UNK        -0.0712 
     12 C12        20.1761  -31.1862  -45.5641 C.ar      10 UNK        -0.0894 
     13 C13        19.8493  -30.1043  -46.3886 C.ar      10 UNK        -0.0745 
     14 C14        18.5243  -29.6513  -46.4256 C.ar      10 UNK        -0.0972 
     15 C15        20.9130  -29.5156  -47.3139 C.3       10 UNK         0.0209 
     16 S16        20.8863  -27.6960  -47.4292 S.3       10 UNK        -0.2568 
     17 C17        21.8084  -27.2215  -45.9317 C.3       10 UNK        -0.0983 
     18 CA         21.7936  -25.6884  -45.7028 C.3       3 UNK         0.0876 
     19 N          20.4239  -25.1832  -45.5877 N.am      3 UNK        -0.4424 
     20 C          20.0404  -23.9124  -45.4029 C.2       2 UNK         0.4918 
     21 O          20.8023  -22.9474  -45.4620 O.2       2 UNK        -0.4875 
     22 CA         18.5539  -23.6838  -45.0531 C.3       2 UNK         0.0481 
     23 CB         17.8117  -23.0679  -46.2500 C.3       2 UNK        -0.1831 
     24 N          17.8371  -24.8917  -44.6131 N.am      2 UNK        -0.4498 
     25 C          18.1527  -25.6563  -43.5533 C.2       1 UNK         0.5027 
     26 O          19.0859  -25.3837  -42.7934 O.2       1 UNK        -0.4969 
     27 C          22.6618  -25.3302  -44.4769 C.2       3 UNK         0.5005 
     28 O          23.8572  -25.0835  -44.6448 O.2       3 UNK        -0.5279 
     29 N          22.0449  -25.2972  -43.2819 N.am      4 UNK        -0.4463 
     30 CA         22.5872  -24.9306  -41.9668 C.3       4 UNK         0.0283 
     31 CB         23.0196  -23.4515  -41.9327 C.3       4 UNK        -0.1875 
     32 C          23.7035  -25.8556  -41.4533 C.2       4 UNK         0.4949 
     33 O          23.5253  -26.5051  -40.4238 O.2       4 UNK        -0.5039 
     34 N          24.8227  -25.9177  -42.1848 N.am      5 UNK        -0.4663 
     35 CA         26.0278  -26.6902  -41.8620 C.3       5 UNK         0.0242 
     36 CB         27.1506  -26.2903  -42.8326 C.3       5 UNK        -0.1982 
     37 C          25.8195  -28.2146  -41.8766 C.2       5 UNK         0.5017 
     38 O          26.6012  -28.9341  -41.2545 O.2       5 UNK        -0.5012 
     39 N          24.7648  -28.6744  -42.5653 N.am      6 UNK        -0.4439 
     40 CA         24.3048  -30.0653  -42.5755 C.3       6 UNK         0.0297 
     41 CB         23.2575  -30.2339  -43.6860 C.3       6 UNK        -0.2006 
     42 C          23.7632  -30.5321  -41.2062 C.2       6 UNK         0.4892 
     43 O          23.8593  -31.7216  -40.9036 O.2       6 UNK        -0.5089 
     44 N          23.2641  -29.5766  -40.4028 N.am      7 UNK        -0.4243 
     45 CA         22.9255  -29.6477  -38.9778 C.3       7 UNK         0.0196 
     46 CB         24.2111  -29.4524  -38.1442 C.3       7 UNK        -0.2007 
     47 C          22.1113  -30.8842  -38.5498 C.2       7 UNK         0.5020 
     48 O          20.8842  -30.8734  -38.6549 O.2       7 UNK        -0.5147 
     49 N          22.8112  -31.9075  -38.0397 N.am      8 UNK        -0.4734 
     50 CA         22.2769  -33.1079  -37.3880 C.3       8 UNK         0.0238 
     51 CB         23.4532  -33.9510  -36.8669 C.3       8 UNK        -0.1912 
     52 C          21.3313  -33.9756  -38.2372 C.2       8 UNK         0.5038 
     53 O          20.6114  -34.7931  -37.6608 O.2       8 UNK        -0.5046 
     54 N          21.3324  -33.7964  -39.5649 N.am      9 UNK        -0.4200 
     55 CA         20.3694  -34.4345  -40.4740 C.3       9 UNK         0.0839 
     56 C          18.9024  -33.9232  -40.3343 C.2       9 UNK         0.5513 
     57 N          18.6509  -32.7917  -39.6837 N.am      9 UNK        -0.7519 
     58 O          17.9797  -34.5750  -40.8163 O.2       9 UNK        -0.4960 
     59 C59        20.8723  -34.4265  -41.9401 C.3       10 UNK        -0.0876 
     60 S60        20.8381  -32.7822  -42.7350 S.3       10 UNK        -0.2414 
     61 C61        19.5330  -33.0564  -43.9720 C.3       10 UNK         0.0169 
     62 H62        19.2378  -30.3913  -41.2242 H         1 UNK         0.0903 
     63 H63        20.0329  -29.8604  -42.7067 H         1 UNK         0.0903 
     64 H64        20.5652  -29.2328  -41.1456 H         1 UNK         0.0903 
     65 H65        18.5810  -28.6010  -43.8387 H         1 UNK         0.3096 
     66 H66        16.7094  -26.7863  -42.4760 H         1 UNK         0.1121 
     67 H67        16.9763  -27.3491  -45.4735 H         1 UNK         0.0849 
     68 H68        15.6584  -26.5278  -44.6708 H         1 UNK         0.0849 
     69 H69        15.4534  -30.7213  -45.8501 H         1 UNK         0.0865 
     70 H70        15.9126  -29.2540  -46.6648 H         1 UNK         0.0865 
     71 H71        17.1193  -31.8216  -44.2286 H         1 UNK         0.1346 
     72 H72        21.1855  -31.5741  -45.5580 H         1 UNK         0.1412 
     73 H73        18.2543  -28.8453  -47.0943 H         1 UNK         0.1426 
     74 H74        20.7520  -29.9227  -48.3129 H         1 UNK         0.0716 
     75 H75        21.9119  -29.8351  -47.0122 H         1 UNK         0.0716 
     76 H76        22.8328  -27.5843  -46.0383 H         1 UNK         0.0695 
     77 H77        21.3782  -27.7474  -45.0765 H         1 UNK         0.0695 
     78 H78        22.2464  -25.2013  -46.5690 H         1 UNK         0.0983 
     79 H79        19.7057  -25.8903  -45.5772 H         1 UNK         0.3095 
     80 H80        18.5255  -22.9689  -44.2285 H         1 UNK         0.0454 
     81 H81        17.7868  -23.7468  -47.1033 H         1 UNK         0.0851 
     82 H82        18.2977  -22.1487  -46.5805 H         1 UNK         0.0851 
     83 H83        16.7840  -22.8112  -45.9926 H         1 UNK         0.0851 
     84 H84        17.0563  -25.1715  -45.1890 H         1 UNK         0.2976 
     85 H85        21.0484  -25.4970  -43.2683 H         1 UNK         0.3116 
     86 H86        21.7527  -25.0365  -41.2712 H         1 UNK         0.0646 
     87 H87        22.1896  -22.7936  -42.1907 H         1 UNK         0.0847 
     88 H88        23.8355  -23.2429  -42.6252 H         1 UNK         0.0847 
     89 H89        23.3599  -23.1679  -40.9359 H         1 UNK         0.0847 
     90 H90        24.8160  -25.4164  -43.0710 H         1 UNK         0.3040 
     91 H91        26.3334  -26.4201  -40.8488 H         1 UNK         0.1015 
     92 H92        28.0729  -26.8285  -42.6087 H         1 UNK         0.0786 
     93 H93        27.3740  -25.2254  -42.7632 H         1 UNK         0.0786 
     94 H94        26.8857  -26.5110  -43.8676 H         1 UNK         0.0786 
     95 H95        24.2031  -27.9974  -43.0596 H         1 UNK         0.3172 
     96 H96        25.1628  -30.6944  -42.8216 H         1 UNK         0.0595 
     97 H97        22.3320  -29.7043  -43.4603 H         1 UNK         0.0839 
     98 H98        23.0135  -31.2870  -43.8196 H         1 UNK         0.0839 
     99 H99        23.6276  -29.8729  -44.6457 H         1 UNK         0.0839 
    100 H100       23.2521  -28.6334  -40.7715 H         1 UNK         0.2998 
    101 H101       22.2825  -28.7879  -38.7811 H         1 UNK         0.0822 
    102 H102       24.6452  -28.4692  -38.3295 H         1 UNK         0.0787 
    103 H103       24.0054  -29.5135  -37.0744 H         1 UNK         0.0787 
    104 H104       24.9749  -30.1936  -38.3828 H         1 UNK         0.0787 
    105 H105       23.8177  -31.8253  -38.0577 H         1 UNK         0.3055 
    106 H106       21.6929  -32.7699  -36.5292 H         1 UNK         0.1106 
    107 H107       24.0968  -34.2893  -37.6802 H         1 UNK         0.0828 
    108 H108       23.0983  -34.8393  -36.3418 H         1 UNK         0.0828 
    109 H109       24.0666  -33.3880  -36.1631 H         1 UNK         0.0828 
    110 H110       21.9401  -33.0929  -39.9640 H         1 UNK         0.2931 
    111 H111       20.3324  -35.4857  -40.1809 H         1 UNK         0.0412 
    112 H112       17.6989  -32.4762  -39.5910 H         1 UNK         0.3472 
    113 H113       19.4095  -32.2351  -39.3065 H         1 UNK         0.3472 
    114 H114       21.8965  -34.8004  -41.9812 H         1 UNK         0.0970 
    115 H115       20.2874  -35.1328  -42.5318 H         1 UNK         0.0970 
    116 H116       18.6429  -33.4298  -43.4628 H         1 UNK         0.0612 
    117 H117       19.8516  -33.8432  -44.6572 H         1 UNK         0.0612 
@<TRIPOS>BOND
     1    1    2 1    
     2    1   62 1    
     3    1   63 1    
     4    1   64 1    
     5    2    3 2    
     6    2    4 am   BACKBONE|DICT|INTERRES
     7    4    5 1    
     8    4   65 1    
     9    5    6 1    
    10    5   25 1    
    11    5   66 1    
    12    6    7 1    
    13    6   67 1    
    14    6   68 1    
    15    7    8 1    
    16    8    9 1    
    17    8   69 1    
    18    8   70 1    
    19    9   10 ar   
    20    9   14 ar   
    21   10   11 ar   
    22   10   71 1    
    23   11   12 ar   
    24   11   61 1    
    25   12   13 ar   
    26   12   72 1    
    27   13   14 ar   
    28   13   15 1    
    29   14   73 1    
    30   15   16 1    
    31   15   74 1    
    32   15   75 1    
    33   16   17 1    
    34   17   18 1    
    35   17   76 1    
    36   17   77 1    
    37   18   19 1    
    38   18   27 1    
    39   18   78 1    
    40   19   20 am   BACKBONE|DICT|INTERRES
    41   19   79 1    
    42   20   21 2    
    43   20   22 1    
    44   22   23 1    
    45   22   24 1    
    46   22   80 1    
    47   23   81 1    
    48   23   82 1    
    49   23   83 1    
    50   24   25 am   BACKBONE|DICT|INTERRES
    51   24   84 1    
    52   25   26 2    
    53   27   28 2    
    54   27   29 am   BACKBONE|DICT|INTERRES
    55   29   30 1    
    56   29   85 1    
    57   30   31 1    
    58   30   32 1    
    59   30   86 1    
    60   31   87 1    
    61   31   88 1    
    62   31   89 1    
    63   32   33 2    
    64   32   34 am   BACKBONE|DICT|INTERRES
    65   34   35 1    
    66   34   90 1    
    67   35   36 1    
    68   35   37 1    
    69   35   91 1    
    70   36   92 1    
    71   36   93 1    
    72   36   94 1    
    73   37   38 2    
    74   37   39 am   BACKBONE|DICT|INTERRES
    75   39   40 1    
    76   39   95 1    
    77   40   41 1    
    78   40   42 1    
    79   40   96 1    
    80   41   97 1    
    81   41   98 1    
    82   41   99 1    
    83   42   43 2    
    84   42   44 am   BACKBONE|DICT|INTERRES
    85   44   45 1    
    86   44  100 1    
    87   45   46 1    
    88   45   47 1    
    89   45  101 1    
    90   46  102 1    
    91   46  103 1    
    92   46  104 1    
    93   47   48 2    
    94   47   49 am   BACKBONE|DICT|INTERRES
    95   49   50 1    
    96   49  105 1    
    97   50   51 1    
    98   50   52 1    
    99   50  106 1    
   100   51  107 1    
   101   51  108 1    
   102   51  109 1    
   103   52   53 2    
   104   52   54 am   BACKBONE|DICT|INTERRES
   105   54   55 1    
   106   54  110 1    
   107   55   56 1    
   108   55   59 1    
   109   55  111 1    
   110   56   57 am   BACKBONE|DICT|INTERRES
   111   56   58 2    
   112   57  112 1    
   113   57  113 1    
   114   59   60 1    
   115   59  114 1    
   116   59  115 1    
   117   60   61 1    
   118   61  116 1    
   119   61  117 1    
@<TRIPOS>SUBSTRUCTURE
     1 UNK         1 GROUP             0       ****    0 ROOT    
