@<TRIPOS>MOLECULE
3R8
117   119    1
SMALL
USER_CHARGES


@<TRIPOS>ATOM
      1 CA         17.1112  -23.0561  -48.7930 C.3       0 UNK        -0.2013 
      2 C          18.1969  -23.0741  -47.7273 C.2       0 UNK         0.4866 
      3 O          18.3836  -22.0793  -47.0256 O.2       0 UNK        -0.5176 
      4 N          18.9206  -24.1934  -47.6071 N.am      1 UNK        -0.4884 
      5 CA         19.9475  -24.4232  -46.5860 C.3       1 UNK         0.0853 
      6 C6         20.9329  -25.5401  -47.0245 C.3       10 UNK        -0.0849 
      7 S7         20.1494  -27.1635  -47.3433 S.3       10 UNK        -0.2776 
      8 C8         20.6474  -28.0524  -45.8343 C.3       10 UNK         0.0316 
      9 C9         19.6771  -29.1464  -45.4159 C.ar      10 UNK        -0.0863 
     10 C10        20.1646  -30.3900  -45.0088 C.ar      10 UNK        -0.1009 
     11 C11        19.3061  -31.3516  -44.4694 C.ar      10 UNK        -0.0712 
     12 C12        17.9422  -31.0662  -44.3480 C.ar      10 UNK        -0.0894 
     13 C13        17.4391  -29.8268  -44.7597 C.ar      10 UNK        -0.0745 
     14 C14        18.3088  -28.8818  -45.3137 C.ar      10 UNK        -0.0972 
     15 C15        15.9723  -29.4767  -44.5433 C.3       10 UNK         0.0209 
     16 S16        15.7633  -27.9496  -43.5612 S.3       10 UNK        -0.2568 
     17 C17        16.5567  -28.3913  -41.9767 C.3       10 UNK        -0.0983 
     18 CA         18.0689  -28.0481  -41.9225 C.3       3 UNK         0.0876 
     19 N          18.3514  -26.6430  -42.2327 N.am      3 UNK        -0.4424 
     20 C          19.5751  -26.1214  -42.3902 C.2       2 UNK         0.4918 
     21 O          20.6246  -26.7620  -42.2819 O.2       2 UNK        -0.4875 
     22 CA         19.6414  -24.6259  -42.7397 C.3       2 UNK         0.0481 
     23 CB         20.5977  -23.8811  -41.7925 C.3       2 UNK        -0.1831 
     24 N          20.0677  -24.4219  -44.1269 N.am      2 UNK        -0.4498 
     25 C          19.3103  -24.6904  -45.2009 C.2       1 UNK         0.5027 
     26 O          18.1601  -25.1321  -45.1262 O.2       1 UNK        -0.4969 
     27 C          18.6748  -28.4709  -40.5740 C.2       3 UNK         0.5005 
     28 O          18.7291  -27.6627  -39.6429 O.2       3 UNK        -0.5279 
     29 N          19.1506  -29.7222  -40.5138 N.am      4 UNK        -0.4463 
     30 CA         19.9031  -30.3640  -39.4274 C.3       4 UNK         0.0283 
     31 CB         19.1260  -30.3639  -38.0967 C.3       4 UNK        -0.1875 
     32 C          21.3276  -29.8106  -39.2435 C.2       4 UNK         0.4949 
     33 O          22.2537  -30.5972  -39.0481 O.2       4 UNK        -0.5039 
     34 N          21.4749  -28.4828  -39.2986 N.am      5 UNK        -0.4663 
     35 CA         22.7118  -27.7532  -39.0425 C.3       5 UNK         0.0242 
     36 CB         22.3764  -26.2834  -38.7362 C.3       5 UNK        -0.1982 
     37 C          23.7359  -27.8533  -40.1816 C.2       5 UNK         0.5017 
     38 O          24.8673  -28.2671  -39.9283 O.2       5 UNK        -0.5012 
     39 N          23.3472  -27.4373  -41.3977 N.am      6 UNK        -0.4439 
     40 CA         24.2792  -27.1650  -42.5017 C.3       6 UNK         0.0297 
     41 CB         23.5442  -26.4538  -43.6473 C.3       6 UNK        -0.2006 
     42 C          25.0266  -28.3984  -43.0321 C.2       6 UNK         0.4892 
     43 O          26.2127  -28.2936  -43.3463 O.2       6 UNK        -0.5089 
     44 N          24.3250  -29.5347  -43.1172 N.am      7 UNK        -0.4243 
     45 CA         24.8804  -30.8135  -43.5723 C.3       7 UNK         0.0196 
     46 CB         23.8486  -31.5056  -44.4785 C.3       7 UNK        -0.2007 
     47 C          25.2763  -31.7377  -42.4077 C.2       7 UNK         0.5020 
     48 O          25.7563  -32.8413  -42.6671 O.2       7 UNK        -0.5147 
     49 N          25.0324  -31.3053  -41.1593 N.am      8 UNK        -0.4734 
     50 CA         25.1545  -32.0791  -39.9136 C.3       8 UNK         0.0238 
     51 CB         26.6296  -32.4248  -39.6176 C.3       8 UNK        -0.1912 
     52 C          24.2279  -33.3155  -39.8741 C.2       8 UNK         0.5038 
     53 O          24.5508  -34.3062  -39.2157 O.2       8 UNK        -0.5046 
     54 N          23.0968  -33.2331  -40.5870 N.am      9 UNK        -0.4200 
     55 CA         22.0583  -34.2674  -40.6849 C.3       9 UNK         0.0839 
     56 C          21.1397  -34.3892  -39.4339 C.2       9 UNK         0.5513 
     57 N          21.2174  -33.4917  -38.4582 N.am      9 UNK        -0.7519 
     58 O          20.3568  -35.3308  -39.3392 O.2       9 UNK        -0.4960 
     59 C59        21.2576  -34.1468  -42.0124 C.3       10 UNK        -0.0876 
     60 S60        20.5240  -32.4977  -42.2900 S.3       10 UNK        -0.2414 
     61 C61        19.8692  -32.6757  -43.9762 C.3       10 UNK         0.0169 
     62 H62        17.0673  -23.9940  -49.3463 H         1 UNK         0.0903 
     63 H63        16.1377  -22.8883  -48.3332 H         1 UNK         0.0903 
     64 H64        17.2960  -22.2514  -49.5041 H         1 UNK         0.0903 
     65 H65        18.7019  -24.9973  -48.1792 H         1 UNK         0.3096 
     66 H66        20.5246  -23.4998  -46.4943 H         1 UNK         0.1121 
     67 H67        21.7392  -25.6486  -46.2967 H         1 UNK         0.0849 
     68 H68        21.4289  -25.2334  -47.9468 H         1 UNK         0.0849 
     69 H69        21.6543  -28.4488  -45.9754 H         1 UNK         0.0865 
     70 H70        20.7002  -27.3505  -45.0033 H         1 UNK         0.0865 
     71 H71        21.2221  -30.5971  -45.0713 H         1 UNK         0.1346 
     72 H72        17.2798  -31.7987  -43.9070 H         1 UNK         0.1412 
     73 H73        17.9292  -27.9086  -45.5967 H         1 UNK         0.1426 
     74 H74        15.4425  -30.2924  -44.0488 H         1 UNK         0.0716 
     75 H75        15.4948  -29.3403  -45.5144 H         1 UNK         0.0716 
     76 H76        16.3964  -29.4558  -41.7942 H         1 UNK         0.0695 
     77 H77        16.0228  -27.8656  -41.1826 H         1 UNK         0.0695 
     78 H78        18.5893  -28.6301  -42.6805 H         1 UNK         0.0983 
     79 H79        17.5451  -26.0521  -42.3709 H         1 UNK         0.3095 
     80 H80        18.6479  -24.1887  -42.6175 H         1 UNK         0.0454 
     81 H81        21.6216  -24.2471  -41.8709 H         1 UNK         0.0851 
     82 H82        20.2887  -24.0061  -40.7538 H         1 UNK         0.0851 
     83 H83        20.6074  -22.8108  -41.9986 H         1 UNK         0.0851 
     84 H84        21.0078  -24.0790  -44.2603 H         1 UNK         0.2976 
     85 H85        19.0766  -30.2894  -41.3486 H         1 UNK         0.3116 
     86 H86        20.0073  -31.4053  -39.7255 H         1 UNK         0.0646 
     87 H87        19.0103  -29.3612  -37.6848 H         1 UNK         0.0847 
     88 H88        19.6480  -30.9589  -37.3463 H         1 UNK         0.0847 
     89 H89        18.1325  -30.7952  -38.2175 H         1 UNK         0.0847 
     90 H90        20.6341  -27.9330  -39.4527 H         1 UNK         0.3040 
     91 H91        23.1755  -28.1826  -38.1511 H         1 UNK         0.1015 
     92 H92        21.8465  -25.8063  -39.5615 H         1 UNK         0.0786 
     93 H93        23.2824  -25.7047  -38.5501 H         1 UNK         0.0786 
     94 H94        21.7513  -26.1986  -37.8470 H         1 UNK         0.0786 
     95 H95        22.3768  -27.1670  -41.5425 H         1 UNK         0.3172 
     96 H96        25.0341  -26.4748  -42.1186 H         1 UNK         0.0595 
     97 H97        22.7556  -27.0803  -44.0586 H         1 UNK         0.0839 
     98 H98        24.2278  -26.2116  -44.4623 H         1 UNK         0.0839 
     99 H99        23.0947  -25.5193  -43.3142 H         1 UNK         0.0839 
    100 H100       23.3555  -29.5242  -42.8339 H         1 UNK         0.2998 
    101 H101       25.7821  -30.6426  -44.1643 H         1 UNK         0.0822 
    102 H102       23.5812  -30.8749  -45.3263 H         1 UNK         0.0787 
    103 H103       24.2453  -32.4366  -44.8859 H         1 UNK         0.0787 
    104 H104       22.9385  -31.7539  -43.9335 H         1 UNK         0.0787 
    105 H105       24.6874  -30.3606  -41.0456 H         1 UNK         0.3055 
    106 H106       24.8078  -31.4224  -39.1139 H         1 UNK         0.1106 
    107 H107       26.7365  -32.8627  -38.6245 H         1 UNK         0.0828 
    108 H108       27.0305  -33.1436  -40.3326 H         1 UNK         0.0828 
    109 H109       27.2584  -31.5350  -39.6463 H         1 UNK         0.0828 
    110 H110       22.8917  -32.3640  -41.0561 H         1 UNK         0.2931 
    111 H111       22.5812  -35.2244  -40.7353 H         1 UNK         0.0412 
    112 H112       20.6313  -33.5948  -37.6455 H         1 UNK         0.3472 
    113 H113       21.8318  -32.6933  -38.5469 H         1 UNK         0.3472 
    114 H114       21.9242  -34.3626  -42.8489 H         1 UNK         0.0970 
    115 H115       20.4700  -34.9011  -42.0627 H         1 UNK         0.0970 
    116 H116       20.6633  -33.0131  -44.6441 H         1 UNK         0.0612 
    117 H117       19.0994  -33.4488  -43.9880 H         1 UNK         0.0612 
@<TRIPOS>BOND
     1    1    2 1    
     2    1   62 1    
     3    1   63 1    
     4    1   64 1    
     5    2    3 2    
     6    2    4 am   BACKBONE|DICT|INTERRES
     7    4    5 1    
     8    4   65 1    
     9    5    6 1    
    10    5   25 1    
    11    5   66 1    
    12    6    7 1    
    13    6   67 1    
    14    6   68 1    
    15    7    8 1    
    16    8    9 1    
    17    8   69 1    
    18    8   70 1    
    19    9   10 ar   
    20    9   14 ar   
    21   10   11 ar   
    22   10   71 1    
    23   11   12 ar   
    24   11   61 1    
    25   12   13 ar   
    26   12   72 1    
    27   13   14 ar   
    28   13   15 1    
    29   14   73 1    
    30   15   16 1    
    31   15   74 1    
    32   15   75 1    
    33   16   17 1    
    34   17   18 1    
    35   17   76 1    
    36   17   77 1    
    37   18   19 1    
    38   18   27 1    
    39   18   78 1    
    40   19   20 am   BACKBONE|DICT|INTERRES
    41   19   79 1    
    42   20   21 2    
    43   20   22 1    
    44   22   23 1    
    45   22   24 1    
    46   22   80 1    
    47   23   81 1    
    48   23   82 1    
    49   23   83 1    
    50   24   25 am   BACKBONE|DICT|INTERRES
    51   24   84 1    
    52   25   26 2    
    53   27   28 2    
    54   27   29 am   BACKBONE|DICT|INTERRES
    55   29   30 1    
    56   29   85 1    
    57   30   31 1    
    58   30   32 1    
    59   30   86 1    
    60   31   87 1    
    61   31   88 1    
    62   31   89 1    
    63   32   33 2    
    64   32   34 am   BACKBONE|DICT|INTERRES
    65   34   35 1    
    66   34   90 1    
    67   35   36 1    
    68   35   37 1    
    69   35   91 1    
    70   36   92 1    
    71   36   93 1    
    72   36   94 1    
    73   37   38 2    
    74   37   39 am   BACKBONE|DICT|INTERRES
    75   39   40 1    
    76   39   95 1    
    77   40   41 1    
    78   40   42 1    
    79   40   96 1    
    80   41   97 1    
    81   41   98 1    
    82   41   99 1    
    83   42   43 2    
    84   42   44 am   BACKBONE|DICT|INTERRES
    85   44   45 1    
    86   44  100 1    
    87   45   46 1    
    88   45   47 1    
    89   45  101 1    
    90   46  102 1    
    91   46  103 1    
    92   46  104 1    
    93   47   48 2    
    94   47   49 am   BACKBONE|DICT|INTERRES
    95   49   50 1    
    96   49  105 1    
    97   50   51 1    
    98   50   52 1    
    99   50  106 1    
   100   51  107 1    
   101   51  108 1    
   102   51  109 1    
   103   52   53 2    
   104   52   54 am   BACKBONE|DICT|INTERRES
   105   54   55 1    
   106   54  110 1    
   107   55   56 1    
   108   55   59 1    
   109   55  111 1    
   110   56   57 am   BACKBONE|DICT|INTERRES
   111   56   58 2    
   112   57  112 1    
   113   57  113 1    
   114   59   60 1    
   115   59  114 1    
   116   59  115 1    
   117   60   61 1    
   118   61  116 1    
   119   61  117 1    
@<TRIPOS>SUBSTRUCTURE
     1 UNK         1 GROUP             0       ****    0 ROOT    
