@<TRIPOS>MOLECULE
3R8
117   119    1
SMALL
USER_CHARGES


@<TRIPOS>ATOM
      1 CA         18.0276  -27.2836  -48.7230 C.3       0 UNK        -0.2013 
      2 C          17.9476  -27.7083  -47.2646 C.2       0 UNK         0.4866 
      3 O          18.1603  -28.8797  -46.9550 O.2       0 UNK        -0.5176 
      4 N          17.6429  -26.7666  -46.3630 N.am      1 UNK        -0.4884 
      5 CA         17.5631  -26.9788  -44.9155 C.3       1 UNK         0.0853 
      6 C6         16.5617  -25.9814  -44.2808 C.3       10 UNK        -0.0849 
      7 S7         16.1151  -26.3374  -42.5486 S.3       10 UNK        -0.2776 
      8 C8         15.2327  -27.9307  -42.6725 C.3       10 UNK         0.0316 
      9 C9         16.1331  -29.0899  -42.2668 C.ar      10 UNK        -0.0863 
     10 C10        16.4819  -30.0937  -43.1781 C.ar      10 UNK        -0.1009 
     11 C11        17.3360  -31.1331  -42.7924 C.ar      10 UNK        -0.0712 
     12 C12        17.8289  -31.1723  -41.4858 C.ar      10 UNK        -0.0894 
     13 C13        17.4715  -30.1859  -40.5645 C.ar      10 UNK        -0.0745 
     14 C14        16.6183  -29.1537  -40.9578 C.ar      10 UNK        -0.0972 
     15 C15        18.0099  -30.2358  -39.1450 C.3       10 UNK         0.0209 
     16 S16        19.7722  -29.7979  -39.0810 S.3       10 UNK        -0.2568 
     17 C17        19.7482  -28.0126  -39.4532 C.3       10 UNK        -0.0983 
     18 CA         20.9094  -27.6241  -40.3999 C.3       3 UNK         0.0876 
     19 N          20.6625  -27.9783  -41.8054 N.am      3 UNK        -0.4424 
     20 C          21.6024  -27.9256  -42.7629 C.2       2 UNK         0.4918 
     21 O          22.7854  -27.6773  -42.5268 O.2       2 UNK        -0.4875 
     22 CA         21.1776  -28.1026  -44.2311 C.3       2 UNK         0.0481 
     23 CB         21.7324  -29.4121  -44.8060 C.3       2 UNK        -0.1831 
     24 N          19.7372  -28.0177  -44.4897 N.am      2 UNK        -0.4498 
     25 C          18.9836  -26.9224  -44.3162 C.2       1 UNK         0.5027 
     26 O          19.3934  -25.8938  -43.7730 O.2       1 UNK        -0.4969 
     27 C          21.3075  -26.1417  -40.2216 C.2       3 UNK         0.5005 
     28 O          21.9747  -25.8267  -39.2358 O.2       3 UNK        -0.5279 
     29 N          20.9979  -25.2738  -41.2003 N.am      4 UNK        -0.4463 
     30 CA         21.5351  -23.9105  -41.2992 C.3       4 UNK         0.0283 
     31 CB         20.8463  -23.1774  -42.4606 C.3       4 UNK        -0.1875 
     32 C          23.0698  -23.8613  -41.4690 C.2       4 UNK         0.4949 
     33 O          23.6828  -22.8630  -41.0920 O.2       4 UNK        -0.5039 
     34 N          23.6601  -24.9400  -42.0032 N.am      5 UNK        -0.4663 
     35 CA         25.1030  -25.1628  -42.1247 C.3       5 UNK         0.0242 
     36 CB         25.4137  -25.5410  -43.5846 C.3       5 UNK        -0.1982 
     37 C          25.5950  -26.2555  -41.1516 C.2       5 UNK         0.5017 
     38 O          26.7327  -26.7072  -41.2862 O.2       5 UNK        -0.5012 
     39 N          24.7385  -26.6658  -40.2011 N.am      6 UNK        -0.4439 
     40 CA         24.9433  -27.7098  -39.1892 C.3       6 UNK         0.0297 
     41 CB         26.0252  -27.2791  -38.1756 C.3       6 UNK        -0.2006 
     42 C          25.1902  -29.1222  -39.7649 C.2       6 UNK         0.4892 
     43 O          25.8847  -29.9182  -39.1295 O.2       6 UNK        -0.5089 
     44 N          24.6119  -29.4222  -40.9355 N.am      7 UNK        -0.4243 
     45 CA         24.6702  -30.7328  -41.5868 C.3       7 UNK         0.0196 
     46 CB         25.1292  -30.5370  -43.0401 C.3       7 UNK        -0.2007 
     47 C          23.2963  -31.4182  -41.5278 C.2       7 UNK         0.5020 
     48 O          22.2762  -30.7460  -41.3948 O.2       7 UNK        -0.5147 
     49 N          23.2852  -32.7508  -41.6486 N.am      8 UNK        -0.4734 
     50 CA         22.0823  -33.5879  -41.5236 C.3       8 UNK         0.0238 
     51 CB         22.4744  -34.8986  -40.8161 C.3       8 UNK        -0.1912 
     52 C          21.3704  -33.8695  -42.8638 C.2       8 UNK         0.5038 
     53 O          20.5174  -34.7568  -42.9093 O.2       8 UNK        -0.5046 
     54 N          21.7442  -33.1447  -43.9270 N.am      9 UNK        -0.4200 
     55 CA         21.2868  -33.3213  -45.3210 C.3       9 UNK         0.0839 
     56 C          21.8557  -34.5917  -46.0248 C.2       9 UNK         0.5513 
     57 N          22.8684  -35.2560  -45.4804 N.am      9 UNK        -0.7519 
     58 O          21.3959  -34.9671  -47.1004 O.2       9 UNK        -0.4960 
     59 C59        19.7459  -33.1811  -45.5208 C.3       10 UNK        -0.0876 
     60 S60        19.0720  -31.6186  -44.8647 S.3       10 UNK        -0.2414 
     61 C61        17.7417  -32.2123  -43.7818 C.3       10 UNK         0.0169 
     62 H62        19.0262  -27.4755  -49.1145 H         1 UNK         0.0903 
     63 H63        17.3134  -27.8520  -49.3182 H         1 UNK         0.0903 
     64 H64        17.8097  -26.2237  -48.8529 H         1 UNK         0.0903 
     65 H65        17.5108  -25.8133  -46.6718 H         1 UNK         0.3096 
     66 H66        17.1789  -27.9840  -44.7472 H         1 UNK         0.1121 
     67 H67        16.9477  -24.9614  -44.3330 H         1 UNK         0.0849 
     68 H68        15.6348  -25.9727  -44.8571 H         1 UNK         0.0849 
     69 H69        14.3700  -27.9064  -42.0050 H         1 UNK         0.0865 
     70 H70        14.8334  -28.0687  -43.6786 H         1 UNK         0.0865 
     71 H71        16.1048  -30.0646  -44.1915 H         1 UNK         0.1346 
     72 H72        18.4995  -31.9658  -41.1850 H         1 UNK         0.1412 
     73 H73        16.3434  -28.3837  -40.2494 H         1 UNK         0.1426 
     74 H74        17.8824  -31.2437  -38.7475 H         1 UNK         0.0716 
     75 H75        17.4471  -29.5728  -38.4859 H         1 UNK         0.0716 
     76 H76        18.7895  -27.7099  -39.8751 H         1 UNK         0.0695 
     77 H77        19.8303  -27.4995  -38.4927 H         1 UNK         0.0695 
     78 H78        21.7896  -28.1923  -40.0895 H         1 UNK         0.0983 
     79 H79        19.7173  -28.2255  -42.0581 H         1 UNK         0.3095 
     80 H80        21.6360  -27.2835  -44.7890 H         1 UNK         0.0454 
     81 H81        22.8120  -29.3490  -44.9290 H         1 UNK         0.0851 
     82 H82        21.5250  -30.2551  -44.1472 H         1 UNK         0.0851 
     83 H83        21.3162  -29.6344  -45.7888 H         1 UNK         0.0851 
     84 H84        19.3227  -28.8018  -44.9812 H         1 UNK         0.2976 
     85 H85        20.4409  -25.5969  -41.9861 H         1 UNK         0.3116 
     86 H86        21.2905  -23.3891  -40.3715 H         1 UNK         0.0646 
     87 H87        21.1880  -22.1437  -42.5280 H         1 UNK         0.0847 
     88 H88        19.7641  -23.1531  -42.3305 H         1 UNK         0.0847 
     89 H89        21.0567  -23.6536  -43.4192 H         1 UNK         0.0847 
     90 H90        23.0845  -25.7313  -42.2730 H         1 UNK         0.3040 
     91 H91        25.6513  -24.2504  -41.8809 H         1 UNK         0.1015 
     92 H92        24.9394  -26.4822  -43.8661 H         1 UNK         0.0786 
     93 H93        26.4868  -25.6560  -43.7423 H         1 UNK         0.0786 
     94 H94        25.0680  -24.7715  -44.2750 H         1 UNK         0.0786 
     95 H95        23.8397  -26.2000  -40.1532 H         1 UNK         0.3172 
     96 H96        24.0010  -27.7787  -38.6439 H         1 UNK         0.0595 
     97 H97        26.0758  -27.9732  -37.3359 H         1 UNK         0.0839 
     98 H98        27.0158  -27.2477  -38.6303 H         1 UNK         0.0839 
     99 H99        25.8131  -26.2926  -37.7635 H         1 UNK         0.0839 
    100 H100       24.0068  -28.7391  -41.3820 H         1 UNK         0.2998 
    101 H101       25.3899  -31.3822  -41.0840 H         1 UNK         0.0822 
    102 H102       25.0990  -31.4712  -43.6022 H         1 UNK         0.0787 
    103 H103       24.5067  -29.8126  -43.5616 H         1 UNK         0.0787 
    104 H104       26.1553  -30.1705  -43.0769 H         1 UNK         0.0787 
    105 H105       24.1614  -33.2373  -41.7808 H         1 UNK         0.3055 
    106 H106       21.3519  -33.0763  -40.8917 H         1 UNK         0.1106 
    107 H107       22.9448  -34.7036  -39.8521 H         1 UNK         0.0828 
    108 H108       21.5992  -35.5202  -40.6220 H         1 UNK         0.0828 
    109 H109       23.1674  -35.4902  -41.4154 H         1 UNK         0.0828 
    110 H110       22.4552  -32.4443  -43.7843 H         1 UNK         0.2931 
    111 H111       21.7440  -32.4921  -45.8622 H         1 UNK         0.0412 
    112 H112       23.2345  -36.0688  -45.9514 H         1 UNK         0.3472 
    113 H113       23.2667  -34.9580  -44.6051 H         1 UNK         0.3472 
    114 H114       19.2240  -34.0317  -45.0807 H         1 UNK         0.0970 
    115 H115       19.5006  -33.2064  -46.5840 H         1 UNK         0.0970 
    116 H116       16.8854  -32.5112  -44.3879 H         1 UNK         0.0612 
    117 H117       18.0735  -33.1035  -43.2464 H         1 UNK         0.0612 
@<TRIPOS>BOND
     1    1    2 1    
     2    1   62 1    
     3    1   63 1    
     4    1   64 1    
     5    2    3 2    
     6    2    4 am   BACKBONE|DICT|INTERRES
     7    4    5 1    
     8    4   65 1    
     9    5    6 1    
    10    5   25 1    
    11    5   66 1    
    12    6    7 1    
    13    6   67 1    
    14    6   68 1    
    15    7    8 1    
    16    8    9 1    
    17    8   69 1    
    18    8   70 1    
    19    9   10 ar   
    20    9   14 ar   
    21   10   11 ar   
    22   10   71 1    
    23   11   12 ar   
    24   11   61 1    
    25   12   13 ar   
    26   12   72 1    
    27   13   14 ar   
    28   13   15 1    
    29   14   73 1    
    30   15   16 1    
    31   15   74 1    
    32   15   75 1    
    33   16   17 1    
    34   17   18 1    
    35   17   76 1    
    36   17   77 1    
    37   18   19 1    
    38   18   27 1    
    39   18   78 1    
    40   19   20 am   BACKBONE|DICT|INTERRES
    41   19   79 1    
    42   20   21 2    
    43   20   22 1    
    44   22   23 1    
    45   22   24 1    
    46   22   80 1    
    47   23   81 1    
    48   23   82 1    
    49   23   83 1    
    50   24   25 am   BACKBONE|DICT|INTERRES
    51   24   84 1    
    52   25   26 2    
    53   27   28 2    
    54   27   29 am   BACKBONE|DICT|INTERRES
    55   29   30 1    
    56   29   85 1    
    57   30   31 1    
    58   30   32 1    
    59   30   86 1    
    60   31   87 1    
    61   31   88 1    
    62   31   89 1    
    63   32   33 2    
    64   32   34 am   BACKBONE|DICT|INTERRES
    65   34   35 1    
    66   34   90 1    
    67   35   36 1    
    68   35   37 1    
    69   35   91 1    
    70   36   92 1    
    71   36   93 1    
    72   36   94 1    
    73   37   38 2    
    74   37   39 am   BACKBONE|DICT|INTERRES
    75   39   40 1    
    76   39   95 1    
    77   40   41 1    
    78   40   42 1    
    79   40   96 1    
    80   41   97 1    
    81   41   98 1    
    82   41   99 1    
    83   42   43 2    
    84   42   44 am   BACKBONE|DICT|INTERRES
    85   44   45 1    
    86   44  100 1    
    87   45   46 1    
    88   45   47 1    
    89   45  101 1    
    90   46  102 1    
    91   46  103 1    
    92   46  104 1    
    93   47   48 2    
    94   47   49 am   BACKBONE|DICT|INTERRES
    95   49   50 1    
    96   49  105 1    
    97   50   51 1    
    98   50   52 1    
    99   50  106 1    
   100   51  107 1    
   101   51  108 1    
   102   51  109 1    
   103   52   53 2    
   104   52   54 am   BACKBONE|DICT|INTERRES
   105   54   55 1    
   106   54  110 1    
   107   55   56 1    
   108   55   59 1    
   109   55  111 1    
   110   56   57 am   BACKBONE|DICT|INTERRES
   111   56   58 2    
   112   57  112 1    
   113   57  113 1    
   114   59   60 1    
   115   59  114 1    
   116   59  115 1    
   117   60   61 1    
   118   61  116 1    
   119   61  117 1    
@<TRIPOS>SUBSTRUCTURE
     1 UNK         1 GROUP             0       ****    0 ROOT    
