@<TRIPOS>MOLECULE
3R8
117   119    1
SMALL
USER_CHARGES


@<TRIPOS>ATOM
      1 CA         20.4834  -27.5920  -41.6370 C.3       0 UNK        -0.2013 
      2 C          19.6201  -27.0542  -42.7639 C.2       0 UNK         0.4866 
      3 O          19.8045  -27.4328  -43.9212 O.2       0 UNK        -0.5176 
      4 N          18.6956  -26.1434  -42.4229 N.am      1 UNK        -0.4884 
      5 CA         17.6368  -25.5783  -43.2824 C.3       1 UNK         0.0853 
      6 C6         16.5757  -26.6349  -43.6951 C.3       10 UNK        -0.0849 
      7 S7         15.8990  -27.5982  -42.2919 S.3       10 UNK        -0.2776 
      8 C8         15.1264  -29.0269  -43.1289 C.3       10 UNK         0.0316 
      9 C9         16.1184  -29.7828  -44.0017 C.ar      10 UNK        -0.0863 
     10 C10        17.0413  -30.6657  -43.4318 C.ar      10 UNK        -0.1009 
     11 C11        18.0122  -31.2843  -44.2268 C.ar      10 UNK        -0.0712 
     12 C12        18.0475  -31.0199  -45.5997 C.ar      10 UNK        -0.0894 
     13 C13        17.1288  -30.1385  -46.1777 C.ar      10 UNK        -0.0745 
     14 C14        16.1477  -29.5491  -45.3795 C.ar      10 UNK        -0.0972 
     15 C15        17.2290  -29.7686  -47.6504 C.3       10 UNK         0.0209 
     16 S16        18.0312  -28.1443  -47.8730 S.3       10 UNK        -0.2568 
     17 C17        19.7061  -28.5179  -47.2640 C.3       10 UNK        -0.0983 
     18 CA         20.6805  -27.3190  -47.3432 C.3       3 UNK         0.0876 
     19 N          20.2792  -26.2060  -46.4781 N.am      3 UNK        -0.4424 
     20 C          20.5964  -24.9212  -46.6927 C.2       2 UNK         0.4918 
     21 O          21.1659  -24.5309  -47.7130 O.2       2 UNK        -0.4875 
     22 CA         20.2758  -23.8945  -45.5817 C.3       2 UNK         0.0481 
     23 CB         19.6929  -22.5818  -46.1468 C.3       2 UNK        -0.1831 
     24 N          19.4575  -24.4258  -44.4836 N.am      2 UNK        -0.4498 
     25 C          18.1738  -24.8170  -44.5219 C.2       1 UNK         0.5027 
     26 O          17.4344  -24.6301  -45.4892 O.2       1 UNK        -0.4969 
     27 C          22.0929  -27.7931  -46.9572 C.2       3 UNK         0.5005 
     28 O          22.9070  -28.0694  -47.8401 O.2       3 UNK        -0.5279 
     29 N          22.3498  -27.8883  -45.6472 N.am      4 UNK        -0.4463 
     30 CA         23.6003  -28.3489  -45.0519 C.3       4 UNK         0.0283 
     31 CB         23.5916  -29.8896  -44.9611 C.3       4 UNK        -0.1875 
     32 C          23.7792  -27.6794  -43.6815 C.2       4 UNK         0.4949 
     33 O          23.0670  -26.7240  -43.3631 O.2       4 UNK        -0.5039 
     34 N          24.7353  -28.1832  -42.8931 N.am      5 UNK        -0.4663 
     35 CA         24.9536  -27.7766  -41.5060 C.3       5 UNK         0.0242 
     36 CB         26.3481  -28.2475  -41.0607 C.3       5 UNK        -0.1982 
     37 C          23.8799  -28.3738  -40.5842 C.2       5 UNK         0.5017 
     38 O          23.4562  -29.5138  -40.7944 O.2       5 UNK        -0.5012 
     39 N          23.5138  -27.6313  -39.5310 N.am      6 UNK        -0.4439 
     40 CA         22.5842  -28.0816  -38.4871 C.3       6 UNK         0.0297 
     41 CB         22.2707  -26.9159  -37.5367 C.3       6 UNK        -0.2006 
     42 C          23.0978  -29.3017  -37.7008 C.2       6 UNK         0.4892 
     43 O          22.2916  -30.1178  -37.2585 O.2       6 UNK        -0.5089 
     44 N          24.4271  -29.4309  -37.5865 N.am      7 UNK        -0.4243 
     45 CA         25.1077  -30.5932  -37.0130 C.3       7 UNK         0.0196 
     46 CB         26.5904  -30.2489  -36.7967 C.3       7 UNK        -0.2007 
     47 C          24.9729  -31.8687  -37.8670 C.2       7 UNK         0.5020 
     48 O          25.0828  -32.9646  -37.3167 O.2       7 UNK        -0.5147 
     49 N          24.7484  -31.7174  -39.1808 N.am      8 UNK        -0.4734 
     50 CA         24.5298  -32.8293  -40.1062 C.3       8 UNK         0.0238 
     51 CB         25.0299  -32.4519  -41.5122 C.3       8 UNK        -0.1912 
     52 C          23.0508  -33.2380  -40.1363 C.2       8 UNK         0.5038 
     53 O          22.7557  -34.4287  -40.0230 O.2       8 UNK        -0.5046 
     54 N          22.1554  -32.2528  -40.2902 N.am      9 UNK        -0.4200 
     55 CA         20.7005  -32.4722  -40.3555 C.3       9 UNK         0.0839 
     56 C          20.0260  -32.7719  -38.9882 C.2       9 UNK         0.5513 
     57 N          20.5922  -32.3749  -37.8567 N.am      9 UNK        -0.7519 
     58 O          18.9659  -33.3913  -38.9555 O.2       9 UNK        -0.4960 
     59 C59        19.9752  -31.3243  -41.1005 C.3       10 UNK        -0.0876 
     60 S60        20.4267  -31.2927  -42.8683 S.3       10 UNK        -0.2414 
     61 C61        19.0431  -32.2178  -43.6095 C.3       10 UNK         0.0169 
     62 H62        21.0800  -28.4352  -41.9839 H         1 UNK         0.0903 
     63 H63        19.8673  -27.9281  -40.8039 H         1 UNK         0.0903 
     64 H64        21.1650  -26.8208  -41.2799 H         1 UNK         0.0903 
     65 H65        18.6327  -25.8682  -41.4521 H         1 UNK         0.3096 
     66 H66        17.1289  -24.8243  -42.6789 H         1 UNK         0.1121 
     67 H67        15.7367  -26.1650  -44.2116 H         1 UNK         0.0849 
     68 H68        17.0372  -27.3117  -44.4122 H         1 UNK         0.0849 
     69 H69        14.7137  -29.7002  -42.3762 H         1 UNK         0.0865 
     70 H70        14.2793  -28.6792  -43.7224 H         1 UNK         0.0865 
     71 H71        17.0238  -30.8424  -42.3657 H         1 UNK         0.1346 
     72 H72        18.8145  -31.4726  -46.2131 H         1 UNK         0.1412 
     73 H73        15.4501  -28.8514  -45.8231 H         1 UNK         0.1426 
     74 H74        17.7822  -30.5284  -48.2047 H         1 UNK         0.0716 
     75 H75        16.2304  -29.7351  -48.0886 H         1 UNK         0.0716 
     76 H76        20.0863  -29.3596  -47.8469 H         1 UNK         0.0695 
     77 H77        19.6312  -28.8658  -46.2325 H         1 UNK         0.0695 
     78 H78        20.7158  -26.9764  -48.3798 H         1 UNK         0.0983 
     79 H79        19.8525  -26.4701  -45.5944 H         1 UNK         0.3095 
     80 H80        21.2368  -23.6492  -45.1275 H         1 UNK         0.0454 
     81 H81        19.4709  -21.8697  -45.3522 H         1 UNK         0.0851 
     82 H82        18.7772  -22.7517  -46.7132 H         1 UNK         0.0851 
     83 H83        20.4011  -22.1001  -46.8218 H         1 UNK         0.0851 
     84 H84        19.9663  -24.6482  -43.6386 H         1 UNK         0.2976 
     85 H85        21.6374  -27.6057  -44.9790 H         1 UNK         0.3116 
     86 H86        24.4351  -28.0289  -45.6787 H         1 UNK         0.0646 
     87 H87        23.3680  -30.3455  -45.9256 H         1 UNK         0.0847 
     88 H88        24.5591  -30.2804  -44.6460 H         1 UNK         0.0847 
     89 H89        22.8470  -30.2422  -44.2471 H         1 UNK         0.0847 
     90 H90        25.2589  -28.9833  -43.2157 H         1 UNK         0.3040 
     91 H91        24.9115  -26.6863  -41.4489 H         1 UNK         0.1015 
     92 H92        26.4380  -29.3346  -41.0896 H         1 UNK         0.0786 
     93 H93        26.5637  -27.9296  -40.0398 H         1 UNK         0.0786 
     94 H94        27.1288  -27.8305  -41.6975 H         1 UNK         0.0786 
     95 H95        23.9106  -26.7088  -39.4189 H         1 UNK         0.3172 
     96 H96        21.6551  -28.3813  -38.9760 H         1 UNK         0.0595 
     97 H97        23.1660  -26.5525  -37.0306 H         1 UNK         0.0839 
     98 H98        21.5630  -27.2228  -36.7651 H         1 UNK         0.0839 
     99 H99        21.8208  -26.0782  -38.0698 H         1 UNK         0.0839 
    100 H100       25.0120  -28.7026  -37.9682 H         1 UNK         0.2998 
    101 H101       24.6571  -30.8022  -36.0401 H         1 UNK         0.0822 
    102 H102       26.7071  -29.3936  -36.1309 H         1 UNK         0.0787 
    103 H103       27.1226  -31.0857  -36.3419 H         1 UNK         0.0787 
    104 H104       27.0926  -30.0160  -37.7367 H         1 UNK         0.0787 
    105 H105       24.6060  -30.7869  -39.5534 H         1 UNK         0.3055 
    106 H106       25.1073  -33.6947  -39.7721 H         1 UNK         0.1106 
    107 H107       26.0846  -32.1772  -41.4969 H         1 UNK         0.0828 
    108 H108       24.9251  -33.2938  -42.1976 H         1 UNK         0.0828 
    109 H109       24.4730  -31.6185  -41.9405 H         1 UNK         0.0828 
    110 H110       22.4827  -31.3001  -40.4043 H         1 UNK         0.2931 
    111 H111       20.5426  -33.3755  -40.9492 H         1 UNK         0.0412 
    112 H112       20.1375  -32.5906  -36.9841 H         1 UNK         0.3472 
    113 H113       21.4080  -31.7723  -37.8539 H         1 UNK         0.3472 
    114 H114       18.8915  -31.4156  -41.0125 H         1 UNK         0.0970 
    115 H115       20.2312  -30.3648  -40.6506 H         1 UNK         0.0970 
    116 H116       19.4472  -32.8841  -44.3731 H         1 UNK         0.0612 
    117 H117       18.5719  -32.8651  -42.8684 H         1 UNK         0.0612 
@<TRIPOS>BOND
     1    1    2 1    
     2    1   62 1    
     3    1   63 1    
     4    1   64 1    
     5    2    3 2    
     6    2    4 am   BACKBONE|DICT|INTERRES
     7    4    5 1    
     8    4   65 1    
     9    5    6 1    
    10    5   25 1    
    11    5   66 1    
    12    6    7 1    
    13    6   67 1    
    14    6   68 1    
    15    7    8 1    
    16    8    9 1    
    17    8   69 1    
    18    8   70 1    
    19    9   10 ar   
    20    9   14 ar   
    21   10   11 ar   
    22   10   71 1    
    23   11   12 ar   
    24   11   61 1    
    25   12   13 ar   
    26   12   72 1    
    27   13   14 ar   
    28   13   15 1    
    29   14   73 1    
    30   15   16 1    
    31   15   74 1    
    32   15   75 1    
    33   16   17 1    
    34   17   18 1    
    35   17   76 1    
    36   17   77 1    
    37   18   19 1    
    38   18   27 1    
    39   18   78 1    
    40   19   20 am   BACKBONE|DICT|INTERRES
    41   19   79 1    
    42   20   21 2    
    43   20   22 1    
    44   22   23 1    
    45   22   24 1    
    46   22   80 1    
    47   23   81 1    
    48   23   82 1    
    49   23   83 1    
    50   24   25 am   BACKBONE|DICT|INTERRES
    51   24   84 1    
    52   25   26 2    
    53   27   28 2    
    54   27   29 am   BACKBONE|DICT|INTERRES
    55   29   30 1    
    56   29   85 1    
    57   30   31 1    
    58   30   32 1    
    59   30   86 1    
    60   31   87 1    
    61   31   88 1    
    62   31   89 1    
    63   32   33 2    
    64   32   34 am   BACKBONE|DICT|INTERRES
    65   34   35 1    
    66   34   90 1    
    67   35   36 1    
    68   35   37 1    
    69   35   91 1    
    70   36   92 1    
    71   36   93 1    
    72   36   94 1    
    73   37   38 2    
    74   37   39 am   BACKBONE|DICT|INTERRES
    75   39   40 1    
    76   39   95 1    
    77   40   41 1    
    78   40   42 1    
    79   40   96 1    
    80   41   97 1    
    81   41   98 1    
    82   41   99 1    
    83   42   43 2    
    84   42   44 am   BACKBONE|DICT|INTERRES
    85   44   45 1    
    86   44  100 1    
    87   45   46 1    
    88   45   47 1    
    89   45  101 1    
    90   46  102 1    
    91   46  103 1    
    92   46  104 1    
    93   47   48 2    
    94   47   49 am   BACKBONE|DICT|INTERRES
    95   49   50 1    
    96   49  105 1    
    97   50   51 1    
    98   50   52 1    
    99   50  106 1    
   100   51  107 1    
   101   51  108 1    
   102   51  109 1    
   103   52   53 2    
   104   52   54 am   BACKBONE|DICT|INTERRES
   105   54   55 1    
   106   54  110 1    
   107   55   56 1    
   108   55   59 1    
   109   55  111 1    
   110   56   57 am   BACKBONE|DICT|INTERRES
   111   56   58 2    
   112   57  112 1    
   113   57  113 1    
   114   59   60 1    
   115   59  114 1    
   116   59  115 1    
   117   60   61 1    
   118   61  116 1    
   119   61  117 1    
@<TRIPOS>SUBSTRUCTURE
     1 UNK         1 GROUP             0       ****    0 ROOT    
