@<TRIPOS>MOLECULE
3R8
117   119    1
SMALL
USER_CHARGES


@<TRIPOS>ATOM
      1 CA         17.4139  -27.4095  -37.3768 C.3       0 UNK        -0.2013 
      2 C          17.4691  -26.9553  -38.8277 C.2       0 UNK         0.4866 
      3 O          17.0769  -25.8292  -39.1335 O.2       0 UNK        -0.5176 
      4 N          17.9521  -27.8219  -39.7214 N.am      1 UNK        -0.4884 
      5 CA         18.1344  -27.5624  -41.1476 C.3       1 UNK         0.0853 
      6 C6         16.8195  -27.7682  -41.9473 C.3       10 UNK        -0.0849 
      7 S7         16.8181  -26.8896  -43.5494 S.3       10 UNK        -0.2776 
      8 C8         16.0624  -28.1188  -44.6625 C.3       10 UNK         0.0316 
      9 C9         17.0745  -29.1046  -45.2357 C.ar      10 UNK        -0.0863 
     10 C10        17.2462  -30.3651  -44.6559 C.ar      10 UNK        -0.1009 
     11 C11        18.1186  -31.3037  -45.2259 C.ar      10 UNK        -0.0712 
     12 C12        18.8123  -30.9595  -46.3913 C.ar      10 UNK        -0.0894 
     13 C13        18.6587  -29.6996  -46.9855 C.ar      10 UNK        -0.0745 
     14 C14        17.7886  -28.7785  -46.3930 C.ar      10 UNK        -0.0972 
     15 C15        19.3483  -29.3217  -48.3013 C.3       10 UNK         0.0209 
     16 S16        20.8561  -30.2773  -48.7210 S.3       10 UNK        -0.2568 
     17 C17        22.3129  -29.2752  -48.2318 C.3       10 UNK        -0.0983 
     18 CA         22.1269  -28.2109  -47.1196 C.3       3 UNK         0.0876 
     19 N          21.6414  -28.8123  -45.8798 N.am      3 UNK        -0.4424 
     20 C          21.0116  -28.1460  -44.9086 C.2       2 UNK         0.4918 
     21 O          20.6914  -26.9558  -44.9893 O.2       2 UNK        -0.4875 
     22 CA         20.7477  -28.9296  -43.6231 C.3       2 UNK         0.0481 
     23 CB         22.0628  -29.1038  -42.8439 C.3       2 UNK        -0.1831 
     24 N          19.7539  -28.1902  -42.8554 N.am      2 UNK        -0.4498 
     25 C          19.2680  -28.4716  -41.6467 C.2       1 UNK         0.5027 
     26 O          19.6555  -29.4083  -40.9429 O.2       1 UNK        -0.4969 
     27 C          23.4326  -27.4437  -46.8105 C.2       3 UNK         0.5005 
     28 O          24.5246  -27.9445  -47.0815 O.2       3 UNK        -0.5279 
     29 N          23.2892  -26.2816  -46.1558 N.am      4 UNK        -0.4463 
     30 CA         24.3178  -25.3636  -45.6407 C.3       4 UNK         0.0283 
     31 CB         25.2671  -24.8867  -46.7577 C.3       4 UNK        -0.1875 
     32 C          25.1102  -25.8784  -44.4217 C.2       4 UNK         0.4949 
     33 O          25.6500  -25.0574  -43.6789 O.2       4 UNK        -0.5039 
     34 N          25.1621  -27.1990  -44.2052 N.am      5 UNK        -0.4663 
     35 CA         25.8808  -27.8722  -43.1166 C.3       5 UNK         0.0242 
     36 CB         26.1196  -29.3410  -43.5163 C.3       5 UNK        -0.1982 
     37 C          25.1870  -27.7375  -41.7432 C.2       5 UNK         0.5017 
     38 O          24.8586  -28.7470  -41.1173 O.2       5 UNK        -0.5012 
     39 N          24.9751  -26.4911  -41.3004 N.am      6 UNK        -0.4439 
     40 CA         24.3965  -26.0852  -40.0150 C.3       6 UNK         0.0297 
     41 CB         25.3954  -26.3658  -38.8681 C.3       6 UNK        -0.2006 
     42 C          22.9906  -26.6782  -39.7848 C.2       6 UNK         0.4892 
     43 O          22.0539  -26.2735  -40.4743 O.2       6 UNK        -0.5089 
     44 N          22.8708  -27.6042  -38.8251 N.am      7 UNK        -0.4243 
     45 CA         21.6316  -28.2731  -38.4276 C.3       7 UNK         0.0196 
     46 CB         21.2099  -27.7631  -37.0363 C.3       7 UNK        -0.2007 
     47 C          21.7925  -29.8047  -38.4753 C.2       7 UNK         0.5020 
     48 O          21.2292  -30.5056  -37.6343 O.2       7 UNK        -0.5147 
     49 N          22.5848  -30.3044  -39.4344 N.am      8 UNK        -0.4734 
     50 CA         22.9255  -31.7235  -39.5883 C.3       8 UNK         0.0238 
     51 CB         24.1051  -31.8509  -40.5676 C.3       8 UNK        -0.1912 
     52 C          21.7741  -32.6560  -40.0193 C.2       8 UNK         0.5038 
     53 O          21.9242  -33.8689  -39.8606 O.2       8 UNK        -0.5046 
     54 N          20.6772  -32.1198  -40.5746 N.am      9 UNK        -0.4200 
     55 CA         19.5096  -32.9037  -41.0112 C.3       9 UNK         0.0839 
     56 C          18.7335  -33.5109  -39.8103 C.2       9 UNK         0.5513 
     57 N          18.3739  -34.7855  -39.8783 N.am      9 UNK        -0.7519 
     58 O          18.4236  -32.8257  -38.8382 O.2       9 UNK        -0.4960 
     59 C59        18.5809  -32.0633  -41.9244 C.3       10 UNK        -0.0876 
     60 S60        17.5538  -33.0710  -43.0434 S.3       10 UNK        -0.2414 
     61 C61        18.3266  -32.7143  -44.6611 C.3       10 UNK         0.0169 
     62 H62        16.3918  -27.3498  -37.0039 H         1 UNK         0.0903 
     63 H63        17.7574  -28.4371  -37.2580 H         1 UNK         0.0903 
     64 H64        18.0403  -26.7671  -36.7585 H         1 UNK         0.0903 
     65 H65        18.3149  -28.7229  -39.4318 H         1 UNK         0.3096 
     66 H66        18.4754  -26.5300  -41.2590 H         1 UNK         0.1121 
     67 H67        16.6090  -28.8300  -42.0865 H         1 UNK         0.0849 
     68 H68        15.9739  -27.3747  -41.3810 H         1 UNK         0.0849 
     69 H69        15.5783  -27.5863  -45.4826 H         1 UNK         0.0865 
     70 H70        15.2607  -28.6466  -44.1435 H         1 UNK         0.0865 
     71 H71        16.6751  -30.6135  -43.7737 H         1 UNK         0.1346 
     72 H72        19.4601  -31.6955  -46.8460 H         1 UNK         0.1412 
     73 H73        17.6438  -27.8088  -46.8501 H         1 UNK         0.1426 
     74 H74        19.5532  -28.2529  -48.3395 H         1 UNK         0.0716 
     75 H75        18.6262  -29.5031  -49.0983 H         1 UNK         0.0716 
     76 H76        22.6788  -28.7894  -49.1383 H         1 UNK         0.0695 
     77 H77        23.0928  -29.9837  -47.9456 H         1 UNK         0.0695 
     78 H78        21.4090  -27.4688  -47.4713 H         1 UNK         0.0983 
     79 H79        21.8661  -29.7871  -45.7460 H         1 UNK         0.3095 
     80 H80        20.3382  -29.9041  -43.8892 H         1 UNK         0.0454 
     81 H81        21.9463  -29.7895  -42.0094 H         1 UNK         0.0851 
     82 H82        22.4151  -28.1496  -42.4545 H         1 UNK         0.0851 
     83 H83        22.8523  -29.5156  -43.4715 H         1 UNK         0.0851 
     84 H84        19.3702  -27.4010  -43.3643 H         1 UNK         0.2976 
     85 H85        22.3394  -26.0414  -45.8871 H         1 UNK         0.3116 
     86 H86        23.7681  -24.4888  -45.2896 H         1 UNK         0.0646 
     87 H87        25.9360  -24.1070  -46.3911 H         1 UNK         0.0847 
     88 H88        24.7142  -24.4686  -47.5987 H         1 UNK         0.0847 
     89 H89        25.8945  -25.6945  -47.1352 H         1 UNK         0.0847 
     90 H90        24.7347  -27.7937  -44.9029 H         1 UNK         0.3040 
     91 H91        26.8607  -27.4003  -43.0147 H         1 UNK         0.1015 
     92 H92        26.6798  -29.4121  -44.4488 H         1 UNK         0.0786 
     93 H93        25.1847  -29.8861  -43.6451 H         1 UNK         0.0786 
     94 H94        26.6978  -29.8647  -42.7536 H         1 UNK         0.0786 
     95 H95        25.2280  -25.7385  -41.9365 H         1 UNK         0.3172 
     96 H96        24.2606  -25.0041  -40.0698 H         1 UNK         0.0595 
     97 H97        25.6454  -27.4239  -38.7826 H         1 UNK         0.0839 
     98 H98        24.9979  -26.0361  -37.9070 H         1 UNK         0.0839 
     99 H99        26.3281  -25.8240  -39.0255 H         1 UNK         0.0839 
    100 H100       23.7091  -27.9031  -38.3462 H         1 UNK         0.2998 
    101 H101       20.8339  -28.0224  -39.1259 H         1 UNK         0.0822 
    102 H102       21.9614  -27.9918  -36.2799 H         1 UNK         0.0787 
    103 H103       21.0560  -26.6839  -37.0417 H         1 UNK         0.0787 
    104 H104       20.2736  -28.2199  -36.7148 H         1 UNK         0.0787 
    105 H105       23.0493  -29.6588  -40.0630 H         1 UNK         0.3055 
    106 H106       23.2609  -32.0843  -38.6133 H         1 UNK         0.1106 
    107 H107       24.4006  -32.8929  -40.6975 H         1 UNK         0.0828 
    108 H108       23.8571  -31.4569  -41.5537 H         1 UNK         0.0828 
    109 H109       24.9815  -31.3143  -40.2039 H         1 UNK         0.0828 
    110 H110       20.5781  -31.1104  -40.6187 H         1 UNK         0.2931 
    111 H111       19.9062  -33.7238  -41.6142 H         1 UNK         0.0412 
    112 H112       18.6069  -35.3465  -40.6833 H         1 UNK         0.3472 
    113 H113       17.8569  -35.1930  -39.1149 H         1 UNK         0.3472 
    114 H114       17.9309  -31.4117  -41.3373 H         1 UNK         0.0970 
    115 H115       19.1826  -31.3993  -42.5428 H         1 UNK         0.0970 
    116 H116       19.3959  -32.9172  -44.5827 H         1 UNK         0.0612 
    117 H117       17.9306  -33.4300  -45.3827 H         1 UNK         0.0612 
@<TRIPOS>BOND
     1    1    2 1    
     2    1   62 1    
     3    1   63 1    
     4    1   64 1    
     5    2    3 2    
     6    2    4 am   BACKBONE|DICT|INTERRES
     7    4    5 1    
     8    4   65 1    
     9    5    6 1    
    10    5   25 1    
    11    5   66 1    
    12    6    7 1    
    13    6   67 1    
    14    6   68 1    
    15    7    8 1    
    16    8    9 1    
    17    8   69 1    
    18    8   70 1    
    19    9   10 ar   
    20    9   14 ar   
    21   10   11 ar   
    22   10   71 1    
    23   11   12 ar   
    24   11   61 1    
    25   12   13 ar   
    26   12   72 1    
    27   13   14 ar   
    28   13   15 1    
    29   14   73 1    
    30   15   16 1    
    31   15   74 1    
    32   15   75 1    
    33   16   17 1    
    34   17   18 1    
    35   17   76 1    
    36   17   77 1    
    37   18   19 1    
    38   18   27 1    
    39   18   78 1    
    40   19   20 am   BACKBONE|DICT|INTERRES
    41   19   79 1    
    42   20   21 2    
    43   20   22 1    
    44   22   23 1    
    45   22   24 1    
    46   22   80 1    
    47   23   81 1    
    48   23   82 1    
    49   23   83 1    
    50   24   25 am   BACKBONE|DICT|INTERRES
    51   24   84 1    
    52   25   26 2    
    53   27   28 2    
    54   27   29 am   BACKBONE|DICT|INTERRES
    55   29   30 1    
    56   29   85 1    
    57   30   31 1    
    58   30   32 1    
    59   30   86 1    
    60   31   87 1    
    61   31   88 1    
    62   31   89 1    
    63   32   33 2    
    64   32   34 am   BACKBONE|DICT|INTERRES
    65   34   35 1    
    66   34   90 1    
    67   35   36 1    
    68   35   37 1    
    69   35   91 1    
    70   36   92 1    
    71   36   93 1    
    72   36   94 1    
    73   37   38 2    
    74   37   39 am   BACKBONE|DICT|INTERRES
    75   39   40 1    
    76   39   95 1    
    77   40   41 1    
    78   40   42 1    
    79   40   96 1    
    80   41   97 1    
    81   41   98 1    
    82   41   99 1    
    83   42   43 2    
    84   42   44 am   BACKBONE|DICT|INTERRES
    85   44   45 1    
    86   44  100 1    
    87   45   46 1    
    88   45   47 1    
    89   45  101 1    
    90   46  102 1    
    91   46  103 1    
    92   46  104 1    
    93   47   48 2    
    94   47   49 am   BACKBONE|DICT|INTERRES
    95   49   50 1    
    96   49  105 1    
    97   50   51 1    
    98   50   52 1    
    99   50  106 1    
   100   51  107 1    
   101   51  108 1    
   102   51  109 1    
   103   52   53 2    
   104   52   54 am   BACKBONE|DICT|INTERRES
   105   54   55 1    
   106   54  110 1    
   107   55   56 1    
   108   55   59 1    
   109   55  111 1    
   110   56   57 am   BACKBONE|DICT|INTERRES
   111   56   58 2    
   112   57  112 1    
   113   57  113 1    
   114   59   60 1    
   115   59  114 1    
   116   59  115 1    
   117   60   61 1    
   118   61  116 1    
   119   61  117 1    
@<TRIPOS>SUBSTRUCTURE
     1 UNK         1 GROUP             0       ****    0 ROOT    
