@<TRIPOS>MOLECULE
3R8
117   119    1
SMALL
USER_CHARGES


@<TRIPOS>ATOM
      1 CA         20.4881  -27.9445  -49.7730 C.3       0 UNK        -0.2013 
      2 C          20.2247  -27.8526  -48.2774 C.2       0 UNK         0.4866 
      3 O          21.1703  -27.8472  -47.4892 O.2       0 UNK        -0.5176 
      4 N          18.9473  -27.7885  -47.8818 N.am      1 UNK        -0.4884 
      5 CA         18.5052  -27.6569  -46.4900 C.3       1 UNK         0.0853 
      6 C6         16.9911  -27.9401  -46.3391 C.3       10 UNK        -0.0849 
      7 S7         16.6115  -29.6890  -46.6939 S.3       10 UNK        -0.2776 
      8 C8         16.0251  -30.2929  -45.0746 C.3       10 UNK         0.0316 
      9 C9         17.0179  -30.0652  -43.9379 C.ar      10 UNK        -0.0863 
     10 C10        18.3316  -30.5356  -44.0278 C.ar      10 UNK        -0.1009 
     11 C11        19.2329  -30.3601  -42.9672 C.ar      10 UNK        -0.0712 
     12 C12        18.7996  -29.6938  -41.8154 C.ar      10 UNK        -0.0894 
     13 C13        17.4884  -29.2211  -41.7100 C.ar      10 UNK        -0.0745 
     14 C14        16.6043  -29.4102  -42.7751 C.ar      10 UNK        -0.0972 
     15 C15        17.0025  -28.5411  -40.4374 C.3       10 UNK         0.0209 
     16 S16        16.7781  -26.7514  -40.6820 S.3       10 UNK        -0.2568 
     17 C17        18.1657  -26.0483  -39.7272 C.3       10 UNK        -0.0983 
     18 CA         19.5224  -26.0780  -40.4733 C.3       3 UNK         0.0876 
     19 N          19.4185  -25.5374  -41.8325 N.am      3 UNK        -0.4424 
     20 C          20.4177  -25.4842  -42.7188 C.2       2 UNK         0.4918 
     21 O          21.5675  -25.8526  -42.4835 O.2       2 UNK        -0.4875 
     22 CA         20.0440  -25.0348  -44.1312 C.3       2 UNK         0.0481 
     23 CB         21.2254  -24.3754  -44.8713 C.3       2 UNK        -0.1831 
     24 N          19.6023  -26.2320  -44.8351 N.am      2 UNK        -0.4498 
     25 C          18.8583  -26.2607  -45.9440 C.2       1 UNK         0.5027 
     26 O          18.4445  -25.2552  -46.5268 O.2       1 UNK        -0.4969 
     27 C          20.6045  -25.3584  -39.6405 C.2       3 UNK         0.5005 
     28 O          20.7427  -24.1369  -39.7445 O.2       3 UNK        -0.5279 
     29 N          21.3583  -26.1323  -38.8479 N.am      4 UNK        -0.4463 
     30 CA         22.4952  -25.7469  -37.9974 C.3       4 UNK         0.0283 
     31 CB         22.1265  -24.6414  -36.9880 C.3       4 UNK        -0.1875 
     32 C          23.7765  -25.3960  -38.7763 C.2       4 UNK         0.4949 
     33 O          24.8638  -25.7244  -38.3009 O.2       4 UNK        -0.5039 
     34 N          23.6466  -24.7759  -39.9576 N.am      5 UNK        -0.4663 
     35 CA         24.7395  -24.5819  -40.9160 C.3       5 UNK         0.0242 
     36 CB         24.3156  -23.5705  -41.9934 C.3       5 UNK        -0.1982 
     37 C          25.1699  -25.9189  -41.5442 C.2       5 UNK         0.5017 
     38 O          26.3664  -26.1990  -41.6250 O.2       5 UNK        -0.5012 
     39 N          24.1771  -26.7295  -41.9238 N.am      6 UNK        -0.4439 
     40 CA         24.2965  -28.1373  -42.2775 C.3       6 UNK         0.0297 
     41 CB         23.7042  -28.3532  -43.6804 C.3       6 UNK        -0.2006 
     42 C          23.5282  -28.9614  -41.2344 C.2       6 UNK         0.4892 
     43 O          22.5785  -28.4643  -40.6206 O.2       6 UNK        -0.5089 
     44 N          23.9385  -30.2205  -41.0734 N.am      7 UNK        -0.4243 
     45 CA         23.3429  -31.1985  -40.1702 C.3       7 UNK         0.0196 
     46 CB         23.9409  -31.0386  -38.7602 C.3       7 UNK        -0.2007 
     47 C          23.6047  -32.5994  -40.7341 C.2       7 UNK         0.5020 
     48 O          24.4853  -32.7588  -41.5837 O.2       7 UNK        -0.5147 
     49 N          22.8379  -33.5834  -40.2429 N.am      8 UNK        -0.4734 
     50 CA         22.8789  -35.0054  -40.6224 C.3       8 UNK         0.0238 
     51 CB         24.2153  -35.6517  -40.1954 C.3       8 UNK        -0.1912 
     52 C          22.5367  -35.2578  -42.1066 C.2       8 UNK         0.5038 
     53 O          23.0915  -36.1715  -42.7208 O.2       8 UNK        -0.5046 
     54 N          21.6242  -34.4413  -42.6494 N.am      9 UNK        -0.4200 
     55 CA         21.0788  -34.5575  -44.0086 C.3       9 UNK         0.0839 
     56 C          20.2571  -35.8613  -44.2048 C.2       9 UNK         0.5513 
     57 N          20.3087  -36.4538  -45.3898 N.am      9 UNK        -0.7519 
     58 O          19.5426  -36.3113  -43.3109 O.2       9 UNK        -0.4960 
     59 C59        20.2224  -33.3196  -44.3781 C.3       10 UNK        -0.0876 
     60 S60        21.2034  -31.7820  -44.4872 S.3       10 UNK        -0.2414 
     61 C61        20.6748  -30.8744  -42.9928 C.3       10 UNK         0.0169 
     62 H62        21.0374  -28.8575  -50.0015 H         1 UNK         0.0903 
     63 H63        19.5640  -27.9514  -50.3509 H         1 UNK         0.0903 
     64 H64        21.0869  -27.0953  -50.1010 H         1 UNK         0.0903 
     65 H65        18.2105  -27.7910  -48.5727 H         1 UNK         0.3096 
     66 H66        19.0488  -28.3999  -45.9014 H         1 UNK         0.1121 
     67 H67        16.6470  -27.6927  -45.3328 H         1 UNK         0.0849 
     68 H68        16.4096  -27.3106  -47.0153 H         1 UNK         0.0849 
     69 H69        15.0685  -29.8162  -44.8548 H         1 UNK         0.0865 
     70 H70        15.8209  -31.3616  -45.1520 H         1 UNK         0.0865 
     71 H71        18.6343  -31.0416  -44.9327 H         1 UNK         0.1346 
     72 H72        19.4859  -29.5578  -40.9904 H         1 UNK         0.1412 
     73 H73        15.5875  -29.0510  -42.6893 H         1 UNK         0.1426 
     74 H74        17.6852  -28.7329  -39.6086 H         1 UNK         0.0716 
     75 H75        16.0453  -28.9751  -40.1444 H         1 UNK         0.0716 
     76 H76        18.2387  -26.5707  -38.7714 H         1 UNK         0.0695 
     77 H77        17.8938  -25.0190  -39.4838 H         1 UNK         0.0695 
     78 H78        19.8274  -27.1203  -40.5854 H         1 UNK         0.0983 
     79 H79        18.4958  -25.2395  -42.1126 H         1 UNK         0.3095 
     80 H80        19.2206  -24.3204  -44.0660 H         1 UNK         0.0454 
     81 H81        22.0576  -25.0682  -45.0038 H         1 UNK         0.0851 
     82 H82        21.6001  -23.5150  -44.3160 H         1 UNK         0.0851 
     83 H83        20.9293  -24.0192  -45.8578 H         1 UNK         0.0851 
     84 H84        19.8959  -27.1043  -44.4156 H         1 UNK         0.2976 
     85 H85        21.2191  -27.1328  -38.9140 H         1 UNK         0.3116 
     86 H86        22.7284  -26.6426  -37.4192 H         1 UNK         0.0646 
     87 H87        21.9383  -23.6846  -37.4753 H         1 UNK         0.0847 
     88 H88        22.9384  -24.4828  -36.2772 H         1 UNK         0.0847 
     89 H89        21.2397  -24.9069  -36.4127 H         1 UNK         0.0847 
     90 H90        22.7113  -24.5148  -40.2514 H         1 UNK         0.3040 
     91 H91        25.5987  -24.1721  -40.3801 H         1 UNK         0.1015 
     92 H92        23.4502  -23.9167  -42.5587 H         1 UNK         0.0786 
     93 H93        25.1235  -23.4007  -42.7063 H         1 UNK         0.0786 
     94 H94        24.0633  -22.6057  -41.5532 H         1 UNK         0.0786 
     95 H95        23.2170  -26.4009  -41.8325 H         1 UNK         0.3172 
     96 H96        25.3430  -28.4490  -42.2752 H         1 UNK         0.0595 
     97 H97        23.7673  -29.4005  -43.9789 H         1 UNK         0.0839 
     98 H98        24.2399  -27.7694  -44.4290 H         1 UNK         0.0839 
     99 H99        22.6535  -28.0639  -43.7253 H         1 UNK         0.0839 
    100 H100       24.6745  -30.5976  -41.6589 H         1 UNK         0.2998 
    101 H101       22.2629  -31.0413  -40.1286 H         1 UNK         0.0822 
    102 H102       23.5094  -31.7580  -38.0633 H         1 UNK         0.0787 
    103 H103       25.0208  -31.1925  -38.7628 H         1 UNK         0.0787 
    104 H104       23.7466  -30.0441  -38.3576 H         1 UNK         0.0787 
    105 H105       22.1513  -33.3441  -39.5396 H         1 UNK         0.3055 
    106 H106       22.0871  -35.4969  -40.0541 H         1 UNK         0.1106 
    107 H107       24.1917  -36.7324  -40.3409 H         1 UNK         0.0828 
    108 H108       25.0559  -35.2664  -40.7733 H         1 UNK         0.0828 
    109 H109       24.4236  -35.4740  -39.1405 H         1 UNK         0.0828 
    110 H110       21.2156  -33.7291  -42.0660 H         1 UNK         0.2931 
    111 H111       21.9304  -34.5961  -44.6913 H         1 UNK         0.0412 
    112 H112       20.8849  -36.0865  -46.1316 H         1 UNK         0.3472 
    113 H113       19.7702  -37.2925  -45.5433 H         1 UNK         0.3472 
    114 H114       19.7521  -33.4615  -45.3532 H         1 UNK         0.0970 
    115 H115       19.4025  -33.1966  -43.6680 H         1 UNK         0.0970 
    116 H116       21.3377  -30.0179  -42.8775 H         1 UNK         0.0612 
    117 H117       20.8404  -31.5122  -42.1246 H         1 UNK         0.0612 
@<TRIPOS>BOND
     1    1    2 1    
     2    1   62 1    
     3    1   63 1    
     4    1   64 1    
     5    2    3 2    
     6    2    4 am   BACKBONE|DICT|INTERRES
     7    4    5 1    
     8    4   65 1    
     9    5    6 1    
    10    5   25 1    
    11    5   66 1    
    12    6    7 1    
    13    6   67 1    
    14    6   68 1    
    15    7    8 1    
    16    8    9 1    
    17    8   69 1    
    18    8   70 1    
    19    9   10 ar   
    20    9   14 ar   
    21   10   11 ar   
    22   10   71 1    
    23   11   12 ar   
    24   11   61 1    
    25   12   13 ar   
    26   12   72 1    
    27   13   14 ar   
    28   13   15 1    
    29   14   73 1    
    30   15   16 1    
    31   15   74 1    
    32   15   75 1    
    33   16   17 1    
    34   17   18 1    
    35   17   76 1    
    36   17   77 1    
    37   18   19 1    
    38   18   27 1    
    39   18   78 1    
    40   19   20 am   BACKBONE|DICT|INTERRES
    41   19   79 1    
    42   20   21 2    
    43   20   22 1    
    44   22   23 1    
    45   22   24 1    
    46   22   80 1    
    47   23   81 1    
    48   23   82 1    
    49   23   83 1    
    50   24   25 am   BACKBONE|DICT|INTERRES
    51   24   84 1    
    52   25   26 2    
    53   27   28 2    
    54   27   29 am   BACKBONE|DICT|INTERRES
    55   29   30 1    
    56   29   85 1    
    57   30   31 1    
    58   30   32 1    
    59   30   86 1    
    60   31   87 1    
    61   31   88 1    
    62   31   89 1    
    63   32   33 2    
    64   32   34 am   BACKBONE|DICT|INTERRES
    65   34   35 1    
    66   34   90 1    
    67   35   36 1    
    68   35   37 1    
    69   35   91 1    
    70   36   92 1    
    71   36   93 1    
    72   36   94 1    
    73   37   38 2    
    74   37   39 am   BACKBONE|DICT|INTERRES
    75   39   40 1    
    76   39   95 1    
    77   40   41 1    
    78   40   42 1    
    79   40   96 1    
    80   41   97 1    
    81   41   98 1    
    82   41   99 1    
    83   42   43 2    
    84   42   44 am   BACKBONE|DICT|INTERRES
    85   44   45 1    
    86   44  100 1    
    87   45   46 1    
    88   45   47 1    
    89   45  101 1    
    90   46  102 1    
    91   46  103 1    
    92   46  104 1    
    93   47   48 2    
    94   47   49 am   BACKBONE|DICT|INTERRES
    95   49   50 1    
    96   49  105 1    
    97   50   51 1    
    98   50   52 1    
    99   50  106 1    
   100   51  107 1    
   101   51  108 1    
   102   51  109 1    
   103   52   53 2    
   104   52   54 am   BACKBONE|DICT|INTERRES
   105   54   55 1    
   106   54  110 1    
   107   55   56 1    
   108   55   59 1    
   109   55  111 1    
   110   56   57 am   BACKBONE|DICT|INTERRES
   111   56   58 2    
   112   57  112 1    
   113   57  113 1    
   114   59   60 1    
   115   59  114 1    
   116   59  115 1    
   117   60   61 1    
   118   61  116 1    
   119   61  117 1    
@<TRIPOS>SUBSTRUCTURE
     1 UNK         1 GROUP             0       ****    0 ROOT    
