@<TRIPOS>MOLECULE
3R8
117   119    1
SMALL
USER_CHARGES


@<TRIPOS>ATOM
      1 CA         20.7647  -29.6296  -42.3447 C.3       0 UNK        -0.2013 
      2 C          19.9491  -28.4539  -41.8313 C.2       0 UNK         0.4866 
      3 O          20.4797  -27.5972  -41.1261 O.2       0 UNK        -0.5176 
      4 N          18.6534  -28.4174  -42.1689 N.am      1 UNK        -0.4884 
      5 CA         17.6930  -27.4128  -41.6942 C.3       1 UNK         0.0853 
      6 C6         16.2349  -27.8799  -41.9330 C.3       10 UNK        -0.0849 
      7 S7         15.7422  -28.0035  -43.6933 S.3       10 UNK        -0.2776 
      8 C8         15.8102  -29.7968  -44.0256 C.3       10 UNK         0.0316 
      9 C9         17.1419  -30.3048  -44.5817 C.ar      10 UNK        -0.0863 
     10 C10        17.5385  -31.6111  -44.2800 C.ar      10 UNK        -0.1009 
     11 C11        18.6851  -32.1710  -44.8561 C.ar      10 UNK        -0.0712 
     12 C12        19.4417  -31.3995  -45.7432 C.ar      10 UNK        -0.0894 
     13 C13        19.0654  -30.0905  -46.0602 C.ar      10 UNK        -0.0745 
     14 C14        17.9159  -29.5480  -45.4730 C.ar      10 UNK        -0.0972 
     15 C15        19.8407  -29.3004  -47.1126 C.3       10 UNK         0.0209 
     16 S16        21.6322  -29.1818  -46.7788 S.3       10 UNK        -0.2568 
     17 C17        21.6508  -27.9912  -45.4063 C.3       10 UNK        -0.0983 
     18 CA         21.7706  -26.5175  -45.8900 C.3       3 UNK         0.0876 
     19 N          20.8860  -25.6585  -45.1091 N.am      3 UNK        -0.4424 
     20 C          19.6322  -25.3499  -45.4457 C.2       2 UNK         0.4918 
     21 O          19.1196  -25.6113  -46.5349 O.2       2 UNK        -0.4875 
     22 CA         18.7748  -24.7945  -44.3081 C.3       2 UNK         0.0481 
     23 CB         17.5034  -24.0753  -44.8012 C.3       2 UNK        -0.1831 
     24 N          18.4299  -25.9643  -43.5127 N.am      2 UNK        -0.4498 
     25 C          17.9553  -26.0008  -42.2654 C.2       1 UNK         0.5027 
     26 O          17.7304  -25.0027  -41.5790 O.2       1 UNK        -0.4969 
     27 C          23.2102  -25.9736  -45.8369 C.2       3 UNK         0.5005 
     28 O          23.4486  -24.9093  -45.2585 O.2       3 UNK        -0.5279 
     29 N          24.1479  -26.7154  -46.4441 N.am      4 UNK        -0.4463 
     30 CA         25.5774  -26.3838  -46.5187 C.3       4 UNK         0.0283 
     31 CB         26.2770  -27.3773  -47.4605 C.3       4 UNK        -0.1875 
     32 C          26.2936  -26.3458  -45.1541 C.2       4 UNK         0.4949 
     33 O          27.3061  -25.6571  -45.0242 O.2       4 UNK        -0.5039 
     34 N          25.7553  -27.0678  -44.1669 N.am      5 UNK        -0.4663 
     35 CA         26.1680  -27.0499  -42.7689 C.3       5 UNK         0.0242 
     36 CB         27.2112  -28.1532  -42.5205 C.3       5 UNK        -0.1982 
     37 C          24.9181  -27.2712  -41.9115 C.2       5 UNK         0.5017 
     38 O          23.9641  -27.8975  -42.3823 O.2       5 UNK        -0.5012 
     39 N          24.9519  -26.7905  -40.6627 N.am      6 UNK        -0.4439 
     40 CA         23.8828  -26.9446  -39.6708 C.3       6 UNK         0.0297 
     41 CB         23.9918  -25.8093  -38.6354 C.3       6 UNK        -0.2006 
     42 C          23.9175  -28.3434  -39.0239 C.2       6 UNK         0.4892 
     43 O          24.1761  -28.4688  -37.8248 O.2       6 UNK        -0.5089 
     44 N          23.7060  -29.3730  -39.8502 N.am      7 UNK        -0.4243 
     45 CA         23.6968  -30.7828  -39.4636 C.3       7 UNK         0.0196 
     46 CB         23.8592  -31.6378  -40.7332 C.3       7 UNK        -0.2007 
     47 C          22.4177  -31.1720  -38.7030 C.2       7 UNK         0.5020 
     48 O          21.4108  -30.4623  -38.7619 O.2       7 UNK        -0.5147 
     49 N          22.4579  -32.3478  -38.0595 N.am      8 UNK        -0.4734 
     50 CA         21.3463  -32.9555  -37.3092 C.3       8 UNK         0.0238 
     51 CB         21.8526  -34.2272  -36.6079 C.3       8 UNK        -0.1912 
     52 C          20.0889  -33.2664  -38.1482 C.2       8 UNK         0.5038 
     53 O          19.0222  -33.4895  -37.5743 O.2       8 UNK        -0.5046 
     54 N          20.2341  -33.2542  -39.4793 N.am      9 UNK        -0.4200 
     55 CA         19.1465  -33.2749  -40.4659 C.3       9 UNK         0.0839 
     56 C          18.2045  -32.0316  -40.4086 C.2       9 UNK         0.5513 
     57 N          18.6138  -30.9161  -39.8140 N.am      9 UNK        -0.7519 
     58 O          17.0772  -32.0858  -40.8912 O.2       9 UNK        -0.4960 
     59 C59        19.7288  -33.4990  -41.8875 C.3       10 UNK        -0.0876 
     60 S60        18.5725  -34.3359  -43.0171 S.3       10 UNK        -0.2414 
     61 C61        19.0847  -33.6291  -44.6209 C.3       10 UNK         0.0169 
     62 H62        20.2676  -30.1396  -43.1691 H         1 UNK         0.0903 
     63 H63        21.7406  -29.2956  -42.6908 H         1 UNK         0.0903 
     64 H64        20.9191  -30.3447  -41.5390 H         1 UNK         0.0903 
     65 H65        18.2680  -29.1431  -42.7590 H         1 UNK         0.3096 
     66 H66        17.8326  -27.3292  -40.6137 H         1 UNK         0.1121 
     67 H67        16.0695  -28.8380  -41.4377 H         1 UNK         0.0849 
     68 H68        15.5456  -27.1869  -41.4469 H         1 UNK         0.0849 
     69 H69        15.5347  -30.3445  -43.1226 H         1 UNK         0.0865 
     70 H70        15.0386  -30.0290  -44.7606 H         1 UNK         0.0865 
     71 H71        16.9212  -32.2092  -43.6240 H         1 UNK         0.1346 
     72 H72        20.3118  -31.8303  -46.2199 H         1 UNK         0.1412 
     73 H73        17.5971  -28.5528  -45.7519 H         1 UNK         0.1426 
     74 H74        19.4342  -28.2940  -47.2228 H         1 UNK         0.0716 
     75 H75        19.7027  -29.7897  -48.0776 H         1 UNK         0.0716 
     76 H76        22.4536  -28.2608  -44.7179 H         1 UNK         0.0695 
     77 H77        20.7320  -28.1405  -44.8381 H         1 UNK         0.0695 
     78 H78        21.4737  -26.4484  -46.9392 H         1 UNK         0.0983 
     79 H79        21.2572  -25.3544  -44.2193 H         1 UNK         0.3095 
     80 H80        19.3749  -24.1049  -43.7110 H         1 UNK         0.0454 
     81 H81        17.7573  -23.2485  -45.4653 H         1 UNK         0.0851 
     82 H82        16.9335  -23.6601  -43.9702 H         1 UNK         0.0851 
     83 H83        16.8452  -24.7488  -45.3517 H         1 UNK         0.0851 
     84 H84        18.5796  -26.8525  -43.9710 H         1 UNK         0.2976 
     85 H85        23.8601  -27.5785  -46.8861 H         1 UNK         0.3116 
     86 H86        25.6608  -25.3857  -46.9540 H         1 UNK         0.0646 
     87 H87        26.2072  -28.4014  -47.0915 H         1 UNK         0.0847 
     88 H88        25.8461  -27.3491  -48.4615 H         1 UNK         0.0847 
     89 H89        27.3371  -27.1397  -47.5607 H         1 UNK         0.0847 
     90 H90        24.8927  -27.5700  -44.3356 H         1 UNK         0.3040 
     91 H91        26.5924  -26.0736  -42.5228 H         1 UNK         0.1015 
     92 H92        26.8116  -29.1427  -42.7469 H         1 UNK         0.0786 
     93 H93        28.0997  -28.0031  -43.1342 H         1 UNK         0.0786 
     94 H94        27.5347  -28.1613  -41.4789 H         1 UNK         0.0786 
     95 H95        25.7924  -26.3295  -40.3437 H         1 UNK         0.3172 
     96 H96        22.9178  -26.8414  -40.1714 H         1 UNK         0.0595 
     97 H97        24.9402  -25.8388  -38.0974 H         1 UNK         0.0839 
     98 H98        23.1944  -25.8813  -37.8945 H         1 UNK         0.0839 
     99 H99        23.9035  -24.8311  -39.1084 H         1 UNK         0.0839 
    100 H100       23.5111  -29.1544  -40.8210 H         1 UNK         0.2998 
    101 H101       24.5513  -30.9626  -38.8075 H         1 UNK         0.0822 
    102 H102       23.9205  -32.6999  -40.4931 H         1 UNK         0.0787 
    103 H103       24.7740  -31.3792  -41.2673 H         1 UNK         0.0787 
    104 H104       23.0254  -31.5067  -41.4230 H         1 UNK         0.0787 
    105 H105       23.3210  -32.8735  -38.0763 H         1 UNK         0.3055 
    106 H106       21.0392  -32.2397  -36.5435 H         1 UNK         0.1106 
    107 H107       22.6771  -34.0067  -35.9295 H         1 UNK         0.0828 
    108 H108       21.0626  -34.6869  -36.0120 H         1 UNK         0.0828 
    109 H109       22.1955  -34.9744  -37.3246 H         1 UNK         0.0828 
    110 H110       21.1563  -33.0622  -39.8373 H         1 UNK         0.2931 
    111 H111       18.5316  -34.1402  -40.2102 H         1 UNK         0.0412 
    112 H112       19.5405  -30.8451  -39.4070 H         1 UNK         0.3472 
    113 H113       17.9856  -30.1318  -39.7647 H         1 UNK         0.3472 
    114 H114       20.0668  -32.5582  -42.3242 H         1 UNK         0.0970 
    115 H115       20.6141  -34.1354  -41.8396 H         1 UNK         0.0970 
    116 H116       20.1657  -33.7434  -44.7177 H         1 UNK         0.0612 
    117 H117       18.6399  -34.2317  -45.4136 H         1 UNK         0.0612 
@<TRIPOS>BOND
     1    1    2 1    
     2    1   62 1    
     3    1   63 1    
     4    1   64 1    
     5    2    3 2    
     6    2    4 am   BACKBONE|DICT|INTERRES
     7    4    5 1    
     8    4   65 1    
     9    5    6 1    
    10    5   25 1    
    11    5   66 1    
    12    6    7 1    
    13    6   67 1    
    14    6   68 1    
    15    7    8 1    
    16    8    9 1    
    17    8   69 1    
    18    8   70 1    
    19    9   10 ar   
    20    9   14 ar   
    21   10   11 ar   
    22   10   71 1    
    23   11   12 ar   
    24   11   61 1    
    25   12   13 ar   
    26   12   72 1    
    27   13   14 ar   
    28   13   15 1    
    29   14   73 1    
    30   15   16 1    
    31   15   74 1    
    32   15   75 1    
    33   16   17 1    
    34   17   18 1    
    35   17   76 1    
    36   17   77 1    
    37   18   19 1    
    38   18   27 1    
    39   18   78 1    
    40   19   20 am   BACKBONE|DICT|INTERRES
    41   19   79 1    
    42   20   21 2    
    43   20   22 1    
    44   22   23 1    
    45   22   24 1    
    46   22   80 1    
    47   23   81 1    
    48   23   82 1    
    49   23   83 1    
    50   24   25 am   BACKBONE|DICT|INTERRES
    51   24   84 1    
    52   25   26 2    
    53   27   28 2    
    54   27   29 am   BACKBONE|DICT|INTERRES
    55   29   30 1    
    56   29   85 1    
    57   30   31 1    
    58   30   32 1    
    59   30   86 1    
    60   31   87 1    
    61   31   88 1    
    62   31   89 1    
    63   32   33 2    
    64   32   34 am   BACKBONE|DICT|INTERRES
    65   34   35 1    
    66   34   90 1    
    67   35   36 1    
    68   35   37 1    
    69   35   91 1    
    70   36   92 1    
    71   36   93 1    
    72   36   94 1    
    73   37   38 2    
    74   37   39 am   BACKBONE|DICT|INTERRES
    75   39   40 1    
    76   39   95 1    
    77   40   41 1    
    78   40   42 1    
    79   40   96 1    
    80   41   97 1    
    81   41   98 1    
    82   41   99 1    
    83   42   43 2    
    84   42   44 am   BACKBONE|DICT|INTERRES
    85   44   45 1    
    86   44  100 1    
    87   45   46 1    
    88   45   47 1    
    89   45  101 1    
    90   46  102 1    
    91   46  103 1    
    92   46  104 1    
    93   47   48 2    
    94   47   49 am   BACKBONE|DICT|INTERRES
    95   49   50 1    
    96   49  105 1    
    97   50   51 1    
    98   50   52 1    
    99   50  106 1    
   100   51  107 1    
   101   51  108 1    
   102   51  109 1    
   103   52   53 2    
   104   52   54 am   BACKBONE|DICT|INTERRES
   105   54   55 1    
   106   54  110 1    
   107   55   56 1    
   108   55   59 1    
   109   55  111 1    
   110   56   57 am   BACKBONE|DICT|INTERRES
   111   56   58 2    
   112   57  112 1    
   113   57  113 1    
   114   59   60 1    
   115   59  114 1    
   116   59  115 1    
   117   60   61 1    
   118   61  116 1    
   119   61  117 1    
@<TRIPOS>SUBSTRUCTURE
     1 UNK         1 GROUP             0       ****    0 ROOT    
