@<TRIPOS>MOLECULE
3R8
117   119    1
SMALL
USER_CHARGES


@<TRIPOS>ATOM
      1 CA         17.4753  -24.1829  -39.0320 C.3       0 UNK        -0.2013 
      2 C          17.8386  -24.6562  -40.4315 C.2       0 UNK         0.4866 
      3 O          18.9695  -24.4514  -40.8728 O.2       0 UNK        -0.5176 
      4 N          16.8870  -25.2800  -41.1369 N.am      1 UNK        -0.4884 
      5 CA         17.0875  -25.8675  -42.4639 C.3       1 UNK         0.0853 
      6 C6         15.7351  -26.0879  -43.1829 C.3       10 UNK        -0.0849 
      7 S7         15.9167  -26.2457  -44.9916 S.3       10 UNK        -0.2776 
      8 C8         15.2684  -27.9199  -45.3122 C.3       10 UNK         0.0316 
      9 C9         16.3760  -28.9466  -45.5075 C.ar      10 UNK        -0.0863 
     10 C10        16.6229  -29.9341  -44.5468 C.ar      10 UNK        -0.1009 
     11 C11        17.5866  -30.9245  -44.7761 C.ar      10 UNK        -0.0712 
     12 C12        18.2985  -30.9201  -45.9805 C.ar      10 UNK        -0.0894 
     13 C13        18.0888  -29.9165  -46.9296 C.ar      10 UNK        -0.0745 
     14 C14        17.1223  -28.9372  -46.6893 C.ar      10 UNK        -0.0972 
     15 C15        18.8888  -29.8941  -48.2234 C.3       10 UNK         0.0209 
     16 S16        20.4263  -28.9305  -48.0543 S.3       10 UNK        -0.2568 
     17 C17        21.5544  -30.1458  -47.2932 C.3       10 UNK        -0.0983 
     18 CA         22.1648  -29.6764  -45.9457 C.3       3 UNK         0.0876 
     19 N          21.1713  -29.5358  -44.8842 N.am      3 UNK        -0.4424 
     20 C          20.7199  -28.3778  -44.3943 C.2       2 UNK         0.4918 
     21 O          21.0014  -27.2682  -44.8548 O.2       2 UNK        -0.4875 
     22 CA         19.8411  -28.4708  -43.1425 C.3       2 UNK         0.0481 
     23 CB         20.6990  -28.6048  -41.8699 C.3       2 UNK        -0.1831 
     24 N          18.9934  -27.2877  -43.0689 N.am      2 UNK        -0.4498 
     25 C          17.8808  -27.1813  -42.3360 C.2       1 UNK         0.5027 
     26 O          17.4585  -28.0646  -41.5855 O.2       1 UNK        -0.4969 
     27 C          23.1877  -30.7105  -45.4313 C.2       3 UNK         0.5005 
     28 O          22.8342  -31.8874  -45.3609 O.2       3 UNK        -0.5279 
     29 N          24.4261  -30.3469  -45.0620 N.am      4 UNK        -0.4463 
     30 CA         24.9916  -29.0027  -44.9141 C.3       4 UNK         0.0283 
     31 CB         26.4965  -29.1367  -44.6290 C.3       4 UNK        -0.1875 
     32 C          24.3211  -28.2010  -43.7855 C.2       4 UNK         0.4949 
     33 O          23.7846  -28.7873  -42.8435 O.2       4 UNK        -0.5039 
     34 N          24.3943  -26.8686  -43.8983 N.am      5 UNK        -0.4663 
     35 CA         23.7369  -25.8966  -43.0148 C.3       5 UNK         0.0242 
     36 CB         23.9570  -24.4828  -43.5763 C.3       5 UNK        -0.1982 
     37 C          24.1602  -25.9562  -41.5361 C.2       5 UNK         0.5017 
     38 O          23.4069  -25.4921  -40.6802 O.2       5 UNK        -0.5012 
     39 N          25.3276  -26.5465  -41.2469 N.am      6 UNK        -0.4439 
     40 CA         25.8841  -26.7617  -39.9068 C.3       6 UNK         0.0297 
     41 CB         27.4028  -26.9863  -40.0357 C.3       6 UNK        -0.2006 
     42 C          25.1819  -27.8961  -39.1238 C.2       6 UNK         0.4892 
     43 O          25.8584  -28.7315  -38.5216 O.2       6 UNK        -0.5089 
     44 N          23.8404  -27.8957  -39.1427 N.am      7 UNK        -0.4243 
     45 CA         22.9207  -28.8073  -38.4509 C.3       7 UNK         0.0196 
     46 CB         22.9348  -28.5234  -36.9337 C.3       7 UNK        -0.2007 
     47 C          23.1462  -30.2975  -38.7798 C.2       7 UNK         0.5020 
     48 O          23.0487  -31.1439  -37.8895 O.2       7 UNK        -0.5147 
     49 N          23.4392  -30.6041  -40.0524 N.am      8 UNK        -0.4734 
     50 CA         23.7019  -31.9703  -40.5252 C.3       8 UNK         0.0238 
     51 CB         24.3722  -31.8997  -41.9034 C.3       8 UNK        -0.1912 
     52 C          22.4512  -32.8693  -40.5903 C.2       8 UNK         0.5038 
     53 O          22.5950  -34.0901  -40.6710 O.2       8 UNK        -0.5046 
     54 N          21.2615  -32.2627  -40.5609 N.am      9 UNK        -0.4200 
     55 CA         19.9498  -32.9152  -40.6012 C.3       9 UNK         0.0839 
     56 C          18.8639  -32.0069  -39.9649 C.2       9 UNK         0.5513 
     57 N          17.6383  -32.4966  -39.8350 N.am      9 UNK        -0.7519 
     58 O          19.1227  -30.8711  -39.5707 O.2       9 UNK        -0.4960 
     59 C59        19.5835  -33.4429  -42.0190 C.3       10 UNK        -0.0876 
     60 S60        19.6173  -32.1619  -43.3199 S.3       10 UNK        -0.2414 
     61 C61        17.8469  -32.0060  -43.7317 C.3       10 UNK         0.0169 
     62 H62        17.6055  -23.1037  -38.9553 H         1 UNK         0.0903 
     63 H63        16.4425  -24.4187  -38.7760 H         1 UNK         0.0903 
     64 H64        18.1239  -24.6574  -38.2960 H         1 UNK         0.0903 
     65 H65        15.9874  -25.4539  -40.7111 H         1 UNK         0.3096 
     66 H66        17.6736  -25.1556  -43.0507 H         1 UNK         0.1121 
     67 H67        15.0873  -25.2254  -43.0169 H         1 UNK         0.0849 
     68 H68        15.1975  -26.9400  -42.7628 H         1 UNK         0.0849 
     69 H69        14.5826  -28.2300  -44.5228 H         1 UNK         0.0865 
     70 H70        14.6657  -27.8828  -46.2210 H         1 UNK         0.0865 
     71 H71        16.0567  -29.9387  -43.6252 H         1 UNK         0.1346 
     72 H72        19.0329  -31.6907  -46.1677 H         1 UNK         0.1412 
     73 H73        16.9419  -28.1687  -47.4289 H         1 UNK         0.1426 
     74 H74        18.2879  -29.4488  -49.0178 H         1 UNK         0.0716 
     75 H75        19.1150  -30.9088  -48.5543 H         1 UNK         0.0716 
     76 H76        21.0399  -31.0998  -47.1725 H         1 UNK         0.0695 
     77 H77        22.3510  -30.3310  -48.0163 H         1 UNK         0.0695 
     78 H78        22.6568  -28.7214  -46.1266 H         1 UNK         0.0983 
     79 H79        20.9019  -30.4021  -44.4345 H         1 UNK         0.3095 
     80 H80        19.1970  -29.3428  -43.2333 H         1 UNK         0.0454 
     81 H81        21.3346  -29.4884  -41.9246 H         1 UNK         0.0851 
     82 H82        20.0810  -28.7084  -40.9785 H         1 UNK         0.0851 
     83 H83        21.3484  -27.7409  -41.7284 H         1 UNK         0.0851 
     84 H84        19.2746  -26.5386  -43.6896 H         1 UNK         0.2976 
     85 H85        25.0272  -31.0887  -44.7369 H         1 UNK         0.3116 
     86 H86        24.8705  -28.4676  -45.8575 H         1 UNK         0.0646 
     87 H87        26.6857  -29.6607  -43.6908 H         1 UNK         0.0847 
     88 H88        26.9743  -28.1587  -44.5563 H         1 UNK         0.0847 
     89 H89        27.0056  -29.6808  -45.4249 H         1 UNK         0.0847 
     90 H90        24.8783  -26.4803  -44.6958 H         1 UNK         0.3040 
     91 H91        22.6659  -26.1069  -43.0407 H         1 UNK         0.1015 
     92 H92        23.4563  -23.7344  -42.9600 H         1 UNK         0.0786 
     93 H93        23.5525  -24.3889  -44.5844 H         1 UNK         0.0786 
     94 H94        25.0155  -24.2218  -43.6107 H         1 UNK         0.0786 
     95 H95        25.8502  -26.9340  -42.0184 H         1 UNK         0.3172 
     96 H96        25.7359  -25.8472  -39.3286 H         1 UNK         0.0595 
     97 H97        27.8718  -27.0724  -39.0545 H         1 UNK         0.0839 
     98 H98        27.8867  -26.1546  -40.5482 H         1 UNK         0.0839 
     99 H99        27.6296  -27.9000  -40.5868 H         1 UNK         0.0839 
    100 H100       23.4051  -27.1402  -39.6646 H         1 UNK         0.2998 
    101 H101       21.9217  -28.5690  -38.8195 H         1 UNK         0.0822 
    102 H102       22.1691  -29.1041  -36.4177 H         1 UNK         0.0787 
    103 H103       23.8957  -28.7787  -36.4853 H         1 UNK         0.0787 
    104 H104       22.7360  -27.4722  -36.7249 H         1 UNK         0.0787 
    105 H105       23.5272  -29.8599  -40.7347 H         1 UNK         0.3055 
    106 H106       24.4007  -32.4406  -39.8296 H         1 UNK         0.1106 
    107 H107       24.6729  -32.8907  -42.2458 H         1 UNK         0.0828 
    108 H108       23.6854  -31.4944  -42.6449 H         1 UNK         0.0828 
    109 H109       25.2642  -31.2732  -41.8869 H         1 UNK         0.0828 
    110 H110       21.2232  -31.2612  -40.4359 H         1 UNK         0.2931 
    111 H111       20.0147  -33.7779  -39.9353 H         1 UNK         0.0412 
    112 H112       17.4119  -33.4343  -40.1265 H         1 UNK         0.3472 
    113 H113       16.9264  -31.9169  -39.4186 H         1 UNK         0.3472 
    114 H114       18.6134  -33.9415  -42.0118 H         1 UNK         0.0970 
    115 H115       20.2954  -34.2171  -42.3082 H         1 UNK         0.0970 
    116 H116       17.4792  -32.9605  -44.1101 H         1 UNK         0.0612 
    117 H117       17.2933  -31.7931  -42.8158 H         1 UNK         0.0612 
@<TRIPOS>BOND
     1    1    2 1    
     2    1   62 1    
     3    1   63 1    
     4    1   64 1    
     5    2    3 2    
     6    2    4 am   BACKBONE|DICT|INTERRES
     7    4    5 1    
     8    4   65 1    
     9    5    6 1    
    10    5   25 1    
    11    5   66 1    
    12    6    7 1    
    13    6   67 1    
    14    6   68 1    
    15    7    8 1    
    16    8    9 1    
    17    8   69 1    
    18    8   70 1    
    19    9   10 ar   
    20    9   14 ar   
    21   10   11 ar   
    22   10   71 1    
    23   11   12 ar   
    24   11   61 1    
    25   12   13 ar   
    26   12   72 1    
    27   13   14 ar   
    28   13   15 1    
    29   14   73 1    
    30   15   16 1    
    31   15   74 1    
    32   15   75 1    
    33   16   17 1    
    34   17   18 1    
    35   17   76 1    
    36   17   77 1    
    37   18   19 1    
    38   18   27 1    
    39   18   78 1    
    40   19   20 am   BACKBONE|DICT|INTERRES
    41   19   79 1    
    42   20   21 2    
    43   20   22 1    
    44   22   23 1    
    45   22   24 1    
    46   22   80 1    
    47   23   81 1    
    48   23   82 1    
    49   23   83 1    
    50   24   25 am   BACKBONE|DICT|INTERRES
    51   24   84 1    
    52   25   26 2    
    53   27   28 2    
    54   27   29 am   BACKBONE|DICT|INTERRES
    55   29   30 1    
    56   29   85 1    
    57   30   31 1    
    58   30   32 1    
    59   30   86 1    
    60   31   87 1    
    61   31   88 1    
    62   31   89 1    
    63   32   33 2    
    64   32   34 am   BACKBONE|DICT|INTERRES
    65   34   35 1    
    66   34   90 1    
    67   35   36 1    
    68   35   37 1    
    69   35   91 1    
    70   36   92 1    
    71   36   93 1    
    72   36   94 1    
    73   37   38 2    
    74   37   39 am   BACKBONE|DICT|INTERRES
    75   39   40 1    
    76   39   95 1    
    77   40   41 1    
    78   40   42 1    
    79   40   96 1    
    80   41   97 1    
    81   41   98 1    
    82   41   99 1    
    83   42   43 2    
    84   42   44 am   BACKBONE|DICT|INTERRES
    85   44   45 1    
    86   44  100 1    
    87   45   46 1    
    88   45   47 1    
    89   45  101 1    
    90   46  102 1    
    91   46  103 1    
    92   46  104 1    
    93   47   48 2    
    94   47   49 am   BACKBONE|DICT|INTERRES
    95   49   50 1    
    96   49  105 1    
    97   50   51 1    
    98   50   52 1    
    99   50  106 1    
   100   51  107 1    
   101   51  108 1    
   102   51  109 1    
   103   52   53 2    
   104   52   54 am   BACKBONE|DICT|INTERRES
   105   54   55 1    
   106   54  110 1    
   107   55   56 1    
   108   55   59 1    
   109   55  111 1    
   110   56   57 am   BACKBONE|DICT|INTERRES
   111   56   58 2    
   112   57  112 1    
   113   57  113 1    
   114   59   60 1    
   115   59  114 1    
   116   59  115 1    
   117   60   61 1    
   118   61  116 1    
   119   61  117 1    
@<TRIPOS>SUBSTRUCTURE
     1 UNK         1 GROUP             0       ****    0 ROOT    
