@<TRIPOS>MOLECULE
3R8
117   119    1
SMALL
USER_CHARGES


@<TRIPOS>ATOM
      1 CA         15.6655  -26.8291  -38.2973 C.3       0 UNK        -0.2013 
      2 C          16.2060  -26.2446  -39.5939 C.2       0 UNK         0.4866 
      3 O          16.5954  -25.0766  -39.6236 O.2       0 UNK        -0.5176 
      4 N          16.2258  -27.0438  -40.6680 N.am      1 UNK        -0.4884 
      5 CA         16.7794  -26.6712  -41.9732 C.3       1 UNK         0.0853 
      6 C6         16.2673  -27.6210  -43.0806 C.3       10 UNK        -0.0849 
      7 S7         16.3691  -26.8766  -44.7422 S.3       10 UNK        -0.2776 
      8 C8         15.7955  -28.2644  -45.7738 C.3       10 UNK         0.0316 
      9 C9         16.8237  -29.3843  -45.8111 C.ar      10 UNK        -0.0863 
     10 C10        16.6785  -30.5094  -44.9937 C.ar      10 UNK        -0.1009 
     11 C11        17.6566  -31.5078  -44.9829 C.ar      10 UNK        -0.0712 
     12 C12        18.7650  -31.3948  -45.8269 C.ar      10 UNK        -0.0894 
     13 C13        18.9150  -30.2787  -46.6556 C.ar      10 UNK        -0.0745 
     14 C14        17.9390  -29.2785  -46.6456 C.ar      10 UNK        -0.0972 
     15 C15        20.1411  -30.1370  -47.5463 C.3       10 UNK         0.0209 
     16 S16        21.7095  -30.1369  -46.6131 S.3       10 UNK        -0.2568 
     17 C17        21.4085  -28.9518  -45.2524 C.3       10 UNK        -0.0983 
     18 CA         21.1755  -27.4722  -45.6788 C.3       3 UNK         0.0876 
     19 N          20.5544  -26.6945  -44.5959 N.am      3 UNK        -0.4424 
     20 C          21.1538  -26.3453  -43.4460 C.2       2 UNK         0.4918 
     21 O          22.2871  -26.7051  -43.1272 O.2       2 UNK        -0.4875 
     22 CA         20.3837  -25.4085  -42.5019 C.3       2 UNK         0.0481 
     23 CB         20.6915  -23.9425  -42.8461 C.3       2 UNK        -0.1831 
     24 N          18.9344  -25.6201  -42.5153 N.am      2 UNK        -0.4498 
     25 C          18.3218  -26.6481  -41.9121 C.2       1 UNK         0.5027 
     26 O          18.9186  -27.5533  -41.3232 O.2       1 UNK        -0.4969 
     27 C          22.4351  -26.7431  -46.2155 C.2       3 UNK         0.5005 
     28 O          22.4426  -25.5107  -46.2824 O.2       3 UNK        -0.5279 
     29 N          23.4952  -27.4910  -46.5416 N.am      4 UNK        -0.4463 
     30 CA         24.8261  -26.9834  -46.8797 C.3       4 UNK         0.0283 
     31 CB         25.4980  -27.9653  -47.8580 C.3       4 UNK        -0.1875 
     32 C          25.6584  -26.7507  -45.6018 C.2       4 UNK         0.4949 
     33 O          26.7609  -27.2869  -45.4820 O.2       4 UNK        -0.5039 
     34 N          25.0946  -25.9758  -44.6621 N.am      5 UNK        -0.4663 
     35 CA         25.6117  -25.6698  -43.3204 C.3       5 UNK         0.0242 
     36 CB         26.8710  -24.7811  -43.4097 C.3       5 UNK        -0.1982 
     37 C          25.8216  -26.9365  -42.4646 C.2       5 UNK         0.5017 
     38 O          26.8939  -27.1276  -41.8863 O.2       5 UNK        -0.5012 
     39 N          24.7900  -27.7875  -42.4172 N.am      6 UNK        -0.4439 
     40 CA         24.7523  -29.0123  -41.6202 C.3       6 UNK         0.0297 
     41 CB         23.7589  -29.9950  -42.2622 C.3       6 UNK        -0.2006 
     42 C          24.3330  -28.7066  -40.1748 C.2       6 UNK         0.4892 
     43 O          23.5965  -27.7464  -39.9359 O.2       6 UNK        -0.5089 
     44 N          24.7782  -29.5562  -39.2403 N.am      7 UNK        -0.4243 
     45 CA         24.3750  -29.5049  -37.8316 C.3       7 UNK         0.0196 
     46 CB         25.3635  -30.3222  -36.9837 C.3       7 UNK        -0.2007 
     47 C          22.9355  -30.0051  -37.6167 C.2       7 UNK         0.5020 
     48 O          22.2230  -29.4570  -36.7756 O.2       7 UNK        -0.5147 
     49 N          22.5371  -31.0269  -38.3833 N.am      8 UNK        -0.4734 
     50 CA         21.2188  -31.6561  -38.3867 C.3       8 UNK         0.0238 
     51 CB         21.0049  -32.4672  -37.0912 C.3       8 UNK        -0.1912 
     52 C          21.1221  -32.5682  -39.6174 C.2       8 UNK         0.5038 
     53 O          22.1515  -32.8933  -40.2171 O.2       8 UNK        -0.5046 
     54 N          19.8953  -32.9866  -39.9485 N.am      9 UNK        -0.4200 
     55 CA         19.5980  -33.9560  -41.0188 C.3       9 UNK         0.0839 
     56 C          19.9152  -35.4364  -40.6521 C.2       9 UNK         0.5513 
     57 N          20.2355  -35.7660  -39.4062 N.am      9 UNK        -0.7519 
     58 O          19.8752  -36.3037  -41.5209 O.2       9 UNK        -0.4960 
     59 C59        18.1386  -33.8093  -41.5259 C.3       10 UNK        -0.0876 
     60 S60        17.8583  -32.1906  -42.3192 S.3       10 UNK        -0.2414 
     61 C61        17.5323  -32.6925  -44.0389 C.3       10 UNK         0.0169 
     62 H62        14.8115  -26.2477  -37.9508 H         1 UNK         0.0903 
     63 H63        15.3445  -27.8635  -38.4180 H         1 UNK         0.0903 
     64 H64        16.4333  -26.8004  -37.5246 H         1 UNK         0.0903 
     65 H65        15.9298  -28.0052  -40.5751 H         1 UNK         0.3096 
     66 H66        16.4237  -25.6616  -42.1936 H         1 UNK         0.1121 
     67 H67        16.8079  -28.5689  -43.0569 H         1 UNK         0.0849 
     68 H68        15.2181  -27.8672  -42.9075 H         1 UNK         0.0849 
     69 H69        14.8362  -28.6285  -45.4024 H         1 UNK         0.0865 
     70 H70        15.6117  -27.9026  -46.7866 H         1 UNK         0.0865 
     71 H71        15.8242  -30.5930  -44.3355 H         1 UNK         0.1346 
     72 H72        19.5290  -32.1603  -45.8211 H         1 UNK         0.1412 
     73 H73        18.0525  -28.4049  -47.2731 H         1 UNK         0.1426 
     74 H74        20.0869  -29.2250  -48.1424 H         1 UNK         0.0716 
     75 H75        20.1581  -30.9627  -48.2588 H         1 UNK         0.0716 
     76 H76        20.5471  -29.3109  -44.6870 H         1 UNK         0.0695 
     77 H77        22.2453  -29.0187  -44.5573 H         1 UNK         0.0695 
     78 H78        20.4550  -27.4595  -46.4965 H         1 UNK         0.0983 
     79 H79        19.6306  -26.3332  -44.7827 H         1 UNK         0.3095 
     80 H80        20.7467  -25.5948  -41.4886 H         1 UNK         0.0454 
     81 H81        21.7655  -23.7530  -42.8145 H         1 UNK         0.0851 
     82 H82        20.3456  -23.6785  -43.8463 H         1 UNK         0.0851 
     83 H83        20.2237  -23.2604  -42.1360 H         1 UNK         0.0851 
     84 H84        18.3748  -24.9226  -42.9855 H         1 UNK         0.2976 
     85 H85        23.4016  -28.4955  -46.4532 H         1 UNK         0.3116 
     86 H86        24.7331  -26.0210  -47.3874 H         1 UNK         0.0646 
     87 H87        26.4791  -27.6011  -48.1653 H         1 UNK         0.0847 
     88 H88        24.9039  -28.0921  -48.7631 H         1 UNK         0.0847 
     89 H89        25.6405  -28.9495  -47.4099 H         1 UNK         0.0847 
     90 H90        24.1712  -25.6117  -44.8682 H         1 UNK         0.3040 
     91 H91        24.8362  -25.0913  -42.8152 H         1 UNK         0.1015 
     92 H92        26.6788  -23.8781  -43.9890 H         1 UNK         0.0786 
     93 H93        27.7070  -25.3056  -43.8735 H         1 UNK         0.0786 
     94 H94        27.1964  -24.4655  -42.4176 H         1 UNK         0.0786 
     95 H95        23.9027  -27.4813  -42.8144 H         1 UNK         0.3172 
     96 H96        25.7440  -29.4699  -41.6174 H         1 UNK         0.0595 
     97 H97        23.7391  -30.9433  -41.7235 H         1 UNK         0.0839 
     98 H98        24.0303  -30.2172  -43.2943 H         1 UNK         0.0839 
     99 H99        22.7420  -29.5994  -42.2567 H         1 UNK         0.0839 
    100 H100       25.3858  -30.3147  -39.5158 H         1 UNK         0.2998 
    101 H101       24.4191  -28.4659  -37.4967 H         1 UNK         0.0822 
    102 H102       25.3774  -31.3731  -37.2760 H         1 UNK         0.0787 
    103 H103       26.3784  -29.9343  -37.0735 H         1 UNK         0.0787 
    104 H104       25.0949  -30.2819  -35.9271 H         1 UNK         0.0787 
    105 H105       23.1700  -31.4134  -39.0734 H         1 UNK         0.3055 
    106 H106       20.4583  -30.8763  -38.4699 H         1 UNK         0.1106 
    107 H107       21.7624  -33.2433  -36.9744 H         1 UNK         0.0828 
    108 H108       21.0422  -31.8316  -36.2067 H         1 UNK         0.0828 
    109 H109       20.0304  -32.9566  -37.0849 H         1 UNK         0.0828 
    110 H110       19.1036  -32.6717  -39.4076 H         1 UNK         0.2931 
    111 H111       20.2551  -33.7237  -41.8597 H         1 UNK         0.0412 
    112 H112       20.2755  -35.0663  -38.6836 H         1 UNK         0.3472 
    113 H113       20.4414  -36.7287  -39.1888 H         1 UNK         0.3472 
    114 H114       17.8908  -34.6000  -42.2368 H         1 UNK         0.0970 
    115 H115       17.4329  -33.9226  -40.7011 H         1 UNK         0.0970 
    116 H116       16.5317  -33.1215  -44.1093 H         1 UNK         0.0612 
    117 H117       18.2321  -33.4785  -44.3278 H         1 UNK         0.0612 
@<TRIPOS>BOND
     1    1    2 1    
     2    1   62 1    
     3    1   63 1    
     4    1   64 1    
     5    2    3 2    
     6    2    4 am   BACKBONE|DICT|INTERRES
     7    4    5 1    
     8    4   65 1    
     9    5    6 1    
    10    5   25 1    
    11    5   66 1    
    12    6    7 1    
    13    6   67 1    
    14    6   68 1    
    15    7    8 1    
    16    8    9 1    
    17    8   69 1    
    18    8   70 1    
    19    9   10 ar   
    20    9   14 ar   
    21   10   11 ar   
    22   10   71 1    
    23   11   12 ar   
    24   11   61 1    
    25   12   13 ar   
    26   12   72 1    
    27   13   14 ar   
    28   13   15 1    
    29   14   73 1    
    30   15   16 1    
    31   15   74 1    
    32   15   75 1    
    33   16   17 1    
    34   17   18 1    
    35   17   76 1    
    36   17   77 1    
    37   18   19 1    
    38   18   27 1    
    39   18   78 1    
    40   19   20 am   BACKBONE|DICT|INTERRES
    41   19   79 1    
    42   20   21 2    
    43   20   22 1    
    44   22   23 1    
    45   22   24 1    
    46   22   80 1    
    47   23   81 1    
    48   23   82 1    
    49   23   83 1    
    50   24   25 am   BACKBONE|DICT|INTERRES
    51   24   84 1    
    52   25   26 2    
    53   27   28 2    
    54   27   29 am   BACKBONE|DICT|INTERRES
    55   29   30 1    
    56   29   85 1    
    57   30   31 1    
    58   30   32 1    
    59   30   86 1    
    60   31   87 1    
    61   31   88 1    
    62   31   89 1    
    63   32   33 2    
    64   32   34 am   BACKBONE|DICT|INTERRES
    65   34   35 1    
    66   34   90 1    
    67   35   36 1    
    68   35   37 1    
    69   35   91 1    
    70   36   92 1    
    71   36   93 1    
    72   36   94 1    
    73   37   38 2    
    74   37   39 am   BACKBONE|DICT|INTERRES
    75   39   40 1    
    76   39   95 1    
    77   40   41 1    
    78   40   42 1    
    79   40   96 1    
    80   41   97 1    
    81   41   98 1    
    82   41   99 1    
    83   42   43 2    
    84   42   44 am   BACKBONE|DICT|INTERRES
    85   44   45 1    
    86   44  100 1    
    87   45   46 1    
    88   45   47 1    
    89   45  101 1    
    90   46  102 1    
    91   46  103 1    
    92   46  104 1    
    93   47   48 2    
    94   47   49 am   BACKBONE|DICT|INTERRES
    95   49   50 1    
    96   49  105 1    
    97   50   51 1    
    98   50   52 1    
    99   50  106 1    
   100   51  107 1    
   101   51  108 1    
   102   51  109 1    
   103   52   53 2    
   104   52   54 am   BACKBONE|DICT|INTERRES
   105   54   55 1    
   106   54  110 1    
   107   55   56 1    
   108   55   59 1    
   109   55  111 1    
   110   56   57 am   BACKBONE|DICT|INTERRES
   111   56   58 2    
   112   57  112 1    
   113   57  113 1    
   114   59   60 1    
   115   59  114 1    
   116   59  115 1    
   117   60   61 1    
   118   61  116 1    
   119   61  117 1    
@<TRIPOS>SUBSTRUCTURE
     1 UNK         1 GROUP             0       ****    0 ROOT    
