@<TRIPOS>MOLECULE
3R8
117   119    1
SMALL
USER_CHARGES


@<TRIPOS>ATOM
      1 CA         13.1329  -23.9820  -44.8914 C.3       0 UNK        -0.2013 
      2 C          14.6137  -24.3241  -44.9629 C.2       0 UNK         0.4866 
      3 O          15.4526  -23.4907  -44.6183 O.2       0 UNK        -0.5176 
      4 N          14.9420  -25.5395  -45.4167 N.am      1 UNK        -0.4884 
      5 CA         16.3070  -26.0719  -45.4766 C.3       1 UNK         0.0853 
      6 C6         16.4149  -27.2325  -46.4986 C.3       10 UNK        -0.0849 
      7 S7         15.3192  -28.6517  -46.1361 S.3       10 UNK        -0.2776 
      8 C8         16.3697  -30.0665  -46.5943 C.3       10 UNK         0.0316 
      9 C9         17.5827  -30.2235  -45.6858 C.ar      10 UNK        -0.0863 
     10 C10        17.4258  -30.6566  -44.3663 C.ar      10 UNK        -0.1009 
     11 C11        18.5413  -30.8714  -43.5503 C.ar      10 UNK        -0.0712 
     12 C12        19.8234  -30.6250  -44.0555 C.ar      10 UNK        -0.0894 
     13 C13        19.9925  -30.1986  -45.3770 C.ar      10 UNK        -0.0745 
     14 C14        18.8687  -29.9973  -46.1839 C.ar      10 UNK        -0.0972 
     15 C15        21.3829  -30.0282  -45.9717 C.3       10 UNK         0.0209 
     16 S16        21.7771  -28.2843  -46.3153 S.3       10 UNK        -0.2568 
     17 C17        22.7310  -27.8275  -44.8321 C.3       10 UNK        -0.0983 
     18 CA         22.3464  -26.4269  -44.2805 C.3       3 UNK         0.0876 
     19 N          20.9293  -26.3401  -43.8839 N.am      3 UNK        -0.4424 
     20 C          20.3511  -27.0001  -42.8651 C.2       2 UNK         0.4918 
     21 O          20.9744  -27.6956  -42.0645 O.2       2 UNK        -0.4875 
     22 CA         18.8414  -26.8118  -42.6607 C.3       2 UNK         0.0481 
     23 CB         18.5945  -25.7480  -41.5705 C.3       2 UNK        -0.1831 
     24 N          18.1492  -26.4677  -43.9075 N.am      2 UNK        -0.4498 
     25 C          16.8202  -26.4651  -44.0721 C.2       1 UNK         0.5027 
     26 O          16.0170  -26.7572  -43.1806 O.2       1 UNK        -0.4969 
     27 C          23.3182  -25.9673  -43.1666 C.2       3 UNK         0.5005 
     28 O          24.4541  -26.4392  -43.1124 O.2       3 UNK        -0.5279 
     29 N          22.8474  -25.0930  -42.2612 N.am      4 UNK        -0.4463 
     30 CA         23.5237  -24.6576  -41.0300 C.3       4 UNK         0.0283 
     31 CB         24.7185  -23.7384  -41.3627 C.3       4 UNK        -0.1875 
     32 C          23.9156  -25.8301  -40.1007 C.2       4 UNK         0.4949 
     33 O          24.9207  -25.7368  -39.3950 O.2       4 UNK        -0.5039 
     34 N          23.1219  -26.9137  -40.1361 N.am      5 UNK        -0.4663 
     35 CA         23.3066  -28.1883  -39.4318 C.3       5 UNK         0.0242 
     36 CB         23.3121  -27.9821  -37.9005 C.3       5 UNK        -0.1982 
     37 C          24.5102  -29.0183  -39.9285 C.2       5 UNK         0.5017 
     38 O          24.9372  -29.9344  -39.2225 O.2       5 UNK        -0.5012 
     39 N          25.0402  -28.7104  -41.1223 N.am      6 UNK        -0.4439 
     40 CA         26.0681  -29.5097  -41.7897 C.3       6 UNK         0.0297 
     41 CB         26.8673  -28.6222  -42.7567 C.3       6 UNK        -0.2006 
     42 C          25.4185  -30.6767  -42.5478 C.2       6 UNK         0.4892 
     43 O          24.3432  -30.5070  -43.1254 O.2       6 UNK        -0.5089 
     44 N          26.1000  -31.8306  -42.5484 N.am      7 UNK        -0.4243 
     45 CA         25.7549  -33.1059  -43.1993 C.3       7 UNK         0.0196 
     46 CB         25.6082  -32.9443  -44.7259 C.3       7 UNK        -0.2007 
     47 C          24.5378  -33.8404  -42.6032 C.2       7 UNK         0.5020 
     48 O          24.5834  -35.0654  -42.4859 O.2       7 UNK        -0.5147 
     49 N          23.4874  -33.1080  -42.2259 N.am      8 UNK        -0.4734 
     50 CA         22.2710  -33.6119  -41.5942 C.3       8 UNK         0.0238 
     51 CB         21.2851  -34.0870  -42.6781 C.3       8 UNK        -0.1912 
     52 C          21.6617  -32.5069  -40.7208 C.2       8 UNK         0.5038 
     53 O          22.0145  -31.3390  -40.8931 O.2       8 UNK        -0.5046 
     54 N          20.7608  -32.9099  -39.8114 N.am      9 UNK        -0.4200 
     55 CA         20.0239  -32.0747  -38.8396 C.3       9 UNK         0.0839 
     56 C          20.8806  -31.1197  -37.9532 C.2       9 UNK         0.5513 
     57 N          22.1305  -31.4622  -37.6668 N.am      9 UNK        -0.7519 
     58 O          20.4032  -30.0934  -37.4763 O.2       9 UNK        -0.4960 
     59 C59        18.7036  -31.4582  -39.3973 C.3       10 UNK        -0.0876 
     60 S60        18.8678  -30.3344  -40.8279 S.3       10 UNK        -0.2414 
     61 C61        18.3607  -31.4627  -42.1598 C.3       10 UNK         0.0169 
     62 H62        12.9188  -23.1091  -45.5075 H         1 UNK         0.0903 
     63 H63        12.5072  -24.8040  -45.2389 H         1 UNK         0.0903 
     64 H64        12.8506  -23.7522  -43.8642 H         1 UNK         0.0903 
     65 H65        14.2159  -26.2035  -45.6476 H         1 UNK         0.3096 
     66 H66        16.9512  -25.2650  -45.8346 H         1 UNK         0.1121 
     67 H67        16.1611  -26.8640  -47.4938 H         1 UNK         0.0849 
     68 H68        17.4499  -27.5676  -46.5736 H         1 UNK         0.0849 
     69 H69        15.7708  -30.9771  -46.5459 H         1 UNK         0.0865 
     70 H70        16.6737  -29.9622  -47.6372 H         1 UNK         0.0865 
     71 H71        16.4325  -30.8557  -43.9875 H         1 UNK         0.1346 
     72 H72        20.6877  -30.7954  -43.4265 H         1 UNK         0.1412 
     73 H73        19.0025  -29.6842  -47.2107 H         1 UNK         0.1426 
     74 H74        21.4311  -30.5819  -46.9103 H         1 UNK         0.0716 
     75 H75        22.1449  -30.4708  -45.3273 H         1 UNK         0.0716 
     76 H76        23.7841  -27.8638  -45.1168 H         1 UNK         0.0695 
     77 H77        22.6027  -28.5848  -44.0567 H         1 UNK         0.0695 
     78 H78        22.4831  -25.7069  -45.0890 H         1 UNK         0.0983 
     79 H79        20.3724  -25.7118  -44.4419 H         1 UNK         0.3095 
     80 H80        18.4466  -27.7686  -42.3146 H         1 UNK         0.0454 
     81 H81        18.8953  -24.7537  -41.9014 H         1 UNK         0.0851 
     82 H82        19.1586  -25.9774  -40.6652 H         1 UNK         0.0851 
     83 H83        17.5450  -25.7004  -41.2815 H         1 UNK         0.0851 
     84 H84        18.7334  -26.3113  -44.7149 H         1 UNK         0.2976 
     85 H85        21.9021  -24.7583  -42.3838 H         1 UNK         0.3116 
     86 H86        22.7959  -24.0646  -40.4744 H         1 UNK         0.0646 
     87 H87        25.5206  -24.2827  -41.8622 H         1 UNK         0.0847 
     88 H88        25.1398  -23.2998  -40.4573 H         1 UNK         0.0847 
     89 H89        24.4185  -22.9143  -42.0096 H         1 UNK         0.0847 
     90 H90        22.3451  -26.9152  -40.7912 H         1 UNK         0.3040 
     91 H91        22.4275  -28.7887  -39.6761 H         1 UNK         0.1015 
     92 H92        22.4302  -27.4321  -37.5725 H         1 UNK         0.0786 
     93 H93        24.1952  -27.4402  -37.5625 H         1 UNK         0.0786 
     94 H94        23.3063  -28.9360  -37.3752 H         1 UNK         0.0786 
     95 H95        24.6320  -27.9584  -41.6678 H         1 UNK         0.3172 
     96 H96        26.7586  -29.9020  -41.0399 H         1 UNK         0.0595 
     97 H97        26.2552  -28.2827  -43.5931 H         1 UNK         0.0839 
     98 H98        27.7123  -29.1684  -43.1775 H         1 UNK         0.0839 
     99 H99        27.2661  -27.7410  -42.2538 H         1 UNK         0.0839 
    100 H100       26.9607  -31.8542  -42.0183 H         1 UNK         0.2998 
    101 H101       26.6149  -33.7555  -43.0274 H         1 UNK         0.0822 
    102 H102       26.4941  -32.4843  -45.1636 H         1 UNK         0.0787 
    103 H103       25.4745  -33.9141  -45.2069 H         1 UNK         0.0787 
    104 H104       24.7455  -32.3325  -44.9920 H         1 UNK         0.0787 
    105 H105       23.5298  -32.0956  -42.3359 H         1 UNK         0.3055 
    106 H106       22.5290  -34.4504  -40.9431 H         1 UNK         0.1106 
    107 H107       20.3616  -34.4640  -42.2377 H         1 UNK         0.0828 
    108 H108       21.0190  -33.2800  -43.3610 H         1 UNK         0.0828 
    109 H109       21.7096  -34.8967  -43.2718 H         1 UNK         0.0828 
    110 H110       20.5636  -33.8981  -39.7491 H         1 UNK         0.2931 
    111 H111       19.6845  -32.8064  -38.1052 H         1 UNK         0.0412 
    112 H112       22.5331  -32.2996  -38.0547 H         1 UNK         0.3472 
    113 H113       22.6870  -30.8613  -37.0817 H         1 UNK         0.3472 
    114 H114       18.1797  -30.9152  -38.6088 H         1 UNK         0.0970 
    115 H115       18.0241  -32.2680  -39.6660 H         1 UNK         0.0970 
    116 H116       18.9418  -32.3818  -42.0938 H         1 UNK         0.0612 
    117 H117       17.3202  -31.7479  -41.9969 H         1 UNK         0.0612 
@<TRIPOS>BOND
     1    1    2 1    
     2    1   62 1    
     3    1   63 1    
     4    1   64 1    
     5    2    3 2    
     6    2    4 am   BACKBONE|DICT|INTERRES
     7    4    5 1    
     8    4   65 1    
     9    5    6 1    
    10    5   25 1    
    11    5   66 1    
    12    6    7 1    
    13    6   67 1    
    14    6   68 1    
    15    7    8 1    
    16    8    9 1    
    17    8   69 1    
    18    8   70 1    
    19    9   10 ar   
    20    9   14 ar   
    21   10   11 ar   
    22   10   71 1    
    23   11   12 ar   
    24   11   61 1    
    25   12   13 ar   
    26   12   72 1    
    27   13   14 ar   
    28   13   15 1    
    29   14   73 1    
    30   15   16 1    
    31   15   74 1    
    32   15   75 1    
    33   16   17 1    
    34   17   18 1    
    35   17   76 1    
    36   17   77 1    
    37   18   19 1    
    38   18   27 1    
    39   18   78 1    
    40   19   20 am   BACKBONE|DICT|INTERRES
    41   19   79 1    
    42   20   21 2    
    43   20   22 1    
    44   22   23 1    
    45   22   24 1    
    46   22   80 1    
    47   23   81 1    
    48   23   82 1    
    49   23   83 1    
    50   24   25 am   BACKBONE|DICT|INTERRES
    51   24   84 1    
    52   25   26 2    
    53   27   28 2    
    54   27   29 am   BACKBONE|DICT|INTERRES
    55   29   30 1    
    56   29   85 1    
    57   30   31 1    
    58   30   32 1    
    59   30   86 1    
    60   31   87 1    
    61   31   88 1    
    62   31   89 1    
    63   32   33 2    
    64   32   34 am   BACKBONE|DICT|INTERRES
    65   34   35 1    
    66   34   90 1    
    67   35   36 1    
    68   35   37 1    
    69   35   91 1    
    70   36   92 1    
    71   36   93 1    
    72   36   94 1    
    73   37   38 2    
    74   37   39 am   BACKBONE|DICT|INTERRES
    75   39   40 1    
    76   39   95 1    
    77   40   41 1    
    78   40   42 1    
    79   40   96 1    
    80   41   97 1    
    81   41   98 1    
    82   41   99 1    
    83   42   43 2    
    84   42   44 am   BACKBONE|DICT|INTERRES
    85   44   45 1    
    86   44  100 1    
    87   45   46 1    
    88   45   47 1    
    89   45  101 1    
    90   46  102 1    
    91   46  103 1    
    92   46  104 1    
    93   47   48 2    
    94   47   49 am   BACKBONE|DICT|INTERRES
    95   49   50 1    
    96   49  105 1    
    97   50   51 1    
    98   50   52 1    
    99   50  106 1    
   100   51  107 1    
   101   51  108 1    
   102   51  109 1    
   103   52   53 2    
   104   52   54 am   BACKBONE|DICT|INTERRES
   105   54   55 1    
   106   54  110 1    
   107   55   56 1    
   108   55   59 1    
   109   55  111 1    
   110   56   57 am   BACKBONE|DICT|INTERRES
   111   56   58 2    
   112   57  112 1    
   113   57  113 1    
   114   59   60 1    
   115   59  114 1    
   116   59  115 1    
   117   60   61 1    
   118   61  116 1    
   119   61  117 1    
@<TRIPOS>SUBSTRUCTURE
     1 UNK         1 GROUP             0       ****    0 ROOT    
