@<TRIPOS>MOLECULE
3R8
117   119    1
SMALL
USER_CHARGES


@<TRIPOS>ATOM
      1 CA         14.0022  -22.7134  -42.2745 C.3       0 UNK        -0.2013 
      2 C          14.6300  -23.7238  -43.2230 C.2       0 UNK         0.4866 
      3 O          13.9758  -24.1669  -44.1678 O.2       0 UNK        -0.5176 
      4 N          15.8925  -24.0876  -42.9828 N.am      1 UNK        -0.4884 
      5 CA         16.6660  -25.0405  -43.7772 C.3       1 UNK         0.0853 
      6 C6         16.3207  -26.5242  -43.4644 C.3       10 UNK        -0.0849 
      7 S7         16.2891  -26.9783  -41.6874 S.3       10 UNK        -0.2776 
      8 C8         17.9755  -27.5899  -41.3559 C.3       10 UNK         0.0316 
      9 C9         18.3259  -28.8161  -42.1882 C.ar      10 UNK        -0.0863 
     10 C10        17.8229  -30.0769  -41.8497 C.ar      10 UNK        -0.1009 
     11 C11        18.0907  -31.1925  -42.6529 C.ar      10 UNK        -0.0712 
     12 C12        18.8820  -31.0342  -43.7980 C.ar      10 UNK        -0.0894 
     13 C13        19.3994  -29.7811  -44.1373 C.ar      10 UNK        -0.0745 
     14 C14        19.1295  -28.6808  -43.3221 C.ar      10 UNK        -0.0972 
     15 C15        20.1877  -29.5868  -45.4211 C.3       10 UNK         0.0209 
     16 S16        21.9718  -29.4422  -45.1044 S.3       10 UNK        -0.2568 
     17 C17        22.5037  -28.4991  -46.5777 C.3       10 UNK        -0.0983 
     18 CA         23.1169  -27.1005  -46.2624 C.3       3 UNK         0.0876 
     19 N          22.2748  -26.2388  -45.4353 N.am      3 UNK        -0.4424 
     20 C          21.0320  -25.8190  -45.6748 C.2       2 UNK         0.4918 
     21 O          20.3763  -26.1009  -46.6801 O.2       2 UNK        -0.4875 
     22 CA         20.4245  -24.9064  -44.6036 C.3       2 UNK         0.0481 
     23 CB         20.8015  -23.4353  -44.8610 C.3       2 UNK        -0.1831 
     24 N          18.9735  -25.0728  -44.5989 N.am      2 UNK        -0.4498 
     25 C          18.1597  -24.7279  -43.5941 C.2       1 UNK         0.5027 
     26 O          18.5462  -24.1927  -42.5507 O.2       1 UNK        -0.4969 
     27 C          24.4827  -27.1885  -45.5505 C.2       3 UNK         0.5005 
     28 O          24.6775  -26.5382  -44.5173 O.2       3 UNK        -0.5279 
     29 N          25.3999  -28.0080  -46.0835 N.am      4 UNK        -0.4463 
     30 CA         26.7157  -28.2876  -45.4928 C.3       4 UNK         0.0283 
     31 CB         27.5569  -29.0946  -46.4953 C.3       4 UNK        -0.1875 
     32 C          26.6564  -29.0174  -44.1344 C.2       4 UNK         0.4949 
     33 O          27.6312  -28.9657  -43.3845 O.2       4 UNK        -0.5039 
     34 N          25.5249  -29.6697  -43.8403 N.am      5 UNK        -0.4663 
     35 CA         25.2374  -30.3577  -42.5836 C.3       5 UNK         0.0242 
     36 CB         25.2371  -31.8793  -42.8298 C.3       5 UNK        -0.1982 
     37 C          23.9045  -29.8484  -42.0130 C.2       5 UNK         0.5017 
     38 O          23.0570  -30.6564  -41.6326 O.2       5 UNK        -0.5012 
     39 N          23.7256  -28.5181  -41.9848 N.am      6 UNK        -0.4439 
     40 CA         22.5235  -27.8373  -41.4890 C.3       6 UNK         0.0297 
     41 CB         22.7233  -26.3148  -41.5569 C.3       6 UNK        -0.2006 
     42 C          22.1601  -28.2580  -40.0547 C.2       6 UNK         0.4892 
     43 O          23.0212  -28.2107  -39.1743 O.2       6 UNK        -0.5089 
     44 N          20.9082  -28.6969  -39.8687 N.am      7 UNK        -0.4243 
     45 CA         20.2886  -29.2198  -38.6400 C.3       7 UNK         0.0196 
     46 CB         20.3446  -28.1969  -37.4883 C.3       7 UNK        -0.2007 
     47 C          20.8038  -30.6013  -38.1927 C.2       7 UNK         0.5020 
     48 O          20.0301  -31.3571  -37.6047 O.2       7 UNK        -0.5147 
     49 N          22.0654  -30.9338  -38.4960 N.am      8 UNK        -0.4734 
     50 CA         22.6428  -32.2705  -38.3248 C.3       8 UNK         0.0238 
     51 CB         24.1675  -32.2023  -38.5088 C.3       8 UNK        -0.1912 
     52 C          22.0169  -33.2938  -39.2888 C.2       8 UNK         0.5038 
     53 O          21.7594  -34.4278  -38.8821 O.2       8 UNK        -0.5046 
     54 N          21.7436  -32.8507  -40.5234 N.am      9 UNK        -0.4200 
     55 CA         21.0771  -33.5951  -41.5964 C.3       9 UNK         0.0839 
     56 C          21.9258  -34.7842  -42.1428 C.2       9 UNK         0.5513 
     57 N          21.3262  -35.6900  -42.9030 N.am      9 UNK        -0.7519 
     58 O          23.1326  -34.8762  -41.9249 O.2       9 UNK        -0.4960 
     59 C59        19.6135  -33.9620  -41.2071 C.3       10 UNK        -0.0876 
     60 S60        18.4775  -33.9950  -42.6340 S.3       10 UNK        -0.2414 
     61 C61        17.4302  -32.5312  -42.3258 C.3       10 UNK         0.0169 
     62 H62        13.1077  -23.1350  -41.8160 H         1 UNK         0.0903 
     63 H63        14.6867  -22.4235  -41.4770 H         1 UNK         0.0903 
     64 H64        13.7151  -21.8143  -42.8197 H         1 UNK         0.0903 
     65 H65        16.4165  -23.6840  -42.2154 H         1 UNK         0.3096 
     66 H66        16.4391  -24.8534  -44.8297 H         1 UNK         0.1121 
     67 H67        15.3207  -26.7297  -43.8491 H         1 UNK         0.0849 
     68 H68        16.9686  -27.2016  -44.0199 H         1 UNK         0.0849 
     69 H69        18.6958  -26.7877  -41.5215 H         1 UNK         0.0865 
     70 H70        18.0428  -27.8362  -40.2961 H         1 UNK         0.0865 
     71 H71        17.1853  -30.1790  -40.9820 H         1 UNK         0.1346 
     72 H72        19.0693  -31.8798  -44.4449 H         1 UNK         0.1412 
     73 H73        19.5181  -27.7104  -43.5967 H         1 UNK         0.1426 
     74 H74        19.8200  -28.6885  -45.9182 H         1 UNK         0.0716 
     75 H75        20.0144  -30.4115  -46.1140 H         1 UNK         0.0716 
     76 H76        21.6578  -28.3735  -47.2539 H         1 UNK         0.0695 
     77 H77        23.2031  -29.1185  -47.1406 H         1 UNK         0.0695 
     78 H78        23.2897  -26.5771  -47.2048 H         1 UNK         0.0983 
     79 H79        22.7655  -25.9328  -44.6030 H         1 UNK         0.3095 
     80 H80        20.8116  -25.2140  -43.6303 H         1 UNK         0.0454 
     81 H81        20.4045  -23.0802  -45.8128 H         1 UNK         0.0851 
     82 H82        21.8842  -23.3062  -44.8901 H         1 UNK         0.0851 
     83 H83        20.4230  -22.7809  -44.0759 H         1 UNK         0.0851 
     84 H84        18.6060  -25.5209  -45.4300 H         1 UNK         0.2976 
     85 H85        25.1751  -28.5040  -46.9345 H         1 UNK         0.3116 
     86 H86        27.2138  -27.3306  -45.3228 H         1 UNK         0.0646 
     87 H87        27.1019  -30.0600  -46.7203 H         1 UNK         0.0847 
     88 H88        28.5543  -29.2906  -46.0990 H         1 UNK         0.0847 
     89 H89        27.6857  -28.5548  -47.4336 H         1 UNK         0.0847 
     90 H90        24.7631  -29.6318  -44.5042 H         1 UNK         0.3040 
     91 H91        26.0009  -30.1311  -41.8362 H         1 UNK         0.1015 
     92 H92        26.1958  -32.2172  -43.2230 H         1 UNK         0.0786 
     93 H93        24.4614  -32.1718  -43.5389 H         1 UNK         0.0786 
     94 H94        25.0552  -32.4294  -41.9056 H         1 UNK         0.0786 
     95 H95        24.4646  -27.9288  -42.3429 H         1 UNK         0.3172 
     96 H96        21.7059  -28.1070  -42.1595 H         1 UNK         0.0595 
     97 H97        22.9465  -25.9819  -42.5682 H         1 UNK         0.0839 
     98 H98        23.5407  -25.9883  -40.9124 H         1 UNK         0.0839 
     99 H99        21.8242  -25.7880  -41.2336 H         1 UNK         0.0839 
    100 H100       20.3246  -28.7676  -40.6911 H         1 UNK         0.2998 
    101 H101       19.2366  -29.3670  -38.8886 H         1 UNK         0.0822 
    102 H102       19.9271  -27.2362  -37.7899 H         1 UNK         0.0787 
    103 H103       19.7670  -28.5471  -36.6318 H         1 UNK         0.0787 
    104 H104       21.3635  -28.0272  -37.1397 H         1 UNK         0.0787 
    105 H105       22.6395  -30.2302  -38.9470 H         1 UNK         0.3055 
    106 H106       22.4328  -32.6045  -37.3062 H         1 UNK         0.1106 
    107 H107       24.6252  -31.5340  -37.7793 H         1 UNK         0.0828 
    108 H108       24.6197  -33.1861  -38.3761 H         1 UNK         0.0828 
    109 H109       24.4406  -31.8502  -39.5037 H         1 UNK         0.0828 
    110 H110       22.0952  -31.9344  -40.7951 H         1 UNK         0.2931 
    111 H111       21.0387  -32.8756  -42.4154 H         1 UNK         0.0412 
    112 H112       20.3410  -35.6073  -43.1078 H         1 UNK         0.3472 
    113 H113       21.8618  -36.4566  -43.2794 H         1 UNK         0.3472 
    114 H114       19.5762  -34.9250  -40.6943 H         1 UNK         0.0970 
    115 H115       19.2260  -33.2396  -40.4868 H         1 UNK         0.0970 
    116 H116       17.0877  -32.5522  -41.2900 H         1 UNK         0.0612 
    117 H117       16.5352  -32.6209  -42.9425 H         1 UNK         0.0612 
@<TRIPOS>BOND
     1    1    2 1    
     2    1   62 1    
     3    1   63 1    
     4    1   64 1    
     5    2    3 2    
     6    2    4 am   BACKBONE|DICT|INTERRES
     7    4    5 1    
     8    4   65 1    
     9    5    6 1    
    10    5   25 1    
    11    5   66 1    
    12    6    7 1    
    13    6   67 1    
    14    6   68 1    
    15    7    8 1    
    16    8    9 1    
    17    8   69 1    
    18    8   70 1    
    19    9   10 ar   
    20    9   14 ar   
    21   10   11 ar   
    22   10   71 1    
    23   11   12 ar   
    24   11   61 1    
    25   12   13 ar   
    26   12   72 1    
    27   13   14 ar   
    28   13   15 1    
    29   14   73 1    
    30   15   16 1    
    31   15   74 1    
    32   15   75 1    
    33   16   17 1    
    34   17   18 1    
    35   17   76 1    
    36   17   77 1    
    37   18   19 1    
    38   18   27 1    
    39   18   78 1    
    40   19   20 am   BACKBONE|DICT|INTERRES
    41   19   79 1    
    42   20   21 2    
    43   20   22 1    
    44   22   23 1    
    45   22   24 1    
    46   22   80 1    
    47   23   81 1    
    48   23   82 1    
    49   23   83 1    
    50   24   25 am   BACKBONE|DICT|INTERRES
    51   24   84 1    
    52   25   26 2    
    53   27   28 2    
    54   27   29 am   BACKBONE|DICT|INTERRES
    55   29   30 1    
    56   29   85 1    
    57   30   31 1    
    58   30   32 1    
    59   30   86 1    
    60   31   87 1    
    61   31   88 1    
    62   31   89 1    
    63   32   33 2    
    64   32   34 am   BACKBONE|DICT|INTERRES
    65   34   35 1    
    66   34   90 1    
    67   35   36 1    
    68   35   37 1    
    69   35   91 1    
    70   36   92 1    
    71   36   93 1    
    72   36   94 1    
    73   37   38 2    
    74   37   39 am   BACKBONE|DICT|INTERRES
    75   39   40 1    
    76   39   95 1    
    77   40   41 1    
    78   40   42 1    
    79   40   96 1    
    80   41   97 1    
    81   41   98 1    
    82   41   99 1    
    83   42   43 2    
    84   42   44 am   BACKBONE|DICT|INTERRES
    85   44   45 1    
    86   44  100 1    
    87   45   46 1    
    88   45   47 1    
    89   45  101 1    
    90   46  102 1    
    91   46  103 1    
    92   46  104 1    
    93   47   48 2    
    94   47   49 am   BACKBONE|DICT|INTERRES
    95   49   50 1    
    96   49  105 1    
    97   50   51 1    
    98   50   52 1    
    99   50  106 1    
   100   51  107 1    
   101   51  108 1    
   102   51  109 1    
   103   52   53 2    
   104   52   54 am   BACKBONE|DICT|INTERRES
   105   54   55 1    
   106   54  110 1    
   107   55   56 1    
   108   55   59 1    
   109   55  111 1    
   110   56   57 am   BACKBONE|DICT|INTERRES
   111   56   58 2    
   112   57  112 1    
   113   57  113 1    
   114   59   60 1    
   115   59  114 1    
   116   59  115 1    
   117   60   61 1    
   118   61  116 1    
   119   61  117 1    
@<TRIPOS>SUBSTRUCTURE
     1 UNK         1 GROUP             0       ****    0 ROOT    
