@<TRIPOS>MOLECULE
3R8
117   119    1
SMALL
USER_CHARGES


@<TRIPOS>ATOM
      1 CA         13.4995  -23.0797  -48.4064 C.3       0 UNK        -0.2013 
      2 C          14.6537  -24.0652  -48.2987 C.2       0 UNK         0.4866 
      3 O          15.6388  -23.9363  -49.0265 O.2       0 UNK        -0.5176 
      4 N          14.5377  -25.0533  -47.4024 N.am      1 UNK        -0.4884 
      5 CA         15.5794  -26.0443  -47.1146 C.3       1 UNK         0.0853 
      6 C6         14.9874  -27.2688  -46.3747 C.3       10 UNK        -0.0849 
      7 S7         15.9867  -28.7783  -46.5988 S.3       10 UNK        -0.2776 
      8 C8         15.3375  -29.8404  -45.2676 C.3       10 UNK         0.0316 
      9 C9         16.0969  -29.6378  -43.9641 C.ar      10 UNK        -0.0863 
     10 C10        17.1980  -30.4454  -43.6619 C.ar      10 UNK        -0.1009 
     11 C11        17.9049  -30.2627  -42.4698 C.ar      10 UNK        -0.0712 
     12 C12        17.5069  -29.2645  -41.5763 C.ar      10 UNK        -0.0894 
     13 C13        16.4228  -28.4372  -41.8788 C.ar      10 UNK        -0.0745 
     14 C14        15.7073  -28.6438  -43.0616 C.ar      10 UNK        -0.0972 
     15 C15        16.0385  -27.2978  -40.9490 C.3       10 UNK         0.0209 
     16 S16        16.6071  -25.6972  -41.6079 S.3       10 UNK        -0.2568 
     17 C17        18.3797  -25.6865  -41.1657 C.3       10 UNK        -0.0983 
     18 CA         19.3205  -26.2383  -42.2725 C.3       3 UNK         0.0876 
     19 N          19.1122  -25.5875  -43.5674 N.am      3 UNK        -0.4424 
     20 C          19.4470  -26.1211  -44.7476 C.2       2 UNK         0.4918 
     21 O          19.9346  -27.2446  -44.8832 O.2       2 UNK        -0.4875 
     22 CA         19.1812  -25.2607  -45.9907 C.3       2 UNK         0.0481 
     23 CB         20.3663  -25.3062  -46.9713 C.3       2 UNK        -0.1831 
     24 N          17.9757  -25.7325  -46.6679 N.am      2 UNK        -0.4498 
     25 C          16.7294  -25.3943  -46.3157 C.2       1 UNK         0.5027 
     26 O          16.4660  -24.6076  -45.4016 O.2       1 UNK        -0.4969 
     27 C          20.8067  -26.1206  -41.8726 C.2       3 UNK         0.5005 
     28 O          21.1861  -25.1618  -41.1952 O.2       3 UNK        -0.5279 
     29 N          21.6318  -27.0631  -42.3452 N.am      4 UNK        -0.4463 
     30 CA         23.0670  -27.1387  -42.0653 C.3       4 UNK         0.0283 
     31 CB         23.7416  -28.0005  -43.1462 C.3       4 UNK        -0.1875 
     32 C          23.3614  -27.6707  -40.6496 C.2       4 UNK         0.4949 
     33 O          22.4609  -28.1438  -39.9515 O.2       4 UNK        -0.5039 
     34 N          24.6344  -27.5737  -40.2495 N.am      5 UNK        -0.4663 
     35 CA         25.1472  -27.9333  -38.9264 C.3       5 UNK         0.0242 
     36 CB         26.5417  -27.3016  -38.7561 C.3       5 UNK        -0.1982 
     37 C          25.1685  -29.4532  -38.6668 C.2       5 UNK         0.5017 
     38 O          26.2337  -30.0688  -38.7438 O.2       5 UNK        -0.5012 
     39 N          23.9953  -30.0178  -38.3462 N.am      6 UNK        -0.4439 
     40 CA         23.7494  -31.3744  -37.8358 C.3       6 UNK         0.0297 
     41 CB         24.2249  -31.4861  -36.3705 C.3       6 UNK        -0.2006 
     42 C          24.3227  -32.4793  -38.7409 C.2       6 UNK         0.4892 
     43 O          23.6644  -32.8665  -39.7060 O.2       6 UNK        -0.5089 
     44 N          25.5453  -32.9421  -38.4437 N.am      7 UNK        -0.4243 
     45 CA         26.3035  -33.9143  -39.2378 C.3       7 UNK         0.0196 
     46 CB         27.5991  -34.2733  -38.4930 C.3       7 UNK        -0.2007 
     47 C          26.6184  -33.4374  -40.6684 C.2       7 UNK         0.5020 
     48 O          26.7694  -34.2740  -41.5585 O.2       7 UNK        -0.5147 
     49 N          26.6801  -32.1138  -40.8774 N.am      8 UNK        -0.4734 
     50 CA         26.7796  -31.4952  -42.2032 C.3       8 UNK         0.0238 
     51 CB         27.2451  -30.0383  -42.0474 C.3       8 UNK        -0.1912 
     52 C          25.4583  -31.5532  -42.9947 C.2       8 UNK         0.5038 
     53 O          25.4930  -31.4520  -44.2213 O.2       8 UNK        -0.5046 
     54 N          24.3303  -31.6972  -42.2878 N.am      9 UNK        -0.4200 
     55 CA         22.9827  -31.8422  -42.8495 C.3       9 UNK         0.0839 
     56 C          22.6512  -33.3234  -43.1624 C.2       9 UNK         0.5513 
     57 N          22.9285  -34.2411  -42.2438 N.am      9 UNK        -0.7519 
     58 O          22.1534  -33.6416  -44.2388 O.2       9 UNK        -0.4960 
     59 C59        21.9254  -31.2052  -41.9057 C.3       10 UNK        -0.0876 
     60 S60        20.6193  -30.3199  -42.8129 S.3       10 UNK        -0.2414 
     61 C61        19.1234  -31.1134  -42.1587 C.3       10 UNK         0.0169 
     62 H62        13.0941  -23.0857  -49.4178 H         1 UNK         0.0903 
     63 H63        12.6913  -23.3202  -47.7160 H         1 UNK         0.0903 
     64 H64        13.8463  -22.0709  -48.1841 H         1 UNK         0.0903 
     65 H65        13.7230  -25.0865  -46.8059 H         1 UNK         0.3096 
     66 H66        15.9728  -26.3799  -48.0775 H         1 UNK         0.1121 
     67 H67        14.8487  -27.0531  -45.3151 H         1 UNK         0.0849 
     68 H68        13.9935  -27.4962  -46.7644 H         1 UNK         0.0849 
     69 H69        14.2720  -29.6544  -45.1228 H         1 UNK         0.0865 
     70 H70        15.4184  -30.8820  -45.5824 H         1 UNK         0.0865 
     71 H71        17.5157  -31.2072  -44.3609 H         1 UNK         0.1346 
     72 H72        18.0661  -29.1081  -40.6638 H         1 UNK         0.1412 
     73 H73        14.8609  -28.0100  -43.2846 H         1 UNK         0.1426 
     74 H74        16.4372  -27.4536  -39.9454 H         1 UNK         0.0716 
     75 H75        14.9529  -27.2690  -40.8445 H         1 UNK         0.0716 
     76 H76        18.6348  -24.6514  -40.9308 H         1 UNK         0.0695 
     77 H77        18.5190  -26.2456  -40.2388 H         1 UNK         0.0695 
     78 H78        19.0995  -27.2990  -42.3933 H         1 UNK         0.0983 
     79 H79        18.6827  -24.6740  -43.5434 H         1 UNK         0.3095 
     80 H80        19.0457  -24.2211  -45.6842 H         1 UNK         0.0454 
     81 H81        21.2846  -24.9727  -46.4864 H         1 UNK         0.0851 
     82 H82        20.5460  -26.3136  -47.3491 H         1 UNK         0.0851 
     83 H83        20.1970  -24.6533  -47.8275 H         1 UNK         0.0851 
     84 H84        18.1090  -26.4275  -47.3888 H         1 UNK         0.2976 
     85 H85        21.2385  -27.8083  -42.9072 H         1 UNK         0.3116 
     86 H86        23.4802  -26.1299  -42.1309 H         1 UNK         0.0646 
     87 H87        24.8233  -28.0378  -43.0153 H         1 UNK         0.0847 
     88 H88        23.5554  -27.6002  -44.1430 H         1 UNK         0.0847 
     89 H89        23.3781  -29.0253  -43.1302 H         1 UNK         0.0847 
     90 H90        25.3086  -27.1826  -40.8915 H         1 UNK         0.3040 
     91 H91        24.4927  -27.4862  -38.1744 H         1 UNK         0.1015 
     92 H92        26.4984  -26.2150  -38.8338 H         1 UNK         0.0786 
     93 H93        27.2466  -27.6643  -39.5056 H         1 UNK         0.0786 
     94 H94        26.9598  -27.5371  -37.7763 H         1 UNK         0.0786 
     95 H95        23.1714  -29.4365  -38.4659 H         1 UNK         0.3172 
     96 H96        22.6669  -31.5117  -37.8387 H         1 UNK         0.0595 
     97 H97        23.6660  -30.8058  -35.7278 H         1 UNK         0.0839 
     98 H98        25.2826  -31.2469  -36.2550 H         1 UNK         0.0839 
     99 H99        24.0679  -32.4929  -35.9804 H         1 UNK         0.0839 
    100 H100       26.0279  -32.5242  -37.6612 H         1 UNK         0.2998 
    101 H101       25.6935  -34.8161  -39.3238 H         1 UNK         0.0822 
    102 H102       27.3888  -34.6957  -37.5102 H         1 UNK         0.0787 
    103 H103       28.1746  -35.0166  -39.0469 H         1 UNK         0.0787 
    104 H104       28.2396  -33.4011  -38.3554 H         1 UNK         0.0787 
    105 H105       26.5687  -31.4877  -40.0834 H         1 UNK         0.3055 
    106 H106       27.5314  -32.0358  -42.7829 H         1 UNK         0.1106 
    107 H107       27.3795  -29.5650  -43.0210 H         1 UNK         0.0828 
    108 H108       26.5218  -29.4415  -41.4924 H         1 UNK         0.0828 
    109 H109       28.1994  -29.9795  -41.5239 H         1 UNK         0.0828 
    110 H110       24.4009  -31.8673  -41.2921 H         1 UNK         0.2931 
    111 H111       22.9655  -31.3033  -43.7992 H         1 UNK         0.0412 
    112 H112       23.2899  -33.9565  -41.3400 H         1 UNK         0.3472 
    113 H113       22.7285  -35.2110  -42.4294 H         1 UNK         0.3472 
    114 H114       21.4937  -31.9405  -41.2235 H         1 UNK         0.0970 
    115 H115       22.3930  -30.4683  -41.2530 H         1 UNK         0.0970 
    116 H116       19.0204  -32.1104  -42.5899 H         1 UNK         0.0612 
    117 H117       19.2146  -31.2443  -41.0793 H         1 UNK         0.0612 
@<TRIPOS>BOND
     1    1    2 1    
     2    1   62 1    
     3    1   63 1    
     4    1   64 1    
     5    2    3 2    
     6    2    4 am   BACKBONE|DICT|INTERRES
     7    4    5 1    
     8    4   65 1    
     9    5    6 1    
    10    5   25 1    
    11    5   66 1    
    12    6    7 1    
    13    6   67 1    
    14    6   68 1    
    15    7    8 1    
    16    8    9 1    
    17    8   69 1    
    18    8   70 1    
    19    9   10 ar   
    20    9   14 ar   
    21   10   11 ar   
    22   10   71 1    
    23   11   12 ar   
    24   11   61 1    
    25   12   13 ar   
    26   12   72 1    
    27   13   14 ar   
    28   13   15 1    
    29   14   73 1    
    30   15   16 1    
    31   15   74 1    
    32   15   75 1    
    33   16   17 1    
    34   17   18 1    
    35   17   76 1    
    36   17   77 1    
    37   18   19 1    
    38   18   27 1    
    39   18   78 1    
    40   19   20 am   BACKBONE|DICT|INTERRES
    41   19   79 1    
    42   20   21 2    
    43   20   22 1    
    44   22   23 1    
    45   22   24 1    
    46   22   80 1    
    47   23   81 1    
    48   23   82 1    
    49   23   83 1    
    50   24   25 am   BACKBONE|DICT|INTERRES
    51   24   84 1    
    52   25   26 2    
    53   27   28 2    
    54   27   29 am   BACKBONE|DICT|INTERRES
    55   29   30 1    
    56   29   85 1    
    57   30   31 1    
    58   30   32 1    
    59   30   86 1    
    60   31   87 1    
    61   31   88 1    
    62   31   89 1    
    63   32   33 2    
    64   32   34 am   BACKBONE|DICT|INTERRES
    65   34   35 1    
    66   34   90 1    
    67   35   36 1    
    68   35   37 1    
    69   35   91 1    
    70   36   92 1    
    71   36   93 1    
    72   36   94 1    
    73   37   38 2    
    74   37   39 am   BACKBONE|DICT|INTERRES
    75   39   40 1    
    76   39   95 1    
    77   40   41 1    
    78   40   42 1    
    79   40   96 1    
    80   41   97 1    
    81   41   98 1    
    82   41   99 1    
    83   42   43 2    
    84   42   44 am   BACKBONE|DICT|INTERRES
    85   44   45 1    
    86   44  100 1    
    87   45   46 1    
    88   45   47 1    
    89   45  101 1    
    90   46  102 1    
    91   46  103 1    
    92   46  104 1    
    93   47   48 2    
    94   47   49 am   BACKBONE|DICT|INTERRES
    95   49   50 1    
    96   49  105 1    
    97   50   51 1    
    98   50   52 1    
    99   50  106 1    
   100   51  107 1    
   101   51  108 1    
   102   51  109 1    
   103   52   53 2    
   104   52   54 am   BACKBONE|DICT|INTERRES
   105   54   55 1    
   106   54  110 1    
   107   55   56 1    
   108   55   59 1    
   109   55  111 1    
   110   56   57 am   BACKBONE|DICT|INTERRES
   111   56   58 2    
   112   57  112 1    
   113   57  113 1    
   114   59   60 1    
   115   59  114 1    
   116   59  115 1    
   117   60   61 1    
   118   61  116 1    
   119   61  117 1    
@<TRIPOS>SUBSTRUCTURE
     1 UNK         1 GROUP             0       ****    0 ROOT    
