@<TRIPOS>MOLECULE
3R8
117   119    1
SMALL
USER_CHARGES


@<TRIPOS>ATOM
      1 CA         15.1856  -21.2068  -43.6769 C.3       0 UNK        -0.2013 
      2 C          15.2516  -22.3910  -44.6292 C.2       0 UNK         0.4866 
      3 O          15.0890  -22.2161  -45.8368 O.2       0 UNK        -0.5176 
      4 N          15.4886  -23.5967  -44.0955 N.am      1 UNK        -0.4884 
      5 CA         15.6056  -24.8496  -44.8542 C.3       1 UNK         0.0853 
      6 C6         15.4222  -26.1014  -43.9534 C.3       10 UNK        -0.0849 
      7 S7         16.3019  -26.0556  -42.3475 S.3       10 UNK        -0.2776 
      8 C8         17.9830  -26.6387  -42.7379 C.3       10 UNK         0.0316 
      9 C9         18.0518  -28.1243  -43.0529 C.ar      10 UNK        -0.0863 
     10 C10        18.3736  -29.0338  -42.0427 C.ar      10 UNK        -0.1009 
     11 C11        18.5408  -30.3898  -42.3340 C.ar      10 UNK        -0.0712 
     12 C12        18.3454  -30.8407  -43.6437 C.ar      10 UNK        -0.0894 
     13 C13        18.0059  -29.9421  -44.6604 C.ar      10 UNK        -0.0745 
     14 C14        17.8698  -28.5852  -44.3598 C.ar      10 UNK        -0.0972 
     15 C15        17.7792  -30.4392  -46.0802 C.3       10 UNK         0.0209 
     16 S16        19.2736  -30.2773  -47.1073 S.3       10 UNK        -0.2568 
     17 C17        19.1735  -28.5432  -47.7000 C.3       10 UNK        -0.0983 
     18 CA         20.2194  -27.4921  -47.1928 C.3       3 UNK         0.0876 
     19 N          19.5591  -26.3193  -46.6003 N.am      3 UNK        -0.4424 
     20 C          20.1355  -25.1422  -46.3284 C.2       2 UNK         0.4918 
     21 O          21.3507  -24.9534  -46.3842 O.2       2 UNK        -0.4875 
     22 CA         19.2251  -23.9399  -45.9875 C.3       2 UNK         0.0481 
     23 CB         18.9875  -23.0911  -47.2508 C.3       2 UNK        -0.1831 
     24 N          17.9415  -24.2032  -45.3137 N.am      2 UNK        -0.4498 
     25 C          16.8855  -24.9293  -45.7159 C.2       1 UNK         0.5027 
     26 O          16.8862  -25.6434  -46.7189 O.2       1 UNK        -0.4969 
     27 C          21.3971  -28.0612  -46.3654 C.2       3 UNK         0.5005 
     28 O          22.3842  -28.5049  -46.9571 O.2       3 UNK        -0.5279 
     29 N          21.2880  -28.0373  -45.0329 N.am      4 UNK        -0.4463 
     30 CA         22.2723  -28.5753  -44.0976 C.3       4 UNK         0.0283 
     31 CB         22.1085  -30.1055  -43.9990 C.3       4 UNK        -0.1875 
     32 C          22.0982  -27.9002  -42.7323 C.2       4 UNK         0.4949 
     33 O          21.1399  -27.1512  -42.5332 O.2       4 UNK        -0.5039 
     34 N          23.0292  -28.1776  -41.8159 N.am      5 UNK        -0.4663 
     35 CA         22.9993  -27.7545  -40.4200 C.3       5 UNK         0.0242 
     36 CB         23.3747  -26.2643  -40.2998 C.3       5 UNK        -0.1982 
     37 C          23.9812  -28.6245  -39.6278 C.2       5 UNK         0.5017 
     38 O          24.9370  -29.1459  -40.2104 O.2       5 UNK        -0.5012 
     39 N          23.7494  -28.7272  -38.3117 N.am      6 UNK        -0.4439 
     40 CA         24.5883  -29.4144  -37.3229 C.3       6 UNK         0.0297 
     41 CB         25.8745  -28.5957  -37.0613 C.3       6 UNK        -0.2006 
     42 C          24.8397  -30.8925  -37.6883 C.2       6 UNK         0.4892 
     43 O          23.8760  -31.6237  -37.9221 O.2       6 UNK        -0.5089 
     44 N          26.1143  -31.3053  -37.7379 N.am      7 UNK        -0.4243 
     45 CA         26.5630  -32.6722  -38.0203 C.3       7 UNK         0.0196 
     46 CB         28.0903  -32.7437  -37.8623 C.3       7 UNK        -0.2007 
     47 C          26.1418  -33.2169  -39.3966 C.2       7 UNK         0.5020 
     48 O          26.0086  -34.4326  -39.5391 O.2       7 UNK        -0.5147 
     49 N          25.9032  -32.3308  -40.3755 N.am      8 UNK        -0.4734 
     50 CA         25.4135  -32.6975  -41.7097 C.3       8 UNK         0.0238 
     51 CB         25.5593  -31.5005  -42.6621 C.3       8 UNK        -0.1912 
     52 C          23.9687  -33.2341  -41.7092 C.2       8 UNK         0.5038 
     53 O          23.5956  -33.9339  -42.6514 O.2       8 UNK        -0.5046 
     54 N          23.1998  -32.9283  -40.6553 N.am      9 UNK        -0.4200 
     55 CA         21.8744  -33.5064  -40.3884 C.3       9 UNK         0.0839 
     56 C          21.9311  -34.8816  -39.6595 C.2       9 UNK         0.5513 
     57 N          23.0951  -35.4147  -39.3030 N.am      9 UNK        -0.7519 
     58 O          20.8907  -35.4907  -39.4241 O.2       9 UNK        -0.4960 
     59 C59        20.9545  -32.5042  -39.6434 C.3       10 UNK        -0.0876 
     60 S60        20.6357  -31.0106  -40.6386 S.3       10 UNK        -0.2414 
     61 C61        18.9507  -31.3585  -41.2357 C.3       10 UNK         0.0169 
     62 H62        15.3439  -21.5065  -42.6411 H         1 UNK         0.0903 
     63 H63        15.9475  -20.4727  -43.9379 H         1 UNK         0.0903 
     64 H64        14.2106  -20.7249  -43.7448 H         1 UNK         0.0903 
     65 H65        15.6029  -23.6919  -43.0948 H         1 UNK         0.3096 
     66 H66        14.7833  -24.8588  -45.5741 H         1 UNK         0.1121 
     67 H67        14.3624  -26.1844  -43.7078 H         1 UNK         0.0849 
     68 H68        15.6434  -27.0233  -44.4900 H         1 UNK         0.0849 
     69 H69        18.4185  -26.0678  -43.5535 H         1 UNK         0.0865 
     70 H70        18.6160  -26.4235  -41.8755 H         1 UNK         0.0865 
     71 H71        18.5374  -28.6814  -41.0334 H         1 UNK         0.1346 
     72 H72        18.4696  -31.8896  -43.8759 H         1 UNK         0.1412 
     73 H73        17.6323  -27.8899  -45.1504 H         1 UNK         0.1426 
     74 H74        16.9430  -29.9109  -46.5406 H         1 UNK         0.0716 
     75 H75        17.4899  -31.4910  -46.0594 H         1 UNK         0.0716 
     76 H76        18.1565  -28.1828  -47.5401 H         1 UNK         0.0695 
     77 H77        19.2579  -28.6048  -48.7861 H         1 UNK         0.0695 
     78 H78        20.7012  -27.0963  -48.0903 H         1 UNK         0.0983 
     79 H79        18.5423  -26.3204  -46.6102 H         1 UNK         0.3095 
     80 H80        19.7922  -23.3259  -45.2861 H         1 UNK         0.0454 
     81 H81        18.4481  -22.1733  -47.0166 H         1 UNK         0.0851 
     82 H82        18.4122  -23.6343  -48.0013 H         1 UNK         0.0851 
     83 H83        19.9321  -22.8011  -47.7133 H         1 UNK         0.0851 
     84 H84        17.8114  -23.6889  -44.4533 H         1 UNK         0.2976 
     85 H85        20.4804  -27.6124  -44.5945 H         1 UNK         0.3116 
     86 H86        23.2762  -28.3381  -44.4556 H         1 UNK         0.0646 
     87 H87        21.0978  -30.3756  -43.6972 H         1 UNK         0.0847 
     88 H88        22.3093  -30.5912  -44.9538 H         1 UNK         0.0847 
     89 H89        22.7864  -30.5417  -43.2669 H         1 UNK         0.0847 
     90 H90        23.7971  -28.7993  -42.0361 H         1 UNK         0.3040 
     91 H91        21.9925  -27.9173  -40.0280 H         1 UNK         0.1015 
     92 H92        23.3836  -25.9434  -39.2574 H         1 UNK         0.0786 
     93 H93        22.6623  -25.6274  -40.8242 H         1 UNK         0.0786 
     94 H94        24.3655  -26.0669  -40.7110 H         1 UNK         0.0786 
     95 H95        22.9166  -28.2909  -37.9409 H         1 UNK         0.3172 
     96 H96        24.0159  -29.4308  -36.3943 H         1 UNK         0.0595 
     97 H97        26.5106  -28.5326  -37.9454 H         1 UNK         0.0839 
     98 H98        26.4642  -29.0256  -36.2505 H         1 UNK         0.0839 
     99 H99        25.6316  -27.5756  -36.7632 H         1 UNK         0.0839 
    100 H100       26.8370  -30.6252  -37.5517 H         1 UNK         0.2998 
    101 H101       26.1107  -33.3228  -37.2687 H         1 UNK         0.0822 
    102 H102       28.4543  -33.7571  -38.0382 H         1 UNK         0.0787 
    103 H103       28.4002  -32.4616  -36.8559 H         1 UNK         0.0787 
    104 H104       28.6001  -32.0874  -38.5690 H         1 UNK         0.0787 
    105 H105       25.9916  -31.3424  -40.1735 H         1 UNK         0.3055 
    106 H106       26.0468  -33.5041  -42.0865 H         1 UNK         0.1106 
    107 H107       26.5977  -31.1775  -42.7374 H         1 UNK         0.0828 
    108 H108       25.2275  -31.7589  -43.6688 H         1 UNK         0.0828 
    109 H109       24.9674  -30.6487  -42.3330 H         1 UNK         0.0828 
    110 H110       23.5898  -32.3671  -39.9070 H         1 UNK         0.2931 
    111 H111       21.3983  -33.7151  -41.3485 H         1 UNK         0.0412 
    112 H112       23.1001  -36.3091  -38.8386 H         1 UNK         0.3472 
    113 H113       23.9719  -34.9461  -39.4943 H         1 UNK         0.3472 
    114 H114       19.9996  -32.9657  -39.3845 H         1 UNK         0.0970 
    115 H115       21.4040  -32.2024  -38.6964 H         1 UNK         0.0970 
    116 H116       18.9044  -32.3868  -41.5979 H         1 UNK         0.0612 
    117 H117       18.2490  -31.2860  -40.4036 H         1 UNK         0.0612 
@<TRIPOS>BOND
     1    1    2 1    
     2    1   62 1    
     3    1   63 1    
     4    1   64 1    
     5    2    3 2    
     6    2    4 am   BACKBONE|DICT|INTERRES
     7    4    5 1    
     8    4   65 1    
     9    5    6 1    
    10    5   25 1    
    11    5   66 1    
    12    6    7 1    
    13    6   67 1    
    14    6   68 1    
    15    7    8 1    
    16    8    9 1    
    17    8   69 1    
    18    8   70 1    
    19    9   10 ar   
    20    9   14 ar   
    21   10   11 ar   
    22   10   71 1    
    23   11   12 ar   
    24   11   61 1    
    25   12   13 ar   
    26   12   72 1    
    27   13   14 ar   
    28   13   15 1    
    29   14   73 1    
    30   15   16 1    
    31   15   74 1    
    32   15   75 1    
    33   16   17 1    
    34   17   18 1    
    35   17   76 1    
    36   17   77 1    
    37   18   19 1    
    38   18   27 1    
    39   18   78 1    
    40   19   20 am   BACKBONE|DICT|INTERRES
    41   19   79 1    
    42   20   21 2    
    43   20   22 1    
    44   22   23 1    
    45   22   24 1    
    46   22   80 1    
    47   23   81 1    
    48   23   82 1    
    49   23   83 1    
    50   24   25 am   BACKBONE|DICT|INTERRES
    51   24   84 1    
    52   25   26 2    
    53   27   28 2    
    54   27   29 am   BACKBONE|DICT|INTERRES
    55   29   30 1    
    56   29   85 1    
    57   30   31 1    
    58   30   32 1    
    59   30   86 1    
    60   31   87 1    
    61   31   88 1    
    62   31   89 1    
    63   32   33 2    
    64   32   34 am   BACKBONE|DICT|INTERRES
    65   34   35 1    
    66   34   90 1    
    67   35   36 1    
    68   35   37 1    
    69   35   91 1    
    70   36   92 1    
    71   36   93 1    
    72   36   94 1    
    73   37   38 2    
    74   37   39 am   BACKBONE|DICT|INTERRES
    75   39   40 1    
    76   39   95 1    
    77   40   41 1    
    78   40   42 1    
    79   40   96 1    
    80   41   97 1    
    81   41   98 1    
    82   41   99 1    
    83   42   43 2    
    84   42   44 am   BACKBONE|DICT|INTERRES
    85   44   45 1    
    86   44  100 1    
    87   45   46 1    
    88   45   47 1    
    89   45  101 1    
    90   46  102 1    
    91   46  103 1    
    92   46  104 1    
    93   47   48 2    
    94   47   49 am   BACKBONE|DICT|INTERRES
    95   49   50 1    
    96   49  105 1    
    97   50   51 1    
    98   50   52 1    
    99   50  106 1    
   100   51  107 1    
   101   51  108 1    
   102   51  109 1    
   103   52   53 2    
   104   52   54 am   BACKBONE|DICT|INTERRES
   105   54   55 1    
   106   54  110 1    
   107   55   56 1    
   108   55   59 1    
   109   55  111 1    
   110   56   57 am   BACKBONE|DICT|INTERRES
   111   56   58 2    
   112   57  112 1    
   113   57  113 1    
   114   59   60 1    
   115   59  114 1    
   116   59  115 1    
   117   60   61 1    
   118   61  116 1    
   119   61  117 1    
@<TRIPOS>SUBSTRUCTURE
     1 UNK         1 GROUP             0       ****    0 ROOT    
