@<TRIPOS>MOLECULE
3R8
117   119    1
SMALL
USER_CHARGES


@<TRIPOS>ATOM
      1 CA         16.7754  -28.0887  -39.7917 C.3       0 UNK        -0.2013 
      2 C          17.0393  -26.8463  -40.6273 C.2       0 UNK         0.4866 
      3 O          16.9918  -25.7325  -40.1043 O.2       0 UNK        -0.5176 
      4 N          17.3048  -27.0299  -41.9251 N.am      1 UNK        -0.4884 
      5 CA         17.6146  -25.9560  -42.8757 C.3       1 UNK         0.0853 
      6 C6         17.3485  -26.3874  -44.3434 C.3       10 UNK        -0.0849 
      7 S7         15.6757  -27.0773  -44.5965 S.3       10 UNK        -0.2776 
      8 C8         15.9975  -28.4769  -45.7232 C.3       10 UNK         0.0316 
      9 C9         16.9669  -29.5017  -45.1445 C.ar      10 UNK        -0.0863 
     10 C10        16.6291  -30.2307  -44.0006 C.ar      10 UNK        -0.1009 
     11 C11        17.5088  -31.1845  -43.4785 C.ar      10 UNK        -0.0712 
     12 C12        18.7373  -31.4000  -44.1108 C.ar      10 UNK        -0.0894 
     13 C13        19.0985  -30.6694  -45.2469 C.ar      10 UNK        -0.0745 
     14 C14        18.1977  -29.7329  -45.7676 C.ar      10 UNK        -0.0972 
     15 C15        20.4516  -30.9344  -45.9068 C.3       10 UNK         0.0209 
     16 S16        21.2900  -29.4479  -46.5586 S.3       10 UNK        -0.2568 
     17 C17        21.4423  -28.4194  -45.0626 C.3       10 UNK        -0.0983 
     18 CA         22.0892  -27.0400  -45.3629 C.3       3 UNK         0.0876 
     19 N          21.5716  -26.0368  -44.4383 N.am      3 UNK        -0.4424 
     20 C          21.5322  -24.7160  -44.6327 C.2       2 UNK         0.4918 
     21 O          21.9742  -24.1577  -45.6384 O.2       2 UNK        -0.4875 
     22 CA         20.8136  -23.9023  -43.5314 C.3       2 UNK         0.0481 
     23 CB         20.8022  -22.3906  -43.8237 C.3       2 UNK        -0.1831 
     24 N          19.4314  -24.3655  -43.3409 N.am      2 UNK        -0.4498 
     25 C          19.0815  -25.5041  -42.7242 C.2       1 UNK         0.5027 
     26 O          19.8974  -26.2274  -42.1463 O.2       1 UNK        -0.4969 
     27 C          23.6253  -27.1190  -45.2911 C.2       3 UNK         0.5005 
     28 O          24.2226  -26.7008  -44.2960 O.2       3 UNK        -0.5279 
     29 N          24.2378  -27.7489  -46.3035 N.am      4 UNK        -0.4463 
     30 CA         25.6572  -28.1290  -46.3068 C.3       4 UNK         0.0283 
     31 CB         26.0383  -28.6707  -47.6936 C.3       4 UNK        -0.1875 
     32 C          26.0050  -29.1575  -45.2112 C.2       4 UNK         0.4949 
     33 O          27.1380  -29.1758  -44.7319 O.2       4 UNK        -0.5039 
     34 N          25.0102  -29.9621  -44.8115 N.am      5 UNK        -0.4663 
     35 CA         25.0691  -30.9011  -43.6883 C.3       5 UNK         0.0242 
     36 CB         24.1845  -32.1123  -44.0286 C.3       5 UNK        -0.1982 
     37 C          24.6457  -30.2628  -42.3460 C.2       5 UNK         0.5017 
     38 O          24.5195  -30.9896  -41.3579 O.2       5 UNK        -0.5012 
     39 N          24.4259  -28.9363  -42.3350 N.am      6 UNK        -0.4439 
     40 CA         23.9512  -28.0948  -41.2296 C.3       6 UNK         0.0297 
     41 CB         24.9201  -28.1707  -40.0279 C.3       6 UNK        -0.2006 
     42 C          22.4958  -28.3901  -40.8200 C.2       6 UNK         0.4892 
     43 O          21.8603  -29.3021  -41.3526 O.2       6 UNK        -0.5089 
     44 N          21.9999  -27.6237  -39.8378 N.am      7 UNK        -0.4243 
     45 CA         20.6802  -27.8041  -39.2172 C.3       7 UNK         0.0196 
     46 CB         20.3547  -26.5752  -38.3535 C.3       7 UNK        -0.2007 
     47 C          20.5515  -29.1051  -38.3997 C.2       7 UNK         0.5020 
     48 O          19.4385  -29.4929  -38.0479 O.2       7 UNK        -0.5147 
     49 N          21.6843  -29.7701  -38.1335 N.am      8 UNK        -0.4734 
     50 CA         21.7573  -31.1359  -37.6139 C.3       8 UNK         0.0238 
     51 CB         23.1926  -31.4065  -37.1328 C.3       8 UNK        -0.1912 
     52 C          21.3275  -32.2005  -38.6437 C.2       8 UNK         0.5038 
     53 O          21.0439  -33.3282  -38.2369 O.2       8 UNK        -0.5046 
     54 N          21.2879  -31.8368  -39.9360 N.am      9 UNK        -0.4200 
     55 CA         20.8959  -32.6904  -41.0686 C.3       9 UNK         0.0839 
     56 C          21.8804  -33.8714  -41.3242 C.2       9 UNK         0.5513 
     57 N          23.1663  -33.7172  -41.0335 N.am      9 UNK        -0.7519 
     58 O          21.4865  -34.9330  -41.8012 O.2       9 UNK        -0.4960 
     59 C59        19.4055  -33.1409  -41.0049 C.3       10 UNK        -0.0876 
     60 S60        18.2278  -31.7498  -40.8394 S.3       10 UNK        -0.2414 
     61 C61        17.1089  -32.0022  -42.2561 C.3       10 UNK         0.0169 
     62 H62        17.1318  -28.9912  -40.2873 H         1 UNK         0.0903 
     63 H63        17.2829  -28.0122  -38.8307 H         1 UNK         0.0903 
     64 H64        15.7076  -28.1976  -39.6051 H         1 UNK         0.0903 
     65 H65        17.3477  -27.9657  -42.3031 H         1 UNK         0.3096 
     66 H66        16.9758  -25.0999  -42.6461 H         1 UNK         0.1121 
     67 H67        17.4564  -25.5370  -45.0190 H         1 UNK         0.0849 
     68 H68        18.0966  -27.1142  -44.6627 H         1 UNK         0.0849 
     69 H69        16.3667  -28.0852  -46.6724 H         1 UNK         0.0865 
     70 H70        15.0518  -28.9721  -45.9479 H         1 UNK         0.0865 
     71 H71        15.6731  -30.0582  -43.5246 H         1 UNK         0.1346 
     72 H72        19.4147  -32.1434  -43.7178 H         1 UNK         0.1412 
     73 H73        18.4595  -29.1772  -46.6575 H         1 UNK         0.1426 
     74 H74        20.3040  -31.6373  -46.7275 H         1 UNK         0.0716 
     75 H75        21.1257  -31.4218  -45.2019 H         1 UNK         0.0716 
     76 H76        21.9770  -28.9683  -44.2839 H         1 UNK         0.0695 
     77 H77        20.4328  -28.2784  -44.6731 H         1 UNK         0.0695 
     78 H78        21.8134  -26.7209  -46.3709 H         1 UNK         0.0983 
     79 H79        21.1851  -26.3838  -43.5654 H         1 UNK         0.3095 
     80 H80        21.3670  -24.0547  -42.6023 H         1 UNK         0.0454 
     81 H81        20.3366  -21.8327  -43.0113 H         1 UNK         0.0851 
     82 H82        20.2629  -22.1592  -44.7431 H         1 UNK         0.0851 
     83 H83        21.8173  -22.0074  -43.9362 H         1 UNK         0.0851 
     84 H84        18.7181  -23.8355  -43.8215 H         1 UNK         0.2976 
     85 H85        23.6768  -28.0806  -47.0769 H         1 UNK         0.3116 
     86 H86        26.2468  -27.2300  -46.1147 H         1 UNK         0.0646 
     87 H87        27.0954  -28.9381  -47.7299 H         1 UNK         0.0847 
     88 H88        25.8683  -27.9267  -48.4720 H         1 UNK         0.0847 
     89 H89        25.4681  -29.5643  -47.9508 H         1 UNK         0.0847 
     90 H90        24.1189  -29.8800  -45.2794 H         1 UNK         0.3040 
     91 H91        26.0963  -31.2527  -43.5682 H         1 UNK         0.1015 
     92 H92        24.3968  -32.4989  -45.0257 H         1 UNK         0.0786 
     93 H93        23.1240  -31.8649  -43.9788 H         1 UNK         0.0786 
     94 H94        24.3636  -32.9282  -43.3293 H         1 UNK         0.0786 
     95 H95        24.5463  -28.4338  -43.2071 H         1 UNK         0.3172 
     96 H96        23.9651  -27.0718  -41.6078 H         1 UNK         0.0595 
     97 H97        24.8699  -29.1349  -39.5211 H         1 UNK         0.0839 
     98 H98        24.7010  -27.4027  -39.2858 H         1 UNK         0.0839 
     99 H99        25.9519  -28.0168  -40.3443 H         1 UNK         0.0839 
    100 H100       22.5722  -26.8805  -39.4639 H         1 UNK         0.2998 
    101 H101       19.9415  -27.8645  -40.0190 H         1 UNK         0.0822 
    102 H102       20.3459  -25.6645  -38.9532 H         1 UNK         0.0787 
    103 H103       19.3671  -26.6673  -37.8993 H         1 UNK         0.0787 
    104 H104       21.0758  -26.4447  -37.5458 H         1 UNK         0.0787 
    105 H105       22.5518  -29.3588  -38.4436 H         1 UNK         0.3055 
    106 H106       21.0807  -31.2170  -36.7601 H         1 UNK         0.1106 
    107 H107       23.2786  -32.4069  -36.7061 H         1 UNK         0.0828 
    108 H108       23.9120  -31.3393  -37.9503 H         1 UNK         0.0828 
    109 H109       23.4934  -30.7000  -36.3590 H         1 UNK         0.0828 
    110 H110       21.5453  -30.8896  -40.1934 H         1 UNK         0.2931 
    111 H111       20.9990  -32.0537  -41.9476 H         1 UNK         0.0412 
    112 H112       23.5216  -32.8141  -40.7449 H         1 UNK         0.3472 
    113 H113       23.8029  -34.4813  -41.1924 H         1 UNK         0.3472 
    114 H114       19.1540  -33.7196  -41.8945 H         1 UNK         0.0970 
    115 H115       19.2490  -33.8183  -40.1643 H         1 UNK         0.0970 
    116 H116       17.0552  -33.0586  -42.5210 H         1 UNK         0.0612 
    117 H117       16.1038  -31.7263  -41.9337 H         1 UNK         0.0612 
@<TRIPOS>BOND
     1    1    2 1    
     2    1   62 1    
     3    1   63 1    
     4    1   64 1    
     5    2    3 2    
     6    2    4 am   BACKBONE|DICT|INTERRES
     7    4    5 1    
     8    4   65 1    
     9    5    6 1    
    10    5   25 1    
    11    5   66 1    
    12    6    7 1    
    13    6   67 1    
    14    6   68 1    
    15    7    8 1    
    16    8    9 1    
    17    8   69 1    
    18    8   70 1    
    19    9   10 ar   
    20    9   14 ar   
    21   10   11 ar   
    22   10   71 1    
    23   11   12 ar   
    24   11   61 1    
    25   12   13 ar   
    26   12   72 1    
    27   13   14 ar   
    28   13   15 1    
    29   14   73 1    
    30   15   16 1    
    31   15   74 1    
    32   15   75 1    
    33   16   17 1    
    34   17   18 1    
    35   17   76 1    
    36   17   77 1    
    37   18   19 1    
    38   18   27 1    
    39   18   78 1    
    40   19   20 am   BACKBONE|DICT|INTERRES
    41   19   79 1    
    42   20   21 2    
    43   20   22 1    
    44   22   23 1    
    45   22   24 1    
    46   22   80 1    
    47   23   81 1    
    48   23   82 1    
    49   23   83 1    
    50   24   25 am   BACKBONE|DICT|INTERRES
    51   24   84 1    
    52   25   26 2    
    53   27   28 2    
    54   27   29 am   BACKBONE|DICT|INTERRES
    55   29   30 1    
    56   29   85 1    
    57   30   31 1    
    58   30   32 1    
    59   30   86 1    
    60   31   87 1    
    61   31   88 1    
    62   31   89 1    
    63   32   33 2    
    64   32   34 am   BACKBONE|DICT|INTERRES
    65   34   35 1    
    66   34   90 1    
    67   35   36 1    
    68   35   37 1    
    69   35   91 1    
    70   36   92 1    
    71   36   93 1    
    72   36   94 1    
    73   37   38 2    
    74   37   39 am   BACKBONE|DICT|INTERRES
    75   39   40 1    
    76   39   95 1    
    77   40   41 1    
    78   40   42 1    
    79   40   96 1    
    80   41   97 1    
    81   41   98 1    
    82   41   99 1    
    83   42   43 2    
    84   42   44 am   BACKBONE|DICT|INTERRES
    85   44   45 1    
    86   44  100 1    
    87   45   46 1    
    88   45   47 1    
    89   45  101 1    
    90   46  102 1    
    91   46  103 1    
    92   46  104 1    
    93   47   48 2    
    94   47   49 am   BACKBONE|DICT|INTERRES
    95   49   50 1    
    96   49  105 1    
    97   50   51 1    
    98   50   52 1    
    99   50  106 1    
   100   51  107 1    
   101   51  108 1    
   102   51  109 1    
   103   52   53 2    
   104   52   54 am   BACKBONE|DICT|INTERRES
   105   54   55 1    
   106   54  110 1    
   107   55   56 1    
   108   55   59 1    
   109   55  111 1    
   110   56   57 am   BACKBONE|DICT|INTERRES
   111   56   58 2    
   112   57  112 1    
   113   57  113 1    
   114   59   60 1    
   115   59  114 1    
   116   59  115 1    
   117   60   61 1    
   118   61  116 1    
   119   61  117 1    
@<TRIPOS>SUBSTRUCTURE
     1 UNK         1 GROUP             0       ****    0 ROOT    
