@<TRIPOS>MOLECULE
3R8
117   119    1
SMALL
USER_CHARGES


@<TRIPOS>ATOM
      1 CA         15.9192  -23.9690  -41.7538 C.3       0 UNK        -0.2013 
      2 C          16.6920  -25.1568  -42.3064 C.2       0 UNK         0.4866 
      3 O          17.3932  -25.0191  -43.3092 O.2       0 UNK        -0.5176 
      4 N          16.5766  -26.3231  -41.6585 N.am      1 UNK        -0.4884 
      5 CA         17.2378  -27.5786  -42.0352 C.3       1 UNK         0.0853 
      6 C6         16.4913  -28.8118  -41.4663 C.3       10 UNK        -0.0849 
      7 S7         14.8640  -29.0110  -42.2666 S.3       10 UNK        -0.2776 
      8 C8         15.1281  -30.4808  -43.3163 C.3       10 UNK         0.0316 
      9 C9         16.3304  -30.3531  -44.2470 C.ar      10 UNK        -0.0863 
     10 C10        17.3915  -31.2591  -44.1456 C.ar      10 UNK        -0.1009 
     11 C11        18.4864  -31.1703  -45.0103 C.ar      10 UNK        -0.0712 
     12 C12        18.5101  -30.1758  -45.9885 C.ar      10 UNK        -0.0894 
     13 C13        17.4775  -29.2383  -46.0771 C.ar      10 UNK        -0.0745 
     14 C14        16.3814  -29.3426  -45.2138 C.ar      10 UNK        -0.0972 
     15 C15        17.5420  -28.1166  -47.1046 C.3       10 UNK         0.0209 
     16 S16        18.5186  -26.6975  -46.5033 S.3       10 UNK        -0.2568 
     17 C17        20.2139  -27.1806  -46.9834 C.3       10 UNK        -0.0983 
     18 CA         21.3208  -26.6758  -46.0219 C.3       3 UNK         0.0876 
     19 N          21.0249  -26.9657  -44.6154 N.am      3 UNK        -0.4424 
     20 C          21.5774  -26.3165  -43.5801 C.2       2 UNK         0.4918 
     21 O          22.4967  -25.5056  -43.7003 O.2       2 UNK        -0.4875 
     22 CA         20.9489  -26.5719  -42.1985 C.3       2 UNK         0.0481 
     23 CB         21.2636  -25.4654  -41.1754 C.3       2 UNK        -0.1831 
     24 N          19.5018  -26.7216  -42.3338 N.am      2 UNK        -0.4498 
     25 C          18.7270  -27.5583  -41.6396 C.2       1 UNK         0.5027 
     26 O          19.1429  -28.2843  -40.7348 O.2       1 UNK        -0.4969 
     27 C          22.6883  -27.2166  -46.4889 C.2       3 UNK         0.5005 
     28 O          23.2486  -26.6605  -47.4358 O.2       3 UNK        -0.5279 
     29 N          23.1820  -28.3005  -45.8706 N.am      4 UNK        -0.4463 
     30 CA         24.3716  -29.0204  -46.3282 C.3       4 UNK         0.0283 
     31 CB         23.9850  -30.0685  -47.3908 C.3       4 UNK        -0.1875 
     32 C          25.1492  -29.6428  -45.1649 C.2       4 UNK         0.4949 
     33 O          26.2602  -29.1964  -44.8761 O.2       4 UNK        -0.5039 
     34 N          24.5784  -30.6758  -44.5297 N.am      5 UNK        -0.4663 
     35 CA         25.2353  -31.5117  -43.5160 C.3       5 UNK         0.0242 
     36 CB         24.5303  -32.8810  -43.4663 C.3       5 UNK        -0.1982 
     37 C          25.3185  -30.8348  -42.1331 C.2       5 UNK         0.5017 
     38 O          24.8069  -31.3753  -41.1516 O.2       5 UNK        -0.5012 
     39 N          25.9649  -29.6616  -42.0902 N.am      6 UNK        -0.4439 
     40 CA         26.0995  -28.7582  -40.9426 C.3       6 UNK         0.0297 
     41 CB         26.9753  -29.3944  -39.8380 C.3       6 UNK        -0.2006 
     42 C          24.7194  -28.2668  -40.4613 C.2       6 UNK         0.4892 
     43 O          23.8671  -27.9742  -41.3016 O.2       6 UNK        -0.5089 
     44 N          24.5215  -28.1741  -39.1422 N.am      7 UNK        -0.4243 
     45 CA         23.2512  -27.8442  -38.5072 C.3       7 UNK         0.0196 
     46 CB         23.2408  -26.3574  -38.1105 C.3       7 UNK        -0.2007 
     47 C          23.1081  -28.7421  -37.2651 C.2       7 UNK         0.5020 
     48 O          24.0476  -28.7817  -36.4701 O.2       7 UNK        -0.5147 
     49 N          21.9819  -29.4354  -37.0446 N.am      8 UNK        -0.4734 
     50 CA         20.8806  -29.6746  -37.9816 C.3       8 UNK         0.0238 
     51 CB         19.6741  -30.2260  -37.2045 C.3       8 UNK        -0.1912 
     52 C          21.3067  -30.6727  -39.0734 C.2       8 UNK         0.5038 
     53 O          22.0086  -31.6399  -38.7706 O.2       8 UNK        -0.5046 
     54 N          20.8482  -30.4295  -40.3041 N.am      9 UNK        -0.4200 
     55 CA         21.0454  -31.3007  -41.4717 C.3       9 UNK         0.0839 
     56 C          20.2884  -32.6559  -41.3603 C.2       9 UNK         0.5513 
     57 N          19.1318  -32.7038  -40.7079 N.am      9 UNK        -0.7519 
     58 O          20.7616  -33.6762  -41.8525 O.2       9 UNK        -0.4960 
     59 C59        20.6780  -30.5258  -42.7628 C.3       10 UNK        -0.0876 
     60 S60        21.1888  -31.3004  -44.3353 S.3       10 UNK        -0.2414 
     61 C61        19.6573  -32.1344  -44.8792 C.3       10 UNK         0.0169 
     62 H62        16.6067  -23.1689  -41.4808 H         1 UNK         0.0903 
     63 H63        15.3387  -24.2345  -40.8705 H         1 UNK         0.0903 
     64 H64        15.2325  -23.5858  -42.5081 H         1 UNK         0.0903 
     65 H65        15.9929  -26.3737  -40.8355 H         1 UNK         0.3096 
     66 H66        17.2195  -27.6590  -43.1245 H         1 UNK         0.1121 
     67 H67        16.3481  -28.7156  -40.3886 H         1 UNK         0.0849 
     68 H68        17.0713  -29.7255  -41.6093 H         1 UNK         0.0849 
     69 H69        15.2288  -31.3553  -42.6713 H         1 UNK         0.0865 
     70 H70        14.2331  -30.6497  -43.9166 H         1 UNK         0.0865 
     71 H71        17.3687  -32.0342  -43.3913 H         1 UNK         0.1346 
     72 H72        19.3499  -30.1327  -46.6650 H         1 UNK         0.1412 
     73 H73        15.5702  -28.6304  -45.2844 H         1 UNK         0.1426 
     74 H74        16.5341  -27.7690  -47.3364 H         1 UNK         0.0716 
     75 H75        17.9564  -28.4843  -48.0446 H         1 UNK         0.0716 
     76 H76        20.2705  -28.2624  -47.0787 H         1 UNK         0.0695 
     77 H77        20.3885  -26.7906  -47.9881 H         1 UNK         0.0695 
     78 H78        21.3652  -25.5888  -46.1238 H         1 UNK         0.0983 
     79 H79        20.2521  -27.5922  -44.4459 H         1 UNK         0.3095 
     80 H80        21.3755  -27.5029  -41.8272 H         1 UNK         0.0454 
     81 H81        20.8557  -24.5032  -41.4863 H         1 UNK         0.0851 
     82 H82        20.8543  -25.7048  -40.1941 H         1 UNK         0.0851 
     83 H83        22.3404  -25.3429  -41.0559 H         1 UNK         0.0851 
     84 H84        19.0435  -26.1072  -43.0033 H         1 UNK         0.2976 
     85 H85        22.6960  -28.6734  -45.0671 H         1 UNK         0.3116 
     86 H86        25.0587  -28.3134  -46.7991 H         1 UNK         0.0646 
     87 H87        24.8491  -30.6652  -47.6867 H         1 UNK         0.0847 
     88 H88        23.6017  -29.5908  -48.2926 H         1 UNK         0.0847 
     89 H89        23.2187  -30.7556  -47.0304 H         1 UNK         0.0847 
     90 H90        23.6457  -30.9592  -44.7980 H         1 UNK         0.3040 
     91 H91        26.2645  -31.6915  -43.8359 H         1 UNK         0.1015 
     92 H92        24.5259  -33.3628  -44.4441 H         1 UNK         0.0786 
     93 H93        23.4969  -32.7953  -43.1299 H         1 UNK         0.0786 
     94 H94        25.0390  -33.5566  -42.7773 H         1 UNK         0.0786 
     95 H95        26.2836  -29.2955  -42.9845 H         1 UNK         0.3172 
     96 H96        26.6228  -27.8756  -41.3128 H         1 UNK         0.0595 
     97 H97        27.2279  -28.6692  -39.0635 H         1 UNK         0.0839 
     98 H98        27.9183  -29.7571  -40.2473 H         1 UNK         0.0839 
     99 H99        26.4803  -30.2385  -39.3560 H         1 UNK         0.0839 
    100 H100       25.2522  -28.4687  -38.5077 H         1 UNK         0.2998 
    101 H101       22.4457  -28.0110  -39.2199 H         1 UNK         0.0822 
    102 H102       24.0039  -26.1318  -37.3643 H         1 UNK         0.0787 
    103 H103       23.4223  -25.7141  -38.9706 H         1 UNK         0.0787 
    104 H104       22.2756  -26.0753  -37.6884 H         1 UNK         0.0787 
    105 H105       21.9535  -30.0013  -36.2090 H         1 UNK         0.3055 
    106 H106       20.5682  -28.7312  -38.4333 H         1 UNK         0.1106 
    107 H107       19.8974  -31.1843  -36.7334 H         1 UNK         0.0828 
    108 H108       19.3533  -29.5347  -36.4249 H         1 UNK         0.0828 
    109 H109       18.8217  -30.3800  -37.8677 H         1 UNK         0.0828 
    110 H110       20.2427  -29.6226  -40.4487 H         1 UNK         0.2931 
    111 H111       22.1106  -31.5321  -41.5172 H         1 UNK         0.0412 
    112 H112       18.7444  -31.8771  -40.2838 H         1 UNK         0.3472 
    113 H113       18.6511  -33.5857  -40.6251 H         1 UNK         0.3472 
    114 H114       19.6139  -30.2938  -42.7754 H         1 UNK         0.0970 
    115 H115       21.1834  -29.5616  -42.7434 H         1 UNK         0.0970 
    116 H116       19.8408  -32.6075  -45.8447 H         1 UNK         0.0612 
    117 H117       19.4190  -32.9420  -44.1864 H         1 UNK         0.0612 
@<TRIPOS>BOND
     1    1    2 1    
     2    1   62 1    
     3    1   63 1    
     4    1   64 1    
     5    2    3 2    
     6    2    4 am   BACKBONE|DICT|INTERRES
     7    4    5 1    
     8    4   65 1    
     9    5    6 1    
    10    5   25 1    
    11    5   66 1    
    12    6    7 1    
    13    6   67 1    
    14    6   68 1    
    15    7    8 1    
    16    8    9 1    
    17    8   69 1    
    18    8   70 1    
    19    9   10 ar   
    20    9   14 ar   
    21   10   11 ar   
    22   10   71 1    
    23   11   12 ar   
    24   11   61 1    
    25   12   13 ar   
    26   12   72 1    
    27   13   14 ar   
    28   13   15 1    
    29   14   73 1    
    30   15   16 1    
    31   15   74 1    
    32   15   75 1    
    33   16   17 1    
    34   17   18 1    
    35   17   76 1    
    36   17   77 1    
    37   18   19 1    
    38   18   27 1    
    39   18   78 1    
    40   19   20 am   BACKBONE|DICT|INTERRES
    41   19   79 1    
    42   20   21 2    
    43   20   22 1    
    44   22   23 1    
    45   22   24 1    
    46   22   80 1    
    47   23   81 1    
    48   23   82 1    
    49   23   83 1    
    50   24   25 am   BACKBONE|DICT|INTERRES
    51   24   84 1    
    52   25   26 2    
    53   27   28 2    
    54   27   29 am   BACKBONE|DICT|INTERRES
    55   29   30 1    
    56   29   85 1    
    57   30   31 1    
    58   30   32 1    
    59   30   86 1    
    60   31   87 1    
    61   31   88 1    
    62   31   89 1    
    63   32   33 2    
    64   32   34 am   BACKBONE|DICT|INTERRES
    65   34   35 1    
    66   34   90 1    
    67   35   36 1    
    68   35   37 1    
    69   35   91 1    
    70   36   92 1    
    71   36   93 1    
    72   36   94 1    
    73   37   38 2    
    74   37   39 am   BACKBONE|DICT|INTERRES
    75   39   40 1    
    76   39   95 1    
    77   40   41 1    
    78   40   42 1    
    79   40   96 1    
    80   41   97 1    
    81   41   98 1    
    82   41   99 1    
    83   42   43 2    
    84   42   44 am   BACKBONE|DICT|INTERRES
    85   44   45 1    
    86   44  100 1    
    87   45   46 1    
    88   45   47 1    
    89   45  101 1    
    90   46  102 1    
    91   46  103 1    
    92   46  104 1    
    93   47   48 2    
    94   47   49 am   BACKBONE|DICT|INTERRES
    95   49   50 1    
    96   49  105 1    
    97   50   51 1    
    98   50   52 1    
    99   50  106 1    
   100   51  107 1    
   101   51  108 1    
   102   51  109 1    
   103   52   53 2    
   104   52   54 am   BACKBONE|DICT|INTERRES
   105   54   55 1    
   106   54  110 1    
   107   55   56 1    
   108   55   59 1    
   109   55  111 1    
   110   56   57 am   BACKBONE|DICT|INTERRES
   111   56   58 2    
   112   57  112 1    
   113   57  113 1    
   114   59   60 1    
   115   59  114 1    
   116   59  115 1    
   117   60   61 1    
   118   61  116 1    
   119   61  117 1    
@<TRIPOS>SUBSTRUCTURE
     1 UNK         1 GROUP             0       ****    0 ROOT    
