@<TRIPOS>MOLECULE
3R8
117   119    1
SMALL
USER_CHARGES


@<TRIPOS>ATOM
      1 CA         12.8693  -24.0511  -45.5121 C.3       0 UNK        -0.2013 
      2 C          14.3634  -24.2348  -45.7332 C.2       0 UNK         0.4866 
      3 O          15.0689  -23.2589  -45.9910 O.2       0 UNK        -0.5176 
      4 N          14.8510  -25.4785  -45.6416 N.am      1 UNK        -0.4884 
      5 CA         16.2700  -25.8296  -45.7547 C.3       1 UNK         0.0853 
      6 C6         16.4501  -27.3462  -46.0374 C.3       10 UNK        -0.0849 
      7 S7         17.8639  -27.7179  -47.1307 S.3       10 UNK        -0.2776 
      8 C8         19.2466  -27.9583  -45.9690 C.3       10 UNK         0.0316 
      9 C9         19.0576  -29.1576  -45.0515 C.ar      10 UNK        -0.0863 
     10 C10        19.3628  -30.4434  -45.5040 C.ar      10 UNK        -0.1009 
     11 C11        19.2146  -31.5438  -44.6567 C.ar      10 UNK        -0.0712 
     12 C12        18.7677  -31.3473  -43.3460 C.ar      10 UNK        -0.0894 
     13 C13        18.4611  -30.0680  -42.8718 C.ar      10 UNK        -0.0745 
     14 C14        18.6014  -28.9784  -43.7418 C.ar      10 UNK        -0.0972 
     15 C15        17.9501  -29.9364  -41.4326 C.3       10 UNK         0.0209 
     16 S16        17.7092  -28.2352  -40.8036 S.3       10 UNK        -0.2568 
     17 C17        19.3784  -27.7834  -40.2165 C.3       10 UNK        -0.0983 
     18 CA         20.2260  -27.0422  -41.2785 C.3       3 UNK         0.0876 
     19 N          19.5333  -25.8787  -41.8511 N.am      3 UNK        -0.4424 
     20 C          19.8474  -25.3194  -43.0263 C.2       2 UNK         0.4918 
     21 O          20.7868  -25.6883  -43.7313 O.2       2 UNK        -0.4875 
     22 CA         18.9459  -24.1747  -43.5132 C.3       2 UNK         0.0481 
     23 CB         19.7794  -22.9646  -43.9682 C.3       2 UNK        -0.1831 
     24 N          18.1030  -24.6297  -44.6206 N.am      2 UNK        -0.4498 
     25 C          17.0120  -25.3936  -44.4734 C.2       1 UNK         0.5027 
     26 O          16.5796  -25.7578  -43.3775 O.2       1 UNK        -0.4969 
     27 C          21.6309  -26.7129  -40.7298 C.2       3 UNK         0.5005 
     28 O          22.4183  -27.6357  -40.5022 O.2       3 UNK        -0.5279 
     29 N          21.9398  -25.4198  -40.5459 N.am      4 UNK        -0.4463 
     30 CA         23.2664  -24.9083  -40.1970 C.3       4 UNK         0.0283 
     31 CB         23.2029  -23.3800  -40.0430 C.3       4 UNK        -0.1875 
     32 C          24.3034  -25.3118  -41.2590 C.2       4 UNK         0.4949 
     33 O          24.1257  -24.9854  -42.4327 O.2       4 UNK        -0.5039 
     34 N          25.3246  -26.0593  -40.8218 N.am      5 UNK        -0.4663 
     35 CA         26.3752  -26.7146  -41.6158 C.3       5 UNK         0.0242 
     36 CB         27.1455  -25.7099  -42.4994 C.3       5 UNK        -0.1982 
     37 C          25.9080  -27.9497  -42.4160 C.2       5 UNK         0.5017 
     38 O          26.7594  -28.6224  -42.9989 O.2       5 UNK        -0.5012 
     39 N          24.6044  -28.2699  -42.4009 N.am      6 UNK        -0.4439 
     40 CA         24.0677  -29.5507  -42.8733 C.3       6 UNK         0.0297 
     41 CB         22.6103  -29.3892  -43.3419 C.3       6 UNK        -0.2006 
     42 C          24.1842  -30.5968  -41.7527 C.2       6 UNK         0.4892 
     43 O          24.6165  -31.7174  -42.0205 O.2       6 UNK        -0.5089 
     44 N          23.8503  -30.1829  -40.5180 N.am      7 UNK        -0.4243 
     45 CA         24.0759  -30.8652  -39.2387 C.3       7 UNK         0.0196 
     46 CB         25.5703  -30.7790  -38.8563 C.3       7 UNK        -0.2007 
     47 C          23.5226  -32.3019  -39.1930 C.2       7 UNK         0.5020 
     48 O          22.3504  -32.4887  -38.8695 O.2       7 UNK        -0.5147 
     49 N          24.3755  -33.2853  -39.5108 N.am      8 UNK        -0.4734 
     50 CA         24.0656  -34.7181  -39.5412 C.3       8 UNK         0.0238 
     51 CB         25.3854  -35.5070  -39.5846 C.3       8 UNK        -0.1912 
     52 C          23.1387  -35.1481  -40.6958 C.2       8 UNK         0.5038 
     53 O          22.6724  -36.2883  -40.6797 O.2       8 UNK        -0.5046 
     54 N          22.9004  -34.2549  -41.6679 N.am      9 UNK        -0.4200 
     55 CA         21.9545  -34.4092  -42.7848 C.3       9 UNK         0.0839 
     56 C          20.5324  -34.8370  -42.3207 C.2       9 UNK         0.5513 
     57 N          19.9633  -35.8728  -42.9223 N.am      9 UNK        -0.7519 
     58 O          19.9328  -34.2132  -41.4482 O.2       9 UNK        -0.4960 
     59 C59        21.9009  -33.0996  -43.6138 C.3       10 UNK        -0.0876 
     60 S60        21.2832  -33.3114  -45.3182 S.3       10 UNK        -0.2414 
     61 C61        19.5019  -32.9495  -45.1664 C.3       10 UNK         0.0169 
     62 H62        12.3676  -24.9963  -45.3059 H         1 UNK         0.0903 
     63 H63        12.6945  -23.3835  -44.6688 H         1 UNK         0.0903 
     64 H64        12.4106  -23.6101  -46.3967 H         1 UNK         0.0903 
     65 H65        14.2308  -26.2351  -45.3891 H         1 UNK         0.3096 
     66 H66        16.6707  -25.2669  -46.6015 H         1 UNK         0.1121 
     67 H67        16.4911  -27.9392  -45.1230 H         1 UNK         0.0849 
     68 H68        15.5760  -27.7249  -46.5699 H         1 UNK         0.0849 
     69 H69        20.1665  -28.0857  -46.5418 H         1 UNK         0.0865 
     70 H70        19.3867  -27.0498  -45.3888 H         1 UNK         0.0865 
     71 H71        19.7107  -30.5896  -46.5176 H         1 UNK         0.1346 
     72 H72        18.6474  -32.1997  -42.6909 H         1 UNK         0.1412 
     73 H73        18.3519  -27.9814  -43.4113 H         1 UNK         0.1426 
     74 H74        18.6161  -30.4772  -40.7586 H         1 UNK         0.0716 
     75 H75        16.9864  -30.4442  -41.3758 H         1 UNK         0.0716 
     76 H76        19.2562  -27.1583  -39.3300 H         1 UNK         0.0695 
     77 H77        19.8905  -28.6864  -39.8779 H         1 UNK         0.0695 
     78 H78        20.3968  -27.7415  -42.0962 H         1 UNK         0.0983 
     79 H79        18.7106  -25.5608  -41.3576 H         1 UNK         0.3095 
     80 H80        18.3066  -23.8475  -42.6902 H         1 UNK         0.0454 
     81 H81        20.4257  -23.2085  -44.8125 H         1 UNK         0.0851 
     82 H82        19.1407  -22.1326  -44.2650 H         1 UNK         0.0851 
     83 H83        20.4211  -22.6079  -43.1616 H         1 UNK         0.0851 
     84 H84        18.4094  -24.3812  -45.5505 H         1 UNK         0.2976 
     85 H85        21.2377  -24.7336  -40.7780 H         1 UNK         0.3116 
     86 H86        23.5468  -25.3394  -39.2336 H         1 UNK         0.0646 
     87 H87        24.1785  -22.9761  -39.7693 H         1 UNK         0.0847 
     88 H88        22.5018  -23.0867  -39.2614 H         1 UNK         0.0847 
     89 H89        22.8980  -22.8919  -40.9698 H         1 UNK         0.0847 
     90 H90        25.3478  -26.2767  -39.8339 H         1 UNK         0.3040 
     91 H91        27.0857  -27.1024  -40.8836 H         1 UNK         0.1015 
     92 H92        27.4832  -24.8491  -41.9224 H         1 UNK         0.0786 
     93 H93        26.5395  -25.3442  -43.3285 H         1 UNK         0.0786 
     94 H94        28.0316  -26.1749  -42.9335 H         1 UNK         0.0786 
     95 H95        23.9716  -27.6836  -41.8689 H         1 UNK         0.3172 
     96 H96        24.6557  -29.8890  -43.7292 H         1 UNK         0.0595 
     97 H97        22.4636  -28.4670  -43.9052 H         1 UNK         0.0839 
     98 H98        21.9078  -29.3920  -42.5095 H         1 UNK         0.0839 
     99 H99        22.3235  -30.2110  -43.9979 H         1 UNK         0.0839 
    100 H100       23.4205  -29.2638  -40.4404 H         1 UNK         0.2998 
    101 H101       23.5162  -30.3010  -38.4907 H         1 UNK         0.0822 
    102 H102       25.8763  -29.7418  -38.7187 H         1 UNK         0.0787 
    103 H103       25.7677  -31.2976  -37.9169 H         1 UNK         0.0787 
    104 H104       26.2205  -31.2113  -39.6176 H         1 UNK         0.0787 
    105 H105       25.3015  -33.0183  -39.8145 H         1 UNK         0.3055 
    106 H106       23.5465  -34.9683  -38.6132 H         1 UNK         0.1106 
    107 H107       25.9539  -35.2924  -40.4904 H         1 UNK         0.0828 
    108 H108       26.0168  -35.2741  -38.7270 H         1 UNK         0.0828 
    109 H109       25.2008  -36.5821  -39.5637 H         1 UNK         0.0828 
    110 H110       23.3742  -33.3614  -41.6045 H         1 UNK         0.2931 
    111 H111       22.3674  -35.1981  -43.4166 H         1 UNK         0.0412 
    112 H112       19.0393  -36.1591  -42.6391 H         1 UNK         0.3472 
    113 H113       20.4466  -36.3826  -43.6456 H         1 UNK         0.3472 
    114 H114       22.9111  -32.7074  -43.7316 H         1 UNK         0.0970 
    115 H115       21.3489  -32.3202  -43.0877 H         1 UNK         0.0970 
    116 H116       19.0300  -33.6942  -44.5256 H         1 UNK         0.0612 
    117 H117       19.0424  -33.0711  -46.1483 H         1 UNK         0.0612 
@<TRIPOS>BOND
     1    1    2 1    
     2    1   62 1    
     3    1   63 1    
     4    1   64 1    
     5    2    3 2    
     6    2    4 am   BACKBONE|DICT|INTERRES
     7    4    5 1    
     8    4   65 1    
     9    5    6 1    
    10    5   25 1    
    11    5   66 1    
    12    6    7 1    
    13    6   67 1    
    14    6   68 1    
    15    7    8 1    
    16    8    9 1    
    17    8   69 1    
    18    8   70 1    
    19    9   10 ar   
    20    9   14 ar   
    21   10   11 ar   
    22   10   71 1    
    23   11   12 ar   
    24   11   61 1    
    25   12   13 ar   
    26   12   72 1    
    27   13   14 ar   
    28   13   15 1    
    29   14   73 1    
    30   15   16 1    
    31   15   74 1    
    32   15   75 1    
    33   16   17 1    
    34   17   18 1    
    35   17   76 1    
    36   17   77 1    
    37   18   19 1    
    38   18   27 1    
    39   18   78 1    
    40   19   20 am   BACKBONE|DICT|INTERRES
    41   19   79 1    
    42   20   21 2    
    43   20   22 1    
    44   22   23 1    
    45   22   24 1    
    46   22   80 1    
    47   23   81 1    
    48   23   82 1    
    49   23   83 1    
    50   24   25 am   BACKBONE|DICT|INTERRES
    51   24   84 1    
    52   25   26 2    
    53   27   28 2    
    54   27   29 am   BACKBONE|DICT|INTERRES
    55   29   30 1    
    56   29   85 1    
    57   30   31 1    
    58   30   32 1    
    59   30   86 1    
    60   31   87 1    
    61   31   88 1    
    62   31   89 1    
    63   32   33 2    
    64   32   34 am   BACKBONE|DICT|INTERRES
    65   34   35 1    
    66   34   90 1    
    67   35   36 1    
    68   35   37 1    
    69   35   91 1    
    70   36   92 1    
    71   36   93 1    
    72   36   94 1    
    73   37   38 2    
    74   37   39 am   BACKBONE|DICT|INTERRES
    75   39   40 1    
    76   39   95 1    
    77   40   41 1    
    78   40   42 1    
    79   40   96 1    
    80   41   97 1    
    81   41   98 1    
    82   41   99 1    
    83   42   43 2    
    84   42   44 am   BACKBONE|DICT|INTERRES
    85   44   45 1    
    86   44  100 1    
    87   45   46 1    
    88   45   47 1    
    89   45  101 1    
    90   46  102 1    
    91   46  103 1    
    92   46  104 1    
    93   47   48 2    
    94   47   49 am   BACKBONE|DICT|INTERRES
    95   49   50 1    
    96   49  105 1    
    97   50   51 1    
    98   50   52 1    
    99   50  106 1    
   100   51  107 1    
   101   51  108 1    
   102   51  109 1    
   103   52   53 2    
   104   52   54 am   BACKBONE|DICT|INTERRES
   105   54   55 1    
   106   54  110 1    
   107   55   56 1    
   108   55   59 1    
   109   55  111 1    
   110   56   57 am   BACKBONE|DICT|INTERRES
   111   56   58 2    
   112   57  112 1    
   113   57  113 1    
   114   59   60 1    
   115   59  114 1    
   116   59  115 1    
   117   60   61 1    
   118   61  116 1    
   119   61  117 1    
@<TRIPOS>SUBSTRUCTURE
     1 UNK         1 GROUP             0       ****    0 ROOT    
