@<TRIPOS>MOLECULE
3R8
117   119    1
SMALL
USER_CHARGES


@<TRIPOS>ATOM
      1 CA         14.2835  -23.2677  -41.6559 C.3       0 UNK        -0.2013 
      2 C          14.9975  -23.7745  -42.9002 C.2       0 UNK         0.4866 
      3 O          14.9064  -23.1479  -43.9567 O.2       0 UNK        -0.5176 
      4 N          15.6992  -24.9089  -42.7869 N.am      1 UNK        -0.4884 
      5 CA         16.4859  -25.5187  -43.8645 C.3       1 UNK         0.0853 
      6 C6         16.8951  -26.9731  -43.5244 C.3       10 UNK        -0.0849 
      7 S7         15.4521  -28.0753  -43.3513 S.3       10 UNK        -0.2776 
      8 C8         15.5218  -29.0302  -44.9027 C.3       10 UNK         0.0316 
      9 C9         16.6948  -30.0019  -44.9260 C.ar      10 UNK        -0.0863 
     10 C10        16.6826  -31.1304  -44.1023 C.ar      10 UNK        -0.1009 
     11 C11        17.7417  -32.0419  -44.1262 C.ar      10 UNK        -0.0712 
     12 C12        18.8287  -31.8089  -44.9753 C.ar      10 UNK        -0.0894 
     13 C13        18.8591  -30.6810  -45.8042 C.ar      10 UNK        -0.0745 
     14 C14        17.7792  -29.7893  -45.7829 C.ar      10 UNK        -0.0972 
     15 C15        20.0444  -30.4670  -46.7452 C.3       10 UNK         0.0209 
     16 S16        20.6081  -28.7336  -46.8636 S.3       10 UNK        -0.2568 
     17 C17        21.1977  -28.4364  -45.1643 C.3       10 UNK        -0.0983 
     18 CA         21.6057  -26.9600  -44.9050 C.3       3 UNK         0.0876 
     19 N          20.5235  -26.0357  -45.2652 N.am      3 UNK        -0.4424 
     20 C          20.6365  -24.7316  -45.5493 C.2       2 UNK         0.4918 
     21 O          21.7003  -24.1140  -45.4953 O.2       2 UNK        -0.4875 
     22 CA         19.3476  -23.9845  -45.9409 C.3       2 UNK         0.0481 
     23 CB         19.2696  -23.8261  -47.4675 C.3       2 UNK        -0.1831 
     24 N          18.1260  -24.6397  -45.4596 N.am      2 UNK        -0.4498 
     25 C          17.7424  -24.6813  -44.1753 C.2       1 UNK         0.5027 
     26 O          18.3636  -24.1413  -43.2561 O.2       1 UNK        -0.4969 
     27 C          22.0998  -26.7510  -43.4515 C.2       3 UNK         0.5005 
     28 O          22.2823  -27.7238  -42.7198 O.2       3 UNK        -0.5279 
     29 N          22.3131  -25.4928  -43.0417 N.am      4 UNK        -0.4463 
     30 CA         22.6729  -25.0864  -41.6770 C.3       4 UNK         0.0283 
     31 CB         22.6781  -23.5518  -41.5937 C.3       4 UNK        -0.1875 
     32 C          24.0099  -25.6588  -41.1707 C.2       4 UNK         0.4949 
     33 O          24.1726  -25.8368  -39.9636 O.2       4 UNK        -0.5039 
     34 N          24.9332  -25.9479  -42.0966 N.am      5 UNK        -0.4663 
     35 CA         26.2251  -26.5763  -41.8152 C.3       5 UNK         0.0242 
     36 CB         27.2014  -26.2269  -42.9509 C.3       5 UNK        -0.1982 
     37 C          26.1403  -28.1039  -41.6339 C.2       5 UNK         0.5017 
     38 O          27.0970  -28.6919  -41.1268 O.2       5 UNK        -0.5012 
     39 N          25.0337  -28.7315  -42.0591 N.am      6 UNK        -0.4439 
     40 CA         24.8291  -30.1766  -41.9925 C.3       6 UNK         0.0297 
     41 CB         23.9553  -30.6234  -43.1788 C.3       6 UNK        -0.2006 
     42 C          24.2099  -30.5423  -40.6366 C.2       6 UNK         0.4892 
     43 O          22.9851  -30.6192  -40.5159 O.2       6 UNK        -0.5089 
     44 N          25.0726  -30.7428  -39.6309 N.am      7 UNK        -0.4243 
     45 CA         24.7049  -31.1760  -38.2801 C.3       7 UNK         0.0196 
     46 CB         25.9660  -31.2488  -37.4040 C.3       7 UNK        -0.2007 
     47 C          23.9780  -32.5304  -38.3163 C.2       7 UNK         0.5020 
     48 O          24.5451  -33.5066  -38.8116 O.2       7 UNK        -0.5147 
     49 N          22.7177  -32.5403  -37.8581 N.am      8 UNK        -0.4734 
     50 CA         21.7654  -33.6605  -37.9265 C.3       8 UNK         0.0238 
     51 CB         22.1924  -34.7922  -36.9668 C.3       8 UNK        -0.1912 
     52 C          21.5104  -34.1644  -39.3657 C.2       8 UNK         0.5038 
     53 O          21.2590  -35.3554  -39.5580 O.2       8 UNK        -0.5046 
     54 N          21.6025  -33.2513  -40.3445 N.am      9 UNK        -0.4200 
     55 CA         21.5460  -33.5056  -41.7939 C.3       9 UNK         0.0839 
     56 C          22.7878  -34.2641  -42.3563 C.2       9 UNK         0.5513 
     57 N          23.8831  -34.4052  -41.6174 N.am      9 UNK        -0.7519 
     58 O          22.7758  -34.7041  -43.5029 O.2       9 UNK        -0.4960 
     59 C59        20.2020  -34.1273  -42.2736 C.3       10 UNK        -0.0876 
     60 S60        18.7359  -33.1547  -41.7795 S.3       10 UNK        -0.2414 
     61 C61        17.6829  -33.2918  -43.2586 C.3       10 UNK         0.0169 
     62 H62        14.6492  -22.2757  -41.3918 H         1 UNK         0.0903 
     63 H63        13.2118  -23.1982  -41.8402 H         1 UNK         0.0903 
     64 H64        14.4383  -23.9249  -40.8004 H         1 UNK         0.0903 
     65 H65        15.7457  -25.3799  -41.8946 H         1 UNK         0.3096 
     66 H66        15.8607  -25.5357  -44.7605 H         1 UNK         0.1121 
     67 H67        17.5622  -27.3780  -44.2864 H         1 UNK         0.0849 
     68 H68        17.4614  -27.0042  -42.5913 H         1 UNK         0.0849 
     69 H69        14.5927  -29.5918  -45.0117 H         1 UNK         0.0865 
     70 H70        15.5617  -28.3447  -45.7507 H         1 UNK         0.0865 
     71 H71        15.8397  -31.3006  -43.4460 H         1 UNK         0.1346 
     72 H72        19.6474  -32.5145  -44.9979 H         1 UNK         0.1412 
     73 H73        17.7844  -28.9275  -46.4358 H         1 UNK         0.1426 
     74 H74        19.7590  -30.8076  -47.7412 H         1 UNK         0.0716 
     75 H75        20.8922  -31.0828  -46.4401 H         1 UNK         0.0716 
     76 H76        20.4166  -28.7429  -44.4654 H         1 UNK         0.0695 
     77 H77        22.0453  -29.1013  -44.9929 H         1 UNK         0.0695 
     78 H78        22.4583  -26.7384  -45.5506 H         1 UNK         0.0983 
     79 H79        19.6102  -26.4539  -45.3424 H         1 UNK         0.3095 
     80 H80        19.3979  -22.9875  -45.4980 H         1 UNK         0.0454 
     81 H81        20.1519  -23.3121  -47.8517 H         1 UNK         0.0851 
     82 H82        19.2102  -24.7908  -47.9731 H         1 UNK         0.0851 
     83 H83        18.4014  -23.2365  -47.7626 H         1 UNK         0.0851 
     84 H84        17.5565  -25.0963  -46.1584 H         1 UNK         0.2976 
     85 H85        22.1648  -24.7534  -43.7226 H         1 UNK         0.3116 
     86 H86        21.8916  -25.4601  -41.0119 H         1 UNK         0.0646 
     87 H87        22.9146  -23.2158  -40.5830 H         1 UNK         0.0847 
     88 H88        21.7031  -23.1370  -41.8508 H         1 UNK         0.0847 
     89 H89        23.4180  -23.1135  -42.2646 H         1 UNK         0.0847 
     90 H90        24.7154  -25.7577  -43.0642 H         1 UNK         0.3040 
     91 H91        26.6228  -26.1632  -40.8851 H         1 UNK         0.1015 
     92 H92        26.8614  -26.6169  -43.9112 H         1 UNK         0.0786 
     93 H93        28.1898  -26.6477  -42.7603 H         1 UNK         0.0786 
     94 H94        27.3255  -25.1483  -43.0501 H         1 UNK         0.0786 
     95 H95        24.2338  -28.1834  -42.3606 H         1 UNK         0.3172 
     96 H96        25.7887  -30.6899  -42.0876 H         1 UNK         0.0595 
     97 H97        23.9053  -31.7102  -43.2302 H         1 UNK         0.0839 
     98 H98        22.9325  -30.2551  -43.0984 H         1 UNK         0.0839 
     99 H99        24.3634  -30.2762  -44.1280 H         1 UNK         0.0839 
    100 H100       26.0593  -30.6310  -39.8201 H         1 UNK         0.2998 
    101 H101       24.0383  -30.4201  -37.8595 H         1 UNK         0.0822 
    102 H102       25.7166  -31.5565  -36.3875 H         1 UNK         0.0787 
    103 H103       26.6879  -31.9677  -37.7940 H         1 UNK         0.0787 
    104 H104       26.4600  -30.2792  -37.3369 H         1 UNK         0.0787 
    105 H105       22.3386  -31.6734  -37.5002 H         1 UNK         0.3055 
    106 H106       20.8068  -33.2748  -37.5754 H         1 UNK         0.1106 
    107 H107       23.1139  -35.2745  -37.2944 H         1 UNK         0.0828 
    108 H108       22.3509  -34.4173  -35.9558 H         1 UNK         0.0828 
    109 H109       21.4256  -35.5656  -36.9061 H         1 UNK         0.0828 
    110 H110       21.8663  -32.3032  -40.0981 H         1 UNK         0.2931 
    111 H111       21.6089  -32.5157  -42.2469 H         1 UNK         0.0412 
    112 H112       24.6747  -34.8911  -42.0075 H         1 UNK         0.3472 
    113 H113       23.9282  -34.0601  -40.6649 H         1 UNK         0.3472 
    114 H114       20.0874  -35.1434  -41.8940 H         1 UNK         0.0970 
    115 H115       20.2097  -34.2189  -43.3604 H         1 UNK         0.0970 
    116 H116       16.6584  -33.4676  -42.9271 H         1 UNK         0.0612 
    117 H117       17.9547  -34.1690  -43.8472 H         1 UNK         0.0612 
@<TRIPOS>BOND
     1    1    2 1    
     2    1   62 1    
     3    1   63 1    
     4    1   64 1    
     5    2    3 2    
     6    2    4 am   BACKBONE|DICT|INTERRES
     7    4    5 1    
     8    4   65 1    
     9    5    6 1    
    10    5   25 1    
    11    5   66 1    
    12    6    7 1    
    13    6   67 1    
    14    6   68 1    
    15    7    8 1    
    16    8    9 1    
    17    8   69 1    
    18    8   70 1    
    19    9   10 ar   
    20    9   14 ar   
    21   10   11 ar   
    22   10   71 1    
    23   11   12 ar   
    24   11   61 1    
    25   12   13 ar   
    26   12   72 1    
    27   13   14 ar   
    28   13   15 1    
    29   14   73 1    
    30   15   16 1    
    31   15   74 1    
    32   15   75 1    
    33   16   17 1    
    34   17   18 1    
    35   17   76 1    
    36   17   77 1    
    37   18   19 1    
    38   18   27 1    
    39   18   78 1    
    40   19   20 am   BACKBONE|DICT|INTERRES
    41   19   79 1    
    42   20   21 2    
    43   20   22 1    
    44   22   23 1    
    45   22   24 1    
    46   22   80 1    
    47   23   81 1    
    48   23   82 1    
    49   23   83 1    
    50   24   25 am   BACKBONE|DICT|INTERRES
    51   24   84 1    
    52   25   26 2    
    53   27   28 2    
    54   27   29 am   BACKBONE|DICT|INTERRES
    55   29   30 1    
    56   29   85 1    
    57   30   31 1    
    58   30   32 1    
    59   30   86 1    
    60   31   87 1    
    61   31   88 1    
    62   31   89 1    
    63   32   33 2    
    64   32   34 am   BACKBONE|DICT|INTERRES
    65   34   35 1    
    66   34   90 1    
    67   35   36 1    
    68   35   37 1    
    69   35   91 1    
    70   36   92 1    
    71   36   93 1    
    72   36   94 1    
    73   37   38 2    
    74   37   39 am   BACKBONE|DICT|INTERRES
    75   39   40 1    
    76   39   95 1    
    77   40   41 1    
    78   40   42 1    
    79   40   96 1    
    80   41   97 1    
    81   41   98 1    
    82   41   99 1    
    83   42   43 2    
    84   42   44 am   BACKBONE|DICT|INTERRES
    85   44   45 1    
    86   44  100 1    
    87   45   46 1    
    88   45   47 1    
    89   45  101 1    
    90   46  102 1    
    91   46  103 1    
    92   46  104 1    
    93   47   48 2    
    94   47   49 am   BACKBONE|DICT|INTERRES
    95   49   50 1    
    96   49  105 1    
    97   50   51 1    
    98   50   52 1    
    99   50  106 1    
   100   51  107 1    
   101   51  108 1    
   102   51  109 1    
   103   52   53 2    
   104   52   54 am   BACKBONE|DICT|INTERRES
   105   54   55 1    
   106   54  110 1    
   107   55   56 1    
   108   55   59 1    
   109   55  111 1    
   110   56   57 am   BACKBONE|DICT|INTERRES
   111   56   58 2    
   112   57  112 1    
   113   57  113 1    
   114   59   60 1    
   115   59  114 1    
   116   59  115 1    
   117   60   61 1    
   118   61  116 1    
   119   61  117 1    
@<TRIPOS>SUBSTRUCTURE
     1 UNK         1 GROUP             0       ****    0 ROOT    
