@<TRIPOS>MOLECULE
3R8
117   119    1
SMALL
USER_CHARGES


@<TRIPOS>ATOM
      1 CA         21.8427  -29.9258  -48.9832 C.3       0 UNK        -0.2013 
      2 C          21.0197  -29.9969  -47.7058 C.2       0 UNK         0.4866 
      3 O          20.9608  -31.0522  -47.0762 O.2       0 UNK        -0.5176 
      4 N          20.3815  -28.8848  -47.3228 N.am      1 UNK        -0.4884 
      5 CA         19.6146  -28.7553  -46.0805 C.3       1 UNK         0.0853 
      6 C6         18.6321  -27.5560  -46.1371 C.3       10 UNK        -0.0849 
      7 S7         17.0875  -28.0055  -46.9914 S.3       10 UNK        -0.2776 
      8 C8         15.8522  -27.7895  -45.6577 C.3       10 UNK         0.0316 
      9 C9         16.0957  -28.6462  -44.4135 C.ar      10 UNK        -0.0863 
     10 C10        16.5087  -29.9792  -44.5196 C.ar      10 UNK        -0.1009 
     11 C11        16.7147  -30.7560  -43.3761 C.ar      10 UNK        -0.0712 
     12 C12        16.4611  -30.2057  -42.1167 C.ar      10 UNK        -0.0894 
     13 C13        16.0172  -28.8864  -41.9920 C.ar      10 UNK        -0.0745 
     14 C14        15.8546  -28.1072  -43.1431 C.ar      10 UNK        -0.0972 
     15 C15        15.6330  -28.3407  -40.6205 C.3       10 UNK         0.0209 
     16 S16        17.0462  -28.1935  -39.4799 S.3       10 UNK        -0.2568 
     17 C17        17.6686  -26.5250  -39.8773 C.3       10 UNK        -0.0983 
     18 CA         19.2131  -26.4063  -39.7233 C.3       3 UNK         0.0876 
     19 N          19.9585  -27.4113  -40.4984 N.am      3 UNK        -0.4424 
     20 C          19.8912  -27.5840  -41.8248 C.2       2 UNK         0.4918 
     21 O          19.3010  -26.8085  -42.5807 O.2       2 UNK        -0.4875 
     22 CA         20.5835  -28.8422  -42.3898 C.3       2 UNK         0.0481 
     23 CB         20.3445  -30.0840  -41.5081 C.3       2 UNK        -0.1831 
     24 N          20.0684  -29.1248  -43.7249 N.am      2 UNK        -0.4498 
     25 C          20.5466  -28.6145  -44.8638 C.2       1 UNK         0.5027 
     26 O          21.6161  -28.0065  -44.9618 O.2       1 UNK        -0.4969 
     27 C          19.7204  -24.9635  -39.9574 C.2       3 UNK         0.5005 
     28 O          18.9830  -24.0034  -39.7235 O.2       3 UNK        -0.5279 
     29 N          20.9784  -24.8315  -40.3924 N.am      4 UNK        -0.4463 
     30 CA         21.6648  -23.5707  -40.6594 C.3       4 UNK         0.0283 
     31 CB         21.3335  -23.0787  -42.0825 C.3       4 UNK        -0.1875 
     32 C          23.1607  -23.8054  -40.4319 C.2       4 UNK         0.4949 
     33 O          23.9460  -23.7618  -41.3796 O.2       4 UNK        -0.5039 
     34 N          23.5081  -24.1561  -39.1847 N.am      5 UNK        -0.4663 
     35 CA         24.8224  -24.5841  -38.6722 C.3       5 UNK         0.0242 
     36 CB         25.8996  -23.5013  -38.8816 C.3       5 UNK        -0.1982 
     37 C          25.2945  -25.9521  -39.2032 C.2       5 UNK         0.5017 
     38 O          25.8337  -26.7439  -38.4290 O.2       5 UNK        -0.5012 
     39 N          25.0710  -26.2124  -40.4960 N.am      6 UNK        -0.4439 
     40 CA         25.2964  -27.4896  -41.1680 C.3       6 UNK         0.0297 
     41 CB         25.1479  -27.2825  -42.6849 C.3       6 UNK        -0.2006 
     42 C          24.3193  -28.5761  -40.6886 C.2       6 UNK         0.4892 
     43 O          23.1859  -28.2681  -40.3088 O.2       6 UNK        -0.5089 
     44 N          24.7720  -29.8304  -40.7829 N.am      7 UNK        -0.4243 
     45 CA         24.0041  -31.0445  -40.5015 C.3       7 UNK         0.0196 
     46 CB         24.5709  -31.7251  -39.2414 C.3       7 UNK        -0.2007 
     47 C          24.0247  -31.9632  -41.7356 C.2       7 UNK         0.5020 
     48 O          24.1769  -33.1784  -41.6038 O.2       7 UNK        -0.5147 
     49 N          23.8920  -31.3589  -42.9262 N.am      8 UNK        -0.4734 
     50 CA         24.0334  -32.0031  -44.2395 C.3       8 UNK         0.0238 
     51 CB         23.9559  -30.9261  -45.3330 C.3       8 UNK        -0.1912 
     52 C          23.0373  -33.1428  -44.5268 C.2       8 UNK         0.5038 
     53 O          23.3399  -34.0055  -45.3527 O.2       8 UNK        -0.5046 
     54 N          21.8942  -33.1429  -43.8308 N.am      9 UNK        -0.4200 
     55 CA         20.8934  -34.2208  -43.8550 C.3       9 UNK         0.0839 
     56 C          21.3491  -35.5317  -43.1476 C.2       9 UNK         0.5513 
     57 N          22.4233  -35.5361  -42.3652 N.am      9 UNK        -0.7519 
     58 O          20.7121  -36.5683  -43.3158 O.2       9 UNK        -0.4960 
     59 C59        19.5225  -33.7529  -43.2997 C.3       10 UNK        -0.0876 
     60 S60        18.8885  -32.2681  -44.1437 S.3       10 UNK        -0.2414 
     61 C61        17.1899  -32.1955  -43.5016 C.3       10 UNK         0.0169 
     62 H62        22.8873  -30.1488  -48.7674 H         1 UNK         0.0903 
     63 H63        21.4798  -30.6578  -49.7043 H         1 UNK         0.0903 
     64 H64        21.7945  -28.9405  -49.4464 H         1 UNK         0.0903 
     65 H65        20.4820  -28.0398  -47.8665 H         1 UNK         0.3096 
     66 H66        19.0445  -29.6772  -45.9435 H         1 UNK         0.1121 
     67 H67        18.3746  -27.1981  -45.1377 H         1 UNK         0.0849 
     68 H68        19.0851  -26.6996  -46.6395 H         1 UNK         0.0849 
     69 H69        15.8218  -26.7320  -45.3899 H         1 UNK         0.0865 
     70 H70        14.8659  -28.0318  -46.0551 H         1 UNK         0.0865 
     71 H71        16.6780  -30.4167  -45.4941 H         1 UNK         0.1346 
     72 H72        16.5892  -30.8087  -41.2279 H         1 UNK         0.1412 
     73 H73        15.5074  -27.0871  -43.0505 H         1 UNK         0.1426 
     74 H74        14.9032  -29.0175  -40.1739 H         1 UNK         0.0716 
     75 H75        15.1307  -27.3759  -40.7068 H         1 UNK         0.0716 
     76 H76        17.1610  -25.8254  -39.2108 H         1 UNK         0.0695 
     77 H77        17.3616  -26.2548  -40.8890 H         1 UNK         0.0695 
     78 H78        19.4450  -26.6154  -38.6778 H         1 UNK         0.0983 
     79 H79        20.5071  -28.0649  -39.9569 H         1 UNK         0.3095 
     80 H80        21.6555  -28.6477  -42.4443 H         1 UNK         0.0454 
     81 H81        19.2807  -30.2800  -41.3696 H         1 UNK         0.0851 
     82 H82        20.7839  -29.9679  -40.5179 H         1 UNK         0.0851 
     83 H83        20.7896  -30.9741  -41.9495 H         1 UNK         0.0851 
     84 H84        19.1634  -29.5760  -43.7491 H         1 UNK         0.2976 
     85 H85        21.5218  -25.6723  -40.5401 H         1 UNK         0.3116 
     86 H86        21.3414  -22.8128  -39.9426 H         1 UNK         0.0646 
     87 H87        21.6125  -23.8140  -42.8383 H         1 UNK         0.0847 
     88 H88        20.2685  -22.8749  -42.1935 H         1 UNK         0.0847 
     89 H89        21.8659  -22.1545  -42.3104 H         1 UNK         0.0847 
     90 H90        22.7612  -24.1992  -38.5037 H         1 UNK         0.3040 
     91 H91        24.6911  -24.7050  -37.5953 H         1 UNK         0.1015 
     92 H92        26.8338  -23.7861  -38.3958 H         1 UNK         0.0786 
     93 H93        25.5908  -22.5471  -38.4548 H         1 UNK         0.0786 
     94 H94        26.1227  -23.3408  -39.9367 H         1 UNK         0.0786 
     95 H95        24.6415  -25.4694  -41.0407 H         1 UNK         0.3172 
     96 H96        26.3180  -27.8094  -40.9517 H         1 UNK         0.0595 
     97 H97        24.1365  -26.9723  -42.9534 H         1 UNK         0.0839 
     98 H98        25.3619  -28.2013  -43.2324 H         1 UNK         0.0839 
     99 H99        25.8385  -26.5227  -43.0517 H         1 UNK         0.0839 
    100 H100       25.7085  -29.9794  -41.1347 H         1 UNK         0.2998 
    101 H101       22.9593  -30.7994  -40.3097 H         1 UNK         0.0822 
    102 H102       23.9906  -32.6106  -38.9785 H         1 UNK         0.0787 
    103 H103       25.6051  -32.0408  -39.3840 H         1 UNK         0.0787 
    104 H104       24.5409  -31.0535  -38.3831 H         1 UNK         0.0787 
    105 H105       23.7577  -30.3584  -42.9336 H         1 UNK         0.3055 
    106 H106       25.0296  -32.4498  -44.2738 H         1 UNK         0.1106 
    107 H107       24.7530  -30.1901  -45.2276 H         1 UNK         0.0828 
    108 H108       24.0517  -31.3662  -46.3267 H         1 UNK         0.0828 
    109 H109       23.0036  -30.3971  -45.3041 H         1 UNK         0.0828 
    110 H110       21.7266  -32.3883  -43.1856 H         1 UNK         0.2931 
    111 H111       20.7403  -34.4849  -44.9034 H         1 UNK         0.0412 
    112 H112       22.7018  -36.3957  -41.9193 H         1 UNK         0.3472 
    113 H113       22.9648  -34.6925  -42.2098 H         1 UNK         0.3472 
    114 H114       18.7809  -34.5473  -43.4067 H         1 UNK         0.0970 
    115 H115       19.5941  -33.5399  -42.2314 H         1 UNK         0.0970 
    116 H116       17.1416  -32.6960  -42.5332 H         1 UNK         0.0612 
    117 H117       16.5279  -32.7472  -44.1703 H         1 UNK         0.0612 
@<TRIPOS>BOND
     1    1    2 1    
     2    1   62 1    
     3    1   63 1    
     4    1   64 1    
     5    2    3 2    
     6    2    4 am   BACKBONE|DICT|INTERRES
     7    4    5 1    
     8    4   65 1    
     9    5    6 1    
    10    5   25 1    
    11    5   66 1    
    12    6    7 1    
    13    6   67 1    
    14    6   68 1    
    15    7    8 1    
    16    8    9 1    
    17    8   69 1    
    18    8   70 1    
    19    9   10 ar   
    20    9   14 ar   
    21   10   11 ar   
    22   10   71 1    
    23   11   12 ar   
    24   11   61 1    
    25   12   13 ar   
    26   12   72 1    
    27   13   14 ar   
    28   13   15 1    
    29   14   73 1    
    30   15   16 1    
    31   15   74 1    
    32   15   75 1    
    33   16   17 1    
    34   17   18 1    
    35   17   76 1    
    36   17   77 1    
    37   18   19 1    
    38   18   27 1    
    39   18   78 1    
    40   19   20 am   BACKBONE|DICT|INTERRES
    41   19   79 1    
    42   20   21 2    
    43   20   22 1    
    44   22   23 1    
    45   22   24 1    
    46   22   80 1    
    47   23   81 1    
    48   23   82 1    
    49   23   83 1    
    50   24   25 am   BACKBONE|DICT|INTERRES
    51   24   84 1    
    52   25   26 2    
    53   27   28 2    
    54   27   29 am   BACKBONE|DICT|INTERRES
    55   29   30 1    
    56   29   85 1    
    57   30   31 1    
    58   30   32 1    
    59   30   86 1    
    60   31   87 1    
    61   31   88 1    
    62   31   89 1    
    63   32   33 2    
    64   32   34 am   BACKBONE|DICT|INTERRES
    65   34   35 1    
    66   34   90 1    
    67   35   36 1    
    68   35   37 1    
    69   35   91 1    
    70   36   92 1    
    71   36   93 1    
    72   36   94 1    
    73   37   38 2    
    74   37   39 am   BACKBONE|DICT|INTERRES
    75   39   40 1    
    76   39   95 1    
    77   40   41 1    
    78   40   42 1    
    79   40   96 1    
    80   41   97 1    
    81   41   98 1    
    82   41   99 1    
    83   42   43 2    
    84   42   44 am   BACKBONE|DICT|INTERRES
    85   44   45 1    
    86   44  100 1    
    87   45   46 1    
    88   45   47 1    
    89   45  101 1    
    90   46  102 1    
    91   46  103 1    
    92   46  104 1    
    93   47   48 2    
    94   47   49 am   BACKBONE|DICT|INTERRES
    95   49   50 1    
    96   49  105 1    
    97   50   51 1    
    98   50   52 1    
    99   50  106 1    
   100   51  107 1    
   101   51  108 1    
   102   51  109 1    
   103   52   53 2    
   104   52   54 am   BACKBONE|DICT|INTERRES
   105   54   55 1    
   106   54  110 1    
   107   55   56 1    
   108   55   59 1    
   109   55  111 1    
   110   56   57 am   BACKBONE|DICT|INTERRES
   111   56   58 2    
   112   57  112 1    
   113   57  113 1    
   114   59   60 1    
   115   59  114 1    
   116   59  115 1    
   117   60   61 1    
   118   61  116 1    
   119   61  117 1    
@<TRIPOS>SUBSTRUCTURE
     1 UNK         1 GROUP             0       ****    0 ROOT    
