@<TRIPOS>MOLECULE
3R8
117   119    1
SMALL
USER_CHARGES


@<TRIPOS>ATOM
      1 CA         15.1934  -25.3636  -45.3533 C.3       0 UNK        -0.2013 
      2 C          16.5079  -25.0660  -46.0579 C.2       0 UNK         0.4866 
      3 O          16.9062  -23.9044  -46.1423 O.2       0 UNK        -0.5176 
      4 N          17.1737  -26.1053  -46.5781 N.am      1 UNK        -0.4884 
      5 CA         18.4318  -26.0245  -47.3302 C.3       1 UNK         0.0853 
      6 C6         18.7919  -27.3492  -48.0692 C.3       10 UNK        -0.0849 
      7 S7         18.2561  -28.8973  -47.2501 S.3       10 UNK        -0.2776 
      8 C8         19.6502  -29.2893  -46.1355 C.3       10 UNK         0.0316 
      9 C9         19.2166  -29.5999  -44.7006 C.ar      10 UNK        -0.0863 
     10 C10        19.9508  -30.5228  -43.9498 C.ar      10 UNK        -0.1009 
     11 C11        19.5687  -30.8554  -42.6464 C.ar      10 UNK        -0.0712 
     12 C12        18.4512  -30.2372  -42.0778 C.ar      10 UNK        -0.0894 
     13 C13        17.7099  -29.3033  -42.8073 C.ar      10 UNK        -0.0745 
     14 C14        18.0992  -28.9917  -44.1137 C.ar      10 UNK        -0.0972 
     15 C15        16.4597  -28.6704  -42.2051 C.3       10 UNK         0.0209 
     16 S16        16.4489  -26.8530  -42.3464 S.3       10 UNK        -0.2568 
     17 C17        17.4889  -26.3477  -40.9381 C.3       10 UNK        -0.0983 
     18 CA         19.0080  -26.5381  -41.1705 C.3       3 UNK         0.0876 
     19 N          19.4664  -25.9886  -42.4548 N.am      3 UNK        -0.4424 
     20 C          20.6714  -26.2301  -42.9880 C.2       2 UNK         0.4918 
     21 O          21.5508  -26.8696  -42.4081 O.2       2 UNK        -0.4875 
     22 CA         20.9281  -25.6806  -44.3988 C.3       2 UNK         0.0481 
     23 CB         22.2545  -26.2115  -44.9915 C.3       2 UNK        -0.1831 
     24 N          19.7974  -25.9941  -45.2777 N.am      2 UNK        -0.4498 
     25 C          19.6167  -25.4839  -46.5036 C.2       1 UNK         0.5027 
     26 O          20.3451  -24.6226  -46.9996 O.2       1 UNK        -0.4969 
     27 C          19.7991  -26.0016  -39.9605 C.2       3 UNK         0.5005 
     28 O          19.9767  -26.7316  -38.9848 O.2       3 UNK        -0.5279 
     29 N          20.2696  -24.7480  -40.0489 N.am      4 UNK        -0.4463 
     30 CA         21.0989  -24.0994  -39.0291 C.3       4 UNK         0.0283 
     31 CB         21.1646  -22.5885  -39.3044 C.3       4 UNK        -0.1875 
     32 C          22.5153  -24.6943  -38.9452 C.2       4 UNK         0.4949 
     33 O          23.0739  -24.7704  -37.8508 O.2       4 UNK        -0.5039 
     34 N          23.0651  -25.1066  -40.0959 N.am      5 UNK        -0.4663 
     35 CA         24.3615  -25.7812  -40.1917 C.3       5 UNK         0.0242 
     36 CB         24.9500  -25.5553  -41.5935 C.3       5 UNK        -0.1982 
     37 C          24.2535  -27.2858  -39.8973 C.2       5 UNK         0.5017 
     38 O          25.2042  -27.8575  -39.3637 O.2       5 UNK        -0.5012 
     39 N          23.1085  -27.8842  -40.2631 N.am      6 UNK        -0.4439 
     40 CA         22.7844  -29.3124  -40.2285 C.3       6 UNK         0.0297 
     41 CB         22.7476  -29.8510  -38.7833 C.3       6 UNK        -0.2006 
     42 C          23.7222  -30.1027  -41.1560 C.2       6 UNK         0.4892 
     43 O          24.5163  -30.9214  -40.6911 O.2       6 UNK        -0.5089 
     44 N          23.6364  -29.7930  -42.4572 N.am      7 UNK        -0.4243 
     45 CA         24.4162  -30.4176  -43.5269 C.3       7 UNK         0.0196 
     46 CB         24.1979  -29.6286  -44.8298 C.3       7 UNK        -0.2007 
     47 C          24.0419  -31.9006  -43.6983 C.2       7 UNK         0.5020 
     48 O          22.9812  -32.1950  -44.2482 O.2       7 UNK        -0.5147 
     49 N          24.9099  -32.7974  -43.2123 N.am      8 UNK        -0.4734 
     50 CA         24.7092  -34.2477  -43.1107 C.3       8 UNK         0.0238 
     51 CB         24.5424  -34.9060  -44.5016 C.3       8 UNK        -0.1912 
     52 C          23.5969  -34.5792  -42.0955 C.2       8 UNK         0.5038 
     53 O          23.7559  -34.2391  -40.9224 O.2       8 UNK        -0.5046 
     54 N          22.5263  -35.2553  -42.5361 N.am      9 UNK        -0.4200 
     55 CA         21.4131  -35.7523  -41.7029 C.3       9 UNK         0.0839 
     56 C          21.8173  -36.8652  -40.6849 C.2       9 UNK         0.5513 
     57 N          22.9326  -37.5604  -40.8757 N.am      9 UNK        -0.7519 
     58 O          21.0976  -37.1313  -39.7252 O.2       9 UNK        -0.4960 
     59 C59        20.5715  -34.6138  -41.0512 C.3       10 UNK        -0.0876 
     60 S60        19.7227  -33.5743  -42.2861 S.3       10 UNK        -0.2414 
     61 C61        20.3352  -31.9143  -41.8681 C.3       10 UNK         0.0169 
     62 H62        15.1779  -24.8912  -44.3714 H         1 UNK         0.0903 
     63 H63        14.3595  -24.9692  -45.9330 H         1 UNK         0.0903 
     64 H64        15.0379  -26.4335  -45.2153 H         1 UNK         0.0903 
     65 H65        16.7869  -27.0364  -46.5047 H         1 UNK         0.3096 
     66 H66        18.2668  -25.2720  -48.1055 H         1 UNK         0.1121 
     67 H67        18.2934  -27.3410  -49.0398 H         1 UNK         0.0849 
     68 H68        19.8558  -27.4098  -48.3096 H         1 UNK         0.0849 
     69 H69        20.3749  -28.4775  -46.1223 H         1 UNK         0.0865 
     70 H70        20.1756  -30.1484  -46.5560 H         1 UNK         0.0865 
     71 H71        20.8071  -31.0103  -44.3920 H         1 UNK         0.1346 
     72 H72        18.1458  -30.5031  -41.0750 H         1 UNK         0.1412 
     73 H73        17.5082  -28.2823  -44.6729 H         1 UNK         0.1426 
     74 H74        16.3363  -28.9539  -41.1588 H         1 UNK         0.0716 
     75 H75        15.5898  -29.0627  -42.7333 H         1 UNK         0.0716 
     76 H76        17.1654  -26.8982  -40.0524 H         1 UNK         0.0695 
     77 H77        17.2653  -25.2979  -40.7378 H         1 UNK         0.0695 
     78 H78        19.2072  -27.6106  -41.2012 H         1 UNK         0.0983 
     79 H79        18.7902  -25.4504  -42.9769 H         1 UNK         0.3095 
     80 H80        21.0001  -24.5954  -44.3052 H         1 UNK         0.0454 
     81 H81        22.4679  -25.7882  -45.9722 H         1 UNK         0.0851 
     82 H82        22.2416  -27.2962  -45.0918 H         1 UNK         0.0851 
     83 H83        23.0997  -25.9535  -44.3545 H         1 UNK         0.0851 
     84 H84        19.1459  -26.6885  -44.9387 H         1 UNK         0.2976 
     85 H85        20.0593  -24.2145  -40.8802 H         1 UNK         0.3116 
     86 H86        20.6200  -24.2469  -38.0585 H         1 UNK         0.0646 
     87 H87        21.7584  -22.0803  -38.5433 H         1 UNK         0.0847 
     88 H88        20.1720  -22.1382  -39.2908 H         1 UNK         0.0847 
     89 H89        21.6207  -22.3703  -40.2709 H         1 UNK         0.0847 
     90 H90        22.5300  -25.0183  -40.9474 H         1 UNK         0.3040 
     91 H91        25.0463  -25.3454  -39.4602 H         1 UNK         0.1015 
     92 H92        25.0521  -24.4932  -41.8172 H         1 UNK         0.0786 
     93 H93        24.3300  -26.0064  -42.3679 H         1 UNK         0.0786 
     94 H94        25.9428  -26.0003  -41.6739 H         1 UNK         0.0786 
     95 H95        22.4407  -27.3161  -40.7761 H         1 UNK         0.3172 
     96 H96        21.7775  -29.4084  -40.6386 H         1 UNK         0.0595 
     97 H97        23.7258  -29.8083  -38.3038 H         1 UNK         0.0839 
     98 H98        22.4259  -30.8930  -38.7680 H         1 UNK         0.0839 
     99 H99        22.0474  -29.2841  -38.1696 H         1 UNK         0.0839 
    100 H100       22.9579  -29.0985  -42.7384 H         1 UNK         0.2998 
    101 H101       25.4736  -30.3465  -43.2629 H         1 UNK         0.0822 
    102 H102       23.1497  -29.6281  -45.1320 H         1 UNK         0.0787 
    103 H103       24.5190  -28.5921  -44.7250 H         1 UNK         0.0787 
    104 H104       24.7717  -30.0646  -45.6485 H         1 UNK         0.0787 
    105 H105       25.7161  -32.4423  -42.7154 H         1 UNK         0.3055 
    106 H106       25.6270  -34.6487  -42.6771 H         1 UNK         0.1106 
    107 H107       24.5088  -35.9932  -44.4196 H         1 UNK         0.0828 
    108 H108       23.6353  -34.5859  -45.0146 H         1 UNK         0.0828 
    109 H109       25.3854  -34.6647  -45.1491 H         1 UNK         0.0828 
    110 H110       22.4729  -35.4822  -43.5180 H         1 UNK         0.2931 
    111 H111       20.7527  -36.2699  -42.3997 H         1 UNK         0.0412 
    112 H112       23.5261  -37.3727  -41.6675 H         1 UNK         0.3472 
    113 H113       23.1800  -38.2851  -40.2198 H         1 UNK         0.3472 
    114 H114       19.7891  -35.0294  -40.4140 H         1 UNK         0.0970 
    115 H115       21.1900  -33.9999  -40.3953 H         1 UNK         0.0970 
    116 H116       20.2295  -31.7431  -40.7956 H         1 UNK         0.0612 
    117 H117       21.4004  -31.8562  -42.0902 H         1 UNK         0.0612 
@<TRIPOS>BOND
     1    1    2 1    
     2    1   62 1    
     3    1   63 1    
     4    1   64 1    
     5    2    3 2    
     6    2    4 am   BACKBONE|DICT|INTERRES
     7    4    5 1    
     8    4   65 1    
     9    5    6 1    
    10    5   25 1    
    11    5   66 1    
    12    6    7 1    
    13    6   67 1    
    14    6   68 1    
    15    7    8 1    
    16    8    9 1    
    17    8   69 1    
    18    8   70 1    
    19    9   10 ar   
    20    9   14 ar   
    21   10   11 ar   
    22   10   71 1    
    23   11   12 ar   
    24   11   61 1    
    25   12   13 ar   
    26   12   72 1    
    27   13   14 ar   
    28   13   15 1    
    29   14   73 1    
    30   15   16 1    
    31   15   74 1    
    32   15   75 1    
    33   16   17 1    
    34   17   18 1    
    35   17   76 1    
    36   17   77 1    
    37   18   19 1    
    38   18   27 1    
    39   18   78 1    
    40   19   20 am   BACKBONE|DICT|INTERRES
    41   19   79 1    
    42   20   21 2    
    43   20   22 1    
    44   22   23 1    
    45   22   24 1    
    46   22   80 1    
    47   23   81 1    
    48   23   82 1    
    49   23   83 1    
    50   24   25 am   BACKBONE|DICT|INTERRES
    51   24   84 1    
    52   25   26 2    
    53   27   28 2    
    54   27   29 am   BACKBONE|DICT|INTERRES
    55   29   30 1    
    56   29   85 1    
    57   30   31 1    
    58   30   32 1    
    59   30   86 1    
    60   31   87 1    
    61   31   88 1    
    62   31   89 1    
    63   32   33 2    
    64   32   34 am   BACKBONE|DICT|INTERRES
    65   34   35 1    
    66   34   90 1    
    67   35   36 1    
    68   35   37 1    
    69   35   91 1    
    70   36   92 1    
    71   36   93 1    
    72   36   94 1    
    73   37   38 2    
    74   37   39 am   BACKBONE|DICT|INTERRES
    75   39   40 1    
    76   39   95 1    
    77   40   41 1    
    78   40   42 1    
    79   40   96 1    
    80   41   97 1    
    81   41   98 1    
    82   41   99 1    
    83   42   43 2    
    84   42   44 am   BACKBONE|DICT|INTERRES
    85   44   45 1    
    86   44  100 1    
    87   45   46 1    
    88   45   47 1    
    89   45  101 1    
    90   46  102 1    
    91   46  103 1    
    92   46  104 1    
    93   47   48 2    
    94   47   49 am   BACKBONE|DICT|INTERRES
    95   49   50 1    
    96   49  105 1    
    97   50   51 1    
    98   50   52 1    
    99   50  106 1    
   100   51  107 1    
   101   51  108 1    
   102   51  109 1    
   103   52   53 2    
   104   52   54 am   BACKBONE|DICT|INTERRES
   105   54   55 1    
   106   54  110 1    
   107   55   56 1    
   108   55   59 1    
   109   55  111 1    
   110   56   57 am   BACKBONE|DICT|INTERRES
   111   56   58 2    
   112   57  112 1    
   113   57  113 1    
   114   59   60 1    
   115   59  114 1    
   116   59  115 1    
   117   60   61 1    
   118   61  116 1    
   119   61  117 1    
@<TRIPOS>SUBSTRUCTURE
     1 UNK         1 GROUP             0       ****    0 ROOT    
