@<TRIPOS>MOLECULE
3R8
117   119    1
SMALL
USER_CHARGES


@<TRIPOS>ATOM
      1 CA         18.0461  -27.0491  -42.0987 C.3       0 UNK        -0.2013 
      2 C          17.2149  -26.1186  -42.9640 C.2       0 UNK         0.4866 
      3 O          17.0251  -24.9539  -42.6138 O.2       0 UNK        -0.5176 
      4 N          16.7289  -26.6221  -44.1058 N.am      1 UNK        -0.4884 
      5 CA         15.9386  -25.8643  -45.0907 C.3       1 UNK         0.0853 
      6 C6         15.1963  -26.8045  -46.0716 C.3       10 UNK        -0.0849 
      7 S7         14.1196  -27.9993  -45.2104 S.3       10 UNK        -0.2776 
      8 C8         14.7712  -29.5919  -45.8104 C.3       10 UNK         0.0316 
      9 C9         16.1491  -29.9304  -45.2511 C.ar      10 UNK        -0.0863 
     10 C10        16.3077  -30.1949  -43.8857 C.ar      10 UNK        -0.1009 
     11 C11        17.5447  -30.6049  -43.3780 C.ar      10 UNK        -0.0712 
     12 C12        18.6247  -30.7538  -44.2541 C.ar      10 UNK        -0.0894 
     13 C13        18.4885  -30.4774  -45.6160 C.ar      10 UNK        -0.0745 
     14 C14        17.2484  -30.0588  -46.1090 C.ar      10 UNK        -0.0972 
     15 C15        19.6679  -30.6989  -46.5562 C.3       10 UNK         0.0209 
     16 S16        20.4977  -29.1519  -47.0382 S.3       10 UNK        -0.2568 
     17 C17        21.2368  -28.5967  -45.4614 C.3       10 UNK        -0.0983 
     18 CA         21.6346  -27.0975  -45.4783 C.3       3 UNK         0.0876 
     19 N          20.5294  -26.2692  -45.9627 N.am      3 UNK        -0.4424 
     20 C          20.5279  -24.9420  -46.1554 C.2       2 UNK         0.4918 
     21 O          21.5150  -24.2185  -46.0232 O.2       2 UNK        -0.4875 
     22 CA         19.1764  -24.3242  -46.5447 C.3       2 UNK         0.0481 
     23 CB         19.0124  -24.3183  -48.0775 C.3       2 UNK        -0.1831 
     24 N          18.1105  -25.0820  -45.8894 N.am      2 UNK        -0.4498 
     25 C          16.7945  -24.8502  -45.8830 C.2       1 UNK         0.5027 
     26 O          16.2522  -23.9099  -46.4649 O.2       1 UNK        -0.4969 
     27 C          22.0916  -26.6572  -44.0710 C.2       3 UNK         0.5005 
     28 O          21.2503  -26.2858  -43.2473 O.2       3 UNK        -0.5279 
     29 N          23.4042  -26.7214  -43.8140 N.am      4 UNK        -0.4463 
     30 CA         24.0005  -26.3947  -42.5179 C.3       4 UNK         0.0283 
     31 CB         25.5171  -26.2071  -42.6861 C.3       4 UNK        -0.1875 
     32 C          23.7079  -27.4866  -41.4777 C.2       4 UNK         0.4949 
     33 O          23.8549  -28.6712  -41.7829 O.2       4 UNK        -0.5039 
     34 N          23.3410  -27.0689  -40.2606 N.am      5 UNK        -0.4663 
     35 CA         23.1305  -27.9566  -39.1147 C.3       5 UNK         0.0242 
     36 CB         22.4755  -27.1603  -37.9749 C.3       5 UNK        -0.1982 
     37 C          24.4477  -28.5968  -38.6418 C.2       5 UNK         0.5017 
     38 O          25.5165  -28.0091  -38.8249 O.2       5 UNK        -0.5012 
     39 N          24.3442  -29.7983  -38.0607 N.am      6 UNK        -0.4439 
     40 CA         25.4169  -30.6942  -37.6011 C.3       6 UNK         0.0297 
     41 CB         26.3807  -30.0107  -36.6106 C.3       6 UNK        -0.2006 
     42 C          26.1731  -31.3841  -38.7510 C.2       6 UNK         0.4892 
     43 O          26.4910  -32.5674  -38.6267 O.2       6 UNK        -0.5089 
     44 N          26.4073  -30.6670  -39.8591 N.am      7 UNK        -0.4243 
     45 CA         26.8362  -31.2340  -41.1402 C.3       7 UNK         0.0196 
     46 CB         27.2910  -30.1044  -42.0781 C.3       7 UNK        -0.2007 
     47 C          25.7104  -32.0642  -41.7828 C.2       7 UNK         0.5020 
     48 O          25.9700  -33.1534  -42.2949 O.2       7 UNK        -0.5147 
     49 N          24.4805  -31.5470  -41.7009 N.am      8 UNK        -0.4734 
     50 CA         23.2311  -32.2246  -42.0286 C.3       8 UNK         0.0238 
     51 CB         22.6294  -31.5692  -43.2861 C.3       8 UNK        -0.1912 
     52 C          22.2720  -32.1093  -40.8312 C.2       8 UNK         0.5038 
     53 O          22.5863  -31.4421  -39.8407 O.2       8 UNK        -0.5046 
     54 N          21.1069  -32.7554  -40.9557 N.am      9 UNK        -0.4200 
     55 CA         19.9944  -32.7360  -39.9863 C.3       9 UNK         0.0839 
     56 C          20.2486  -33.5480  -38.6804 C.2       9 UNK         0.5513 
     57 N          21.2820  -34.3780  -38.6059 N.am      9 UNK        -0.7519 
     58 O          19.4788  -33.4503  -37.7281 O.2       9 UNK        -0.4960 
     59 C59        19.4275  -31.3111  -39.6903 C.3       10 UNK        -0.0876 
     60 S60        19.2102  -30.2602  -41.1665 S.3       10 UNK        -0.2414 
     61 C61        17.6943  -30.9563  -41.9010 C.3       10 UNK         0.0169 
     62 H62        17.4221  -27.5312  -41.3470 H         1 UNK         0.0903 
     63 H63        18.5244  -27.8207  -42.7015 H         1 UNK         0.0903 
     64 H64        18.8347  -26.4953  -41.5893 H         1 UNK         0.0903 
     65 H65        16.8586  -27.6038  -44.3150 H         1 UNK         0.3096 
     66 H66        15.1906  -25.2841  -44.5452 H         1 UNK         0.1121 
     67 H67        15.9081  -27.3389  -46.7038 H         1 UNK         0.0849 
     68 H68        14.5672  -26.2252  -46.7506 H         1 UNK         0.0849 
     69 H69        14.0755  -30.3810  -45.5215 H         1 UNK         0.0865 
     70 H70        14.7805  -29.5878  -46.9017 H         1 UNK         0.0865 
     71 H71        15.4558  -30.1092  -43.2245 H         1 UNK         0.1346 
     72 H72        19.5756  -31.0982  -43.8734 H         1 UNK         0.1412 
     73 H73        17.1343  -29.8701  -47.1681 H         1 UNK         0.1426 
     74 H74        19.3167  -31.2011  -47.4587 H         1 UNK         0.0716 
     75 H75        20.4010  -31.3696  -46.1050 H         1 UNK         0.0716 
     76 H76        22.1079  -29.2202  -45.2532 H         1 UNK         0.0695 
     77 H77        20.5245  -28.7842  -44.6564 H         1 UNK         0.0695 
     78 H78        22.4653  -26.9606  -46.1738 H         1 UNK         0.0983 
     79 H79        19.6988  -26.7890  -46.2005 H         1 UNK         0.3095 
     80 H80        19.1490  -23.2984  -46.1728 H         1 UNK         0.0454 
     81 H81        18.1107  -23.7900  -48.3856 H         1 UNK         0.0851 
     82 H82        18.9632  -25.3297  -48.4825 H         1 UNK         0.0851 
     83 H83        19.8536  -23.8154  -48.5566 H         1 UNK         0.0851 
     84 H84        18.4273  -25.8243  -45.2816 H         1 UNK         0.2976 
     85 H85        24.0295  -27.0817  -44.5202 H         1 UNK         0.3116 
     86 H86        23.5755  -25.4496  -42.1719 H         1 UNK         0.0646 
     87 H87        25.9966  -27.1083  -43.0696 H         1 UNK         0.0847 
     88 H88        25.9888  -25.9706  -41.7312 H         1 UNK         0.0847 
     89 H89        25.7433  -25.3889  -43.3699 H         1 UNK         0.0847 
     90 H90        23.2793  -26.0771  -40.0823 H         1 UNK         0.3040 
     91 H91        22.4474  -28.7502  -39.4280 H         1 UNK         0.1015 
     92 H92        23.1158  -26.3468  -37.6311 H         1 UNK         0.0786 
     93 H93        22.2734  -27.8011  -37.1154 H         1 UNK         0.0786 
     94 H94        21.5230  -26.7311  -38.2869 H         1 UNK         0.0786 
     95 H95        23.4270  -30.2297  -38.0722 H         1 UNK         0.3172 
     96 H96        24.9041  -31.4865  -37.0532 H         1 UNK         0.0595 
     97 H97        26.9953  -29.2491  -37.0909 H         1 UNK         0.0839 
     98 H98        27.0627  -30.7406  -36.1727 H         1 UNK         0.0839 
     99 H99        25.8398  -29.5394  -35.7902 H         1 UNK         0.0839 
    100 H100       26.1429  -29.6883  -39.8465 H         1 UNK         0.2998 
    101 H101       27.6857  -31.8960  -40.9587 H         1 UNK         0.0822 
    102 H102       28.1168  -29.5384  -41.6468 H         1 UNK         0.0787 
    103 H103       27.6350  -30.5060  -43.0321 H         1 UNK         0.0787 
    104 H104       26.4808  -29.4066  -42.2913 H         1 UNK         0.0787 
    105 H105       24.3585  -30.6289  -41.2848 H         1 UNK         0.3055 
    106 H106       23.4134  -33.2847  -42.2179 H         1 UNK         0.1106 
    107 H107       21.7607  -32.1214  -43.6441 H         1 UNK         0.0828 
    108 H108       22.3097  -30.5445  -43.0897 H         1 UNK         0.0828 
    109 H109       23.3501  -31.5422  -44.1034 H         1 UNK         0.0828 
    110 H110       20.9389  -33.2973  -41.7902 H         1 UNK         0.2931 
    111 H111       19.1990  -33.2897  -40.4849 H         1 UNK         0.0412 
    112 H112       21.9179  -34.4737  -39.3809 H         1 UNK         0.3472 
    113 H113       21.4309  -34.9071  -37.7609 H         1 UNK         0.3472 
    114 H114       20.0935  -30.7788  -39.0091 H         1 UNK         0.0970 
    115 H115       18.4691  -31.3820  -39.1729 H         1 UNK         0.0970 
    116 H116       16.8362  -30.6032  -41.3272 H         1 UNK         0.0612 
    117 H117       17.7069  -32.0425  -41.8125 H         1 UNK         0.0612 
@<TRIPOS>BOND
     1    1    2 1    
     2    1   62 1    
     3    1   63 1    
     4    1   64 1    
     5    2    3 2    
     6    2    4 am   BACKBONE|DICT|INTERRES
     7    4    5 1    
     8    4   65 1    
     9    5    6 1    
    10    5   25 1    
    11    5   66 1    
    12    6    7 1    
    13    6   67 1    
    14    6   68 1    
    15    7    8 1    
    16    8    9 1    
    17    8   69 1    
    18    8   70 1    
    19    9   10 ar   
    20    9   14 ar   
    21   10   11 ar   
    22   10   71 1    
    23   11   12 ar   
    24   11   61 1    
    25   12   13 ar   
    26   12   72 1    
    27   13   14 ar   
    28   13   15 1    
    29   14   73 1    
    30   15   16 1    
    31   15   74 1    
    32   15   75 1    
    33   16   17 1    
    34   17   18 1    
    35   17   76 1    
    36   17   77 1    
    37   18   19 1    
    38   18   27 1    
    39   18   78 1    
    40   19   20 am   BACKBONE|DICT|INTERRES
    41   19   79 1    
    42   20   21 2    
    43   20   22 1    
    44   22   23 1    
    45   22   24 1    
    46   22   80 1    
    47   23   81 1    
    48   23   82 1    
    49   23   83 1    
    50   24   25 am   BACKBONE|DICT|INTERRES
    51   24   84 1    
    52   25   26 2    
    53   27   28 2    
    54   27   29 am   BACKBONE|DICT|INTERRES
    55   29   30 1    
    56   29   85 1    
    57   30   31 1    
    58   30   32 1    
    59   30   86 1    
    60   31   87 1    
    61   31   88 1    
    62   31   89 1    
    63   32   33 2    
    64   32   34 am   BACKBONE|DICT|INTERRES
    65   34   35 1    
    66   34   90 1    
    67   35   36 1    
    68   35   37 1    
    69   35   91 1    
    70   36   92 1    
    71   36   93 1    
    72   36   94 1    
    73   37   38 2    
    74   37   39 am   BACKBONE|DICT|INTERRES
    75   39   40 1    
    76   39   95 1    
    77   40   41 1    
    78   40   42 1    
    79   40   96 1    
    80   41   97 1    
    81   41   98 1    
    82   41   99 1    
    83   42   43 2    
    84   42   44 am   BACKBONE|DICT|INTERRES
    85   44   45 1    
    86   44  100 1    
    87   45   46 1    
    88   45   47 1    
    89   45  101 1    
    90   46  102 1    
    91   46  103 1    
    92   46  104 1    
    93   47   48 2    
    94   47   49 am   BACKBONE|DICT|INTERRES
    95   49   50 1    
    96   49  105 1    
    97   50   51 1    
    98   50   52 1    
    99   50  106 1    
   100   51  107 1    
   101   51  108 1    
   102   51  109 1    
   103   52   53 2    
   104   52   54 am   BACKBONE|DICT|INTERRES
   105   54   55 1    
   106   54  110 1    
   107   55   56 1    
   108   55   59 1    
   109   55  111 1    
   110   56   57 am   BACKBONE|DICT|INTERRES
   111   56   58 2    
   112   57  112 1    
   113   57  113 1    
   114   59   60 1    
   115   59  114 1    
   116   59  115 1    
   117   60   61 1    
   118   61  116 1    
   119   61  117 1    
@<TRIPOS>SUBSTRUCTURE
     1 UNK         1 GROUP             0       ****    0 ROOT    
