@<TRIPOS>MOLECULE
3R8
117   119    1
SMALL
USER_CHARGES


@<TRIPOS>ATOM
      1 CA         20.7382  -32.4627  -47.6611 C.3       0 UNK        -0.2013 
      2 C          20.3138  -31.3281  -46.7427 C.2       0 UNK         0.4866 
      3 O          20.8478  -31.2015  -45.6428 O.2       0 UNK        -0.5176 
      4 N          19.3646  -30.4923  -47.1818 N.am      1 UNK        -0.4884 
      5 CA         18.7885  -29.3614  -46.4375 C.3       1 UNK         0.0853 
      6 C6         17.4040  -28.9640  -47.0115 C.3       10 UNK        -0.0849 
      7 S7         16.1699  -30.2797  -46.7283 S.3       10 UNK        -0.2776 
      8 C8         15.0178  -29.4846  -45.5588 C.3       10 UNK         0.0316 
      9 C9         15.6965  -29.0470  -44.2663 C.ar      10 UNK        -0.0863 
     10 C10        16.0999  -29.9959  -43.3221 C.ar      10 UNK        -0.1009 
     11 C11        16.7136  -29.5947  -42.1307 C.ar      10 UNK        -0.0712 
     12 C12        16.8947  -28.2328  -41.8743 C.ar      10 UNK        -0.0894 
     13 C13        16.5152  -27.2757  -42.8187 C.ar      10 UNK        -0.0745 
     14 C14        15.9107  -27.6891  -44.0093 C.ar      10 UNK        -0.0972 
     15 C15        16.7538  -25.7946  -42.5635 C.3       10 UNK         0.0209 
     16 S16        18.2702  -25.2154  -43.3920 S.3       10 UNK        -0.2568 
     17 C17        19.5365  -25.3771  -42.0847 C.3       10 UNK        -0.0983 
     18 CA         20.2143  -26.7750  -42.0282 C.3       3 UNK         0.0876 
     19 N          20.7549  -27.2499  -43.3061 N.am      3 UNK        -0.4424 
     20 C          21.6246  -26.6480  -44.1302 C.2       2 UNK         0.4918 
     21 O          22.1419  -25.5497  -43.9230 O.2       2 UNK        -0.4875 
     22 CA         21.9581  -27.3999  -45.4354 C.3       2 UNK         0.0481 
     23 CB         23.3307  -28.0838  -45.3407 C.3       2 UNK        -0.1831 
     24 N          20.9491  -28.4086  -45.7692 N.am      2 UNK        -0.4498 
     25 C          19.7627  -28.1631  -46.3402 C.2       1 UNK         0.5027 
     26 O          19.4352  -27.0566  -46.7726 O.2       1 UNK        -0.4969 
     27 C          21.2365  -26.8825  -40.8793 C.2       3 UNK         0.5005 
     28 O          22.4290  -27.0750  -41.1166 O.2       3 UNK        -0.5279 
     29 N          20.7434  -26.7742  -39.6356 N.am      4 UNK        -0.4463 
     30 CA         21.4399  -27.0781  -38.3746 C.3       4 UNK         0.0283 
     31 CB         20.4986  -26.7658  -37.1998 C.3       4 UNK        -0.1875 
     32 C          22.8101  -26.4086  -38.1470 C.2       4 UNK         0.4949 
     33 O          23.6052  -26.9369  -37.3701 O.2       4 UNK        -0.5039 
     34 N          23.0795  -25.2873  -38.8291 N.am      5 UNK        -0.4663 
     35 CA         24.3885  -24.6262  -38.8540 C.3       5 UNK         0.0242 
     36 CB         24.2429  -23.2475  -39.5181 C.3       5 UNK        -0.1982 
     37 C          25.4794  -25.4533  -39.5652 C.2       5 UNK         0.5017 
     38 O          26.6527  -25.3206  -39.2153 O.2       5 UNK        -0.5012 
     39 N          25.0763  -26.2807  -40.5382 N.am      6 UNK        -0.4439 
     40 CA         25.9356  -27.1840  -41.3083 C.3       6 UNK         0.0297 
     41 CB         25.7999  -26.8261  -42.7957 C.3       6 UNK        -0.2006 
     42 C          25.5851  -28.6674  -41.0826 C.2       6 UNK         0.4892 
     43 O          26.4101  -29.5236  -41.4031 O.2       6 UNK        -0.5089 
     44 N          24.3873  -28.9419  -40.5448 N.am      7 UNK        -0.4243 
     45 CA         23.7601  -30.2468  -40.3341 C.3       7 UNK         0.0196 
     46 CB         24.6052  -31.1610  -39.4162 C.3       7 UNK        -0.2007 
     47 C          23.3528  -30.8630  -41.6821 C.2       7 UNK         0.5020 
     48 O          22.5200  -30.2748  -42.3721 O.2       7 UNK        -0.5147 
     49 N          23.9028  -32.0386  -42.0166 N.am      8 UNK        -0.4734 
     50 CA         23.6907  -32.8473  -43.2299 C.3       8 UNK         0.0238 
     51 CB         24.0601  -32.0629  -44.5050 C.3       8 UNK        -0.1912 
     52 C          22.2938  -33.4868  -43.3583 C.2       8 UNK         0.5038 
     53 O          22.2046  -34.6172  -43.8399 O.2       8 UNK        -0.5046 
     54 N          21.2435  -32.7862  -42.9174 N.am      9 UNK        -0.4200 
     55 CA         19.8466  -33.2437  -42.9303 C.3       9 UNK         0.0839 
     56 C          19.4917  -34.3397  -41.8825 C.2       9 UNK         0.5513 
     57 N          20.3631  -34.6653  -40.9348 N.am      9 UNK        -0.7519 
     58 O          18.4077  -34.9146  -41.9410 O.2       9 UNK        -0.4960 
     59 C59        18.8564  -32.0512  -42.8978 C.3       10 UNK        -0.0876 
     60 S60        18.9549  -31.0277  -41.3859 S.3       10 UNK        -0.2414 
     61 C61        17.1980  -30.6256  -41.1219 C.3       10 UNK         0.0169 
     62 H62        20.6004  -33.4197  -47.1584 H         1 UNK         0.0903 
     63 H63        20.1618  -32.4776  -48.5858 H         1 UNK         0.0903 
     64 H64        21.7925  -32.3617  -47.9169 H         1 UNK         0.0903 
     65 H65        18.9720  -30.6405  -48.1007 H         1 UNK         0.3096 
     66 H66        18.6258  -29.6837  -45.4065 H         1 UNK         0.1121 
     67 H67        17.4728  -28.7674  -48.0828 H         1 UNK         0.0849 
     68 H68        17.0421  -28.0371  -46.5645 H         1 UNK         0.0849 
     69 H69        14.5393  -28.6364  -46.0512 H         1 UNK         0.0865 
     70 H70        14.2163  -30.1861  -45.3225 H         1 UNK         0.0865 
     71 H71        15.9433  -31.0467  -43.5231 H         1 UNK         0.1346 
     72 H72        17.3505  -27.9215  -40.9449 H         1 UNK         0.1412 
     73 H73        15.6107  -26.9480  -44.7379 H         1 UNK         0.1426 
     74 H74        16.7957  -25.5841  -41.4940 H         1 UNK         0.0716 
     75 H75        15.9084  -25.2222  -42.9483 H         1 UNK         0.0716 
     76 H76        19.0742  -25.1268  -41.1288 H         1 UNK         0.0695 
     77 H77        20.2859  -24.6028  -42.2567 H         1 UNK         0.0695 
     78 H78        19.4491  -27.5075  -41.7842 H         1 UNK         0.0983 
     79 H79        20.4600  -28.1782  -43.5675 H         1 UNK         0.3095 
     80 H80        21.9987  -26.6684  -46.2451 H         1 UNK         0.0454 
     81 H81        23.5322  -28.7018  -46.2157 H         1 UNK         0.0851 
     82 H82        23.4070  -28.7179  -44.4563 H         1 UNK         0.0851 
     83 H83        24.1261  -27.3410  -45.2855 H         1 UNK         0.0851 
     84 H84        21.1444  -29.3730  -45.5040 H         1 UNK         0.2976 
     85 H85        19.7572  -26.5802  -39.5387 H         1 UNK         0.3116 
     86 H86        21.6234  -28.1544  -38.3775 H         1 UNK         0.0646 
     87 H87        19.5786  -27.3477  -37.2585 H         1 UNK         0.0847 
     88 H88        20.9681  -27.0083  -36.2451 H         1 UNK         0.0847 
     89 H89        20.2291  -25.7093  -37.1696 H         1 UNK         0.0847 
     90 H90        22.3686  -24.9234  -39.4468 H         1 UNK         0.3040 
     91 H91        24.7131  -24.4786  -37.8214 H         1 UNK         0.1015 
     92 H92        23.9035  -23.3307  -40.5516 H         1 UNK         0.0786 
     93 H93        25.1966  -22.7179  -39.5300 H         1 UNK         0.0786 
     94 H94        23.5327  -22.6199  -38.9794 H         1 UNK         0.0786 
     95 H95        24.0804  -26.3323  -40.7461 H         1 UNK         0.3172 
     96 H96        26.9807  -27.0570  -41.0190 H         1 UNK         0.0595 
     97 H97        24.7572  -26.8594  -43.1106 H         1 UNK         0.0839 
     98 H98        26.3613  -27.5175  -43.4259 H         1 UNK         0.0839 
     99 H99        26.1762  -25.8230  -42.9966 H         1 UNK         0.0839 
    100 H100       23.7347  -28.1650  -40.4843 H         1 UNK         0.2998 
    101 H101       22.8248  -30.0431  -39.8105 H         1 UNK         0.0822 
    102 H102       24.0699  -32.0819  -39.1812 H         1 UNK         0.0787 
    103 H103       25.5613  -31.4383  -39.8603 H         1 UNK         0.0787 
    104 H104       24.8169  -30.6669  -38.4678 H         1 UNK         0.0787 
    105 H105       24.5591  -32.4320  -41.3558 H         1 UNK         0.3055 
    106 H106       24.3940  -33.6781  -43.1501 H         1 UNK         0.1106 
    107 H107       24.0044  -32.7043  -45.3854 H         1 UNK         0.0828 
    108 H108       23.3847  -31.2254  -44.6783 H         1 UNK         0.0828 
    109 H109       25.0752  -31.6698  -44.4508 H         1 UNK         0.0828 
    110 H110       21.4104  -31.8395  -42.5910 H         1 UNK         0.2931 
    111 H111       19.6989  -33.7258  -43.8988 H         1 UNK         0.0412 
    112 H112       20.1239  -35.3801  -40.2656 H         1 UNK         0.3472 
    113 H113       21.2529  -34.1971  -40.8809 H         1 UNK         0.3472 
    114 H114       17.8387  -32.4217  -43.0277 H         1 UNK         0.0970 
    115 H115       19.0362  -31.3994  -43.7519 H         1 UNK         0.0970 
    116 H116       17.0758  -30.2369  -40.1099 H         1 UNK         0.0612 
    117 H117       16.5951  -31.5336  -41.1735 H         1 UNK         0.0612 
@<TRIPOS>BOND
     1    1    2 1    
     2    1   62 1    
     3    1   63 1    
     4    1   64 1    
     5    2    3 2    
     6    2    4 am   BACKBONE|DICT|INTERRES
     7    4    5 1    
     8    4   65 1    
     9    5    6 1    
    10    5   25 1    
    11    5   66 1    
    12    6    7 1    
    13    6   67 1    
    14    6   68 1    
    15    7    8 1    
    16    8    9 1    
    17    8   69 1    
    18    8   70 1    
    19    9   10 ar   
    20    9   14 ar   
    21   10   11 ar   
    22   10   71 1    
    23   11   12 ar   
    24   11   61 1    
    25   12   13 ar   
    26   12   72 1    
    27   13   14 ar   
    28   13   15 1    
    29   14   73 1    
    30   15   16 1    
    31   15   74 1    
    32   15   75 1    
    33   16   17 1    
    34   17   18 1    
    35   17   76 1    
    36   17   77 1    
    37   18   19 1    
    38   18   27 1    
    39   18   78 1    
    40   19   20 am   BACKBONE|DICT|INTERRES
    41   19   79 1    
    42   20   21 2    
    43   20   22 1    
    44   22   23 1    
    45   22   24 1    
    46   22   80 1    
    47   23   81 1    
    48   23   82 1    
    49   23   83 1    
    50   24   25 am   BACKBONE|DICT|INTERRES
    51   24   84 1    
    52   25   26 2    
    53   27   28 2    
    54   27   29 am   BACKBONE|DICT|INTERRES
    55   29   30 1    
    56   29   85 1    
    57   30   31 1    
    58   30   32 1    
    59   30   86 1    
    60   31   87 1    
    61   31   88 1    
    62   31   89 1    
    63   32   33 2    
    64   32   34 am   BACKBONE|DICT|INTERRES
    65   34   35 1    
    66   34   90 1    
    67   35   36 1    
    68   35   37 1    
    69   35   91 1    
    70   36   92 1    
    71   36   93 1    
    72   36   94 1    
    73   37   38 2    
    74   37   39 am   BACKBONE|DICT|INTERRES
    75   39   40 1    
    76   39   95 1    
    77   40   41 1    
    78   40   42 1    
    79   40   96 1    
    80   41   97 1    
    81   41   98 1    
    82   41   99 1    
    83   42   43 2    
    84   42   44 am   BACKBONE|DICT|INTERRES
    85   44   45 1    
    86   44  100 1    
    87   45   46 1    
    88   45   47 1    
    89   45  101 1    
    90   46  102 1    
    91   46  103 1    
    92   46  104 1    
    93   47   48 2    
    94   47   49 am   BACKBONE|DICT|INTERRES
    95   49   50 1    
    96   49  105 1    
    97   50   51 1    
    98   50   52 1    
    99   50  106 1    
   100   51  107 1    
   101   51  108 1    
   102   51  109 1    
   103   52   53 2    
   104   52   54 am   BACKBONE|DICT|INTERRES
   105   54   55 1    
   106   54  110 1    
   107   55   56 1    
   108   55   59 1    
   109   55  111 1    
   110   56   57 am   BACKBONE|DICT|INTERRES
   111   56   58 2    
   112   57  112 1    
   113   57  113 1    
   114   59   60 1    
   115   59  114 1    
   116   59  115 1    
   117   60   61 1    
   118   61  116 1    
   119   61  117 1    
@<TRIPOS>SUBSTRUCTURE
     1 UNK         1 GROUP             0       ****    0 ROOT    
