@<TRIPOS>MOLECULE
3R8
117   119    1
SMALL
USER_CHARGES


@<TRIPOS>ATOM
      1 CA         15.4685  -24.3775  -45.7313 C.3       0 UNK        -0.2013 
      2 C          15.5784  -25.8713  -46.0289 C.2       0 UNK         0.4866 
      3 O          14.7937  -26.3720  -46.8316 O.2       0 UNK        -0.5176 
      4 N          16.5121  -26.6358  -45.4398 N.am      1 UNK        -0.4884 
      5 CA         17.5504  -26.2783  -44.4566 C.3       1 UNK         0.0853 
      6 C6         17.0013  -25.7357  -43.1051 C.3       10 UNK        -0.0849 
      7 S7         15.9694  -26.9618  -42.2271 S.3       10 UNK        -0.2776 
      8 C8         16.9822  -27.3441  -40.7562 C.3       10 UNK         0.0316 
      9 C9         18.0266  -28.4211  -41.0276 C.ar      10 UNK        -0.0863 
     10 C10        17.8597  -29.7122  -40.5105 C.ar      10 UNK        -0.1009 
     11 C11        18.8321  -30.6941  -40.7279 C.ar      10 UNK        -0.0712 
     12 C12        19.9582  -30.3880  -41.4931 C.ar      10 UNK        -0.0894 
     13 C13        20.1344  -29.1085  -42.0198 C.ar      10 UNK        -0.0745 
     14 C14        19.1761  -28.1237  -41.7675 C.ar      10 UNK        -0.0972 
     15 C15        21.3632  -28.7910  -42.8519 C.3       10 UNK         0.0209 
     16 S16        20.9736  -28.8143  -44.6205 S.3       10 UNK        -0.2568 
     17 C17        22.5795  -28.3060  -45.3328 C.3       10 UNK        -0.0983 
     18 CA         22.7077  -26.7787  -45.5869 C.3       3 UNK         0.0876 
     19 N          21.4884  -26.2494  -46.2008 N.am      3 UNK        -0.4424 
     20 C          21.3181  -25.0628  -46.7934 C.2       2 UNK         0.4918 
     21 O          22.2334  -24.2759  -47.0322 O.2       2 UNK        -0.4875 
     22 CA         19.8642  -24.6744  -47.1354 C.3       2 UNK         0.0481 
     23 CB         19.6033  -24.8469  -48.6398 C.3       2 UNK        -0.1831 
     24 N          18.8396  -25.4153  -46.3799 N.am      2 UNK        -0.4498 
     25 C          18.6895  -25.4124  -45.0444 C.2       1 UNK         0.5027 
     26 O          19.4381  -24.7925  -44.2868 O.2       1 UNK        -0.4969 
     27 C          23.1655  -26.0118  -44.3191 C.2       3 UNK         0.5005 
     28 O          24.2736  -26.2688  -43.8478 O.2       3 UNK        -0.5279 
     29 N          22.3365  -25.0926  -43.7931 N.am      4 UNK        -0.4463 
     30 CA         22.6347  -24.1385  -42.7157 C.3       4 UNK         0.0283 
     31 CB         23.7277  -23.1412  -43.1567 C.3       4 UNK        -0.1875 
     32 C          22.9448  -24.8131  -41.3664 C.2       4 UNK         0.4949 
     33 O          23.9788  -24.5414  -40.7549 O.2       4 UNK        -0.5039 
     34 N          22.0194  -25.6801  -40.9323 N.am      5 UNK        -0.4663 
     35 CA         21.9946  -26.3963  -39.6461 C.3       5 UNK         0.0242 
     36 CB         21.8310  -25.4033  -38.4751 C.3       5 UNK        -0.1982 
     37 C          23.1557  -27.3892  -39.4176 C.2       5 UNK         0.5017 
     38 O          23.4102  -27.7681  -38.2725 O.2       5 UNK        -0.5012 
     39 N          23.8192  -27.8210  -40.4991 N.am      6 UNK        -0.4439 
     40 CA         24.7941  -28.9161  -40.5097 C.3       6 UNK         0.0297 
     41 CB         25.4754  -28.9494  -41.8880 C.3       6 UNK        -0.2006 
     42 C          24.1354  -30.2762  -40.2080 C.2       6 UNK         0.4892 
     43 O          22.9209  -30.4194  -40.3525 O.2       6 UNK        -0.5089 
     44 N          24.9457  -31.2836  -39.8604 N.am      7 UNK        -0.4243 
     45 CA         24.5101  -32.6566  -39.5589 C.3       7 UNK         0.0196 
     46 CB         25.6043  -33.3508  -38.7261 C.3       7 UNK        -0.2007 
     47 C          24.1102  -33.4810  -40.8067 C.2       7 UNK         0.5020 
     48 O          24.3955  -34.6778  -40.8719 O.2       7 UNK        -0.5147 
     49 N          23.4516  -32.8389  -41.7802 N.am      8 UNK        -0.4734 
     50 CA         23.0508  -33.4188  -43.0669 C.3       8 UNK         0.0238 
     51 CB         22.6264  -32.2918  -44.0233 C.3       8 UNK        -0.1912 
     52 C          21.9424  -34.4806  -42.9558 C.2       8 UNK         0.5038 
     53 O          21.8357  -35.3258  -43.8454 O.2       8 UNK        -0.5046 
     54 N          21.1521  -34.4282  -41.8751 N.am      9 UNK        -0.4200 
     55 CA         20.1119  -35.4191  -41.5522 C.3       9 UNK         0.0839 
     56 C          20.6672  -36.7482  -40.9586 C.2       9 UNK         0.5513 
     57 N          21.9563  -36.8650  -40.6569 N.am      9 UNK        -0.7519 
     58 O          19.9104  -37.6977  -40.7731 O.2       9 UNK        -0.4960 
     59 C59        18.9899  -34.8301  -40.6532 C.3       10 UNK        -0.0876 
     60 S60        18.2336  -33.3212  -41.3551 S.3       10 UNK        -0.2414 
     61 C61        18.7061  -32.0782  -40.1131 C.3       10 UNK         0.0169 
     62 H62        14.7808  -24.2118  -44.9027 H         1 UNK         0.0903 
     63 H63        16.4218  -23.9136  -45.4906 H         1 UNK         0.0903 
     64 H64        15.0701  -23.8539  -46.6002 H         1 UNK         0.0903 
     65 H65        16.5082  -27.6179  -45.6807 H         1 UNK         0.3096 
     66 H66        18.0439  -27.2253  -44.2329 H         1 UNK         0.1121 
     67 H67        16.4105  -24.8325  -43.2489 H         1 UNK         0.0849 
     68 H68        17.8132  -25.4309  -42.4441 H         1 UNK         0.0849 
     69 H69        17.4647  -26.4410  -40.3798 H         1 UNK         0.0865 
     70 H70        16.3112  -27.6701  -39.9600 H         1 UNK         0.0865 
     71 H71        16.9832  -29.9492  -39.9229 H         1 UNK         0.1346 
     72 H72        20.7063  -31.1482  -41.6639 H         1 UNK         0.1412 
     73 H73        19.3243  -27.1295  -42.1603 H         1 UNK         0.1426 
     74 H74        22.1617  -29.5059  -42.6562 H         1 UNK         0.0716 
     75 H75        21.7473  -27.8126  -42.5760 H         1 UNK         0.0716 
     76 H76        22.6729  -28.8263  -46.2872 H         1 UNK         0.0695 
     77 H77        23.3999  -28.6881  -44.7225 H         1 UNK         0.0695 
     78 H78        23.5127  -26.6350  -46.3110 H         1 UNK         0.0983 
     79 H79        20.6730  -26.8309  -46.0727 H         1 UNK         0.3095 
     80 H80        19.7489  -23.6170  -46.8890 H         1 UNK         0.0454 
     81 H81        19.6779  -25.8911  -48.9460 H         1 UNK         0.0851 
     82 H82        20.3274  -24.2827  -49.2295 H         1 UNK         0.0851 
     83 H83        18.6131  -24.4844  -48.9163 H         1 UNK         0.0851 
     84 H84        18.1889  -25.9658  -46.9231 H         1 UNK         0.2976 
     85 H85        21.4126  -24.9930  -44.2043 H         1 UNK         0.3116 
     86 H86        21.7196  -23.5639  -42.5627 H         1 UNK         0.0646 
     87 H87        23.4605  -22.6477  -44.0912 H         1 UNK         0.0847 
     88 H88        24.6916  -23.6306  -43.2997 H         1 UNK         0.0847 
     89 H89        23.8691  -22.3612  -42.4075 H         1 UNK         0.0847 
     90 H90        21.2116  -25.8181  -41.5221 H         1 UNK         0.3040 
     91 H91        21.0964  -27.0160  -39.6687 H         1 UNK         0.1015 
     92 H92        22.7212  -24.7884  -38.3390 H         1 UNK         0.0786 
     93 H93        21.6527  -25.9278  -37.5356 H         1 UNK         0.0786 
     94 H94        20.9834  -24.7369  -38.6350 H         1 UNK         0.0786 
     95 H95        23.5773  -27.4193  -41.3924 H         1 UNK         0.3172 
     96 H96        25.5455  -28.7154  -39.7435 H         1 UNK         0.0595 
     97 H97        26.2551  -29.7110  -41.9271 H         1 UNK         0.0839 
     98 H98        25.9481  -27.9945  -42.1205 H         1 UNK         0.0839 
     99 H99        24.7651  -29.1707  -42.6853 H         1 UNK         0.0839 
    100 H100       25.9392  -31.1084  -39.8075 H         1 UNK         0.2998 
    101 H101       23.6156  -32.5952  -38.9352 H         1 UNK         0.0822 
    102 H102       25.8396  -32.7826  -37.8259 H         1 UNK         0.0787 
    103 H103       25.2839  -34.3421  -38.4020 H         1 UNK         0.0787 
    104 H104       26.5255  -33.4756  -39.2966 H         1 UNK         0.0787 
    105 H105       23.2061  -31.8696  -41.6028 H         1 UNK         0.3055 
    106 H106       23.9264  -33.9147  -43.4919 H         1 UNK         0.1106 
    107 H107       22.4236  -32.6854  -45.0202 H         1 UNK         0.0828 
    108 H108       23.4070  -31.5380  -44.1282 H         1 UNK         0.0828 
    109 H109       21.7181  -31.7928  -43.6865 H         1 UNK         0.0828 
    110 H110       21.3179  -33.7069  -41.1909 H         1 UNK         0.2931 
    111 H111       19.6362  -35.7009  -42.4937 H         1 UNK         0.0412 
    112 H112       22.6015  -36.1027  -40.8142 H         1 UNK         0.3472 
    113 H113       22.2940  -37.7355  -40.2772 H         1 UNK         0.3472 
    114 H114       19.3690  -34.6318  -39.6493 H         1 UNK         0.0970 
    115 H115       18.1900  -35.5620  -40.5254 H         1 UNK         0.0970 
    116 H116       17.9734  -32.0819  -39.3048 H         1 UNK         0.0612 
    117 H117       19.6643  -32.3424  -39.6631 H         1 UNK         0.0612 
@<TRIPOS>BOND
     1    1    2 1    
     2    1   62 1    
     3    1   63 1    
     4    1   64 1    
     5    2    3 2    
     6    2    4 am   BACKBONE|DICT|INTERRES
     7    4    5 1    
     8    4   65 1    
     9    5    6 1    
    10    5   25 1    
    11    5   66 1    
    12    6    7 1    
    13    6   67 1    
    14    6   68 1    
    15    7    8 1    
    16    8    9 1    
    17    8   69 1    
    18    8   70 1    
    19    9   10 ar   
    20    9   14 ar   
    21   10   11 ar   
    22   10   71 1    
    23   11   12 ar   
    24   11   61 1    
    25   12   13 ar   
    26   12   72 1    
    27   13   14 ar   
    28   13   15 1    
    29   14   73 1    
    30   15   16 1    
    31   15   74 1    
    32   15   75 1    
    33   16   17 1    
    34   17   18 1    
    35   17   76 1    
    36   17   77 1    
    37   18   19 1    
    38   18   27 1    
    39   18   78 1    
    40   19   20 am   BACKBONE|DICT|INTERRES
    41   19   79 1    
    42   20   21 2    
    43   20   22 1    
    44   22   23 1    
    45   22   24 1    
    46   22   80 1    
    47   23   81 1    
    48   23   82 1    
    49   23   83 1    
    50   24   25 am   BACKBONE|DICT|INTERRES
    51   24   84 1    
    52   25   26 2    
    53   27   28 2    
    54   27   29 am   BACKBONE|DICT|INTERRES
    55   29   30 1    
    56   29   85 1    
    57   30   31 1    
    58   30   32 1    
    59   30   86 1    
    60   31   87 1    
    61   31   88 1    
    62   31   89 1    
    63   32   33 2    
    64   32   34 am   BACKBONE|DICT|INTERRES
    65   34   35 1    
    66   34   90 1    
    67   35   36 1    
    68   35   37 1    
    69   35   91 1    
    70   36   92 1    
    71   36   93 1    
    72   36   94 1    
    73   37   38 2    
    74   37   39 am   BACKBONE|DICT|INTERRES
    75   39   40 1    
    76   39   95 1    
    77   40   41 1    
    78   40   42 1    
    79   40   96 1    
    80   41   97 1    
    81   41   98 1    
    82   41   99 1    
    83   42   43 2    
    84   42   44 am   BACKBONE|DICT|INTERRES
    85   44   45 1    
    86   44  100 1    
    87   45   46 1    
    88   45   47 1    
    89   45  101 1    
    90   46  102 1    
    91   46  103 1    
    92   46  104 1    
    93   47   48 2    
    94   47   49 am   BACKBONE|DICT|INTERRES
    95   49   50 1    
    96   49  105 1    
    97   50   51 1    
    98   50   52 1    
    99   50  106 1    
   100   51  107 1    
   101   51  108 1    
   102   51  109 1    
   103   52   53 2    
   104   52   54 am   BACKBONE|DICT|INTERRES
   105   54   55 1    
   106   54  110 1    
   107   55   56 1    
   108   55   59 1    
   109   55  111 1    
   110   56   57 am   BACKBONE|DICT|INTERRES
   111   56   58 2    
   112   57  112 1    
   113   57  113 1    
   114   59   60 1    
   115   59  114 1    
   116   59  115 1    
   117   60   61 1    
   118   61  116 1    
   119   61  117 1    
@<TRIPOS>SUBSTRUCTURE
     1 UNK         1 GROUP             0       ****    0 ROOT    
