@<TRIPOS>MOLECULE
3R8
117   119    1
SMALL
USER_CHARGES


@<TRIPOS>ATOM
      1 CA         20.2269  -28.5458  -41.1830 C.3       0 UNK        -0.2013 
      2 C          19.3449  -27.7826  -42.1577 C.2       0 UNK         0.4866 
      3 O          19.7957  -27.4553  -43.2540 O.2       0 UNK        -0.5176 
      4 N          18.1021  -27.4770  -41.7606 N.am      1 UNK        -0.4884 
      5 CA         17.0799  -26.7840  -42.5617 C.3       1 UNK         0.0853 
      6 C6         16.5404  -27.6505  -43.7387 C.3       10 UNK        -0.0849 
      7 S7         15.9647  -29.3009  -43.2161 S.3       10 UNK        -0.2776 
      8 C8         16.3452  -30.2999  -44.6931 C.3       10 UNK         0.0316 
      9 C9         17.8422  -30.4403  -44.9427 C.ar      10 UNK        -0.0863 
     10 C10        18.6228  -31.2291  -44.0931 C.ar      10 UNK        -0.1009 
     11 C11        19.9860  -31.4129  -44.3449 C.ar      10 UNK        -0.0712 
     12 C12        20.5751  -30.7690  -45.4378 C.ar      10 UNK        -0.0894 
     13 C13        19.8095  -29.9686  -46.2915 C.ar      10 UNK        -0.0745 
     14 C14        18.4411  -29.8159  -46.0428 C.ar      10 UNK        -0.0972 
     15 C15        20.4537  -29.3199  -47.5126 C.3       10 UNK         0.0209 
     16 S16        20.3089  -27.5034  -47.5278 S.3       10 UNK        -0.2568 
     17 C17        21.4331  -27.0220  -46.1739 C.3       10 UNK        -0.0983 
     18 CA         21.2454  -25.5390  -45.7623 C.3       3 UNK         0.0876 
     19 N          19.8557  -25.2159  -45.4174 N.am      3 UNK        -0.4424 
     20 C          19.3528  -23.9740  -45.3392 C.2       2 UNK         0.4918 
     21 O          20.0015  -22.9593  -45.5957 O.2       2 UNK        -0.4875 
     22 CA         17.8769  -23.8228  -44.9204 C.3       2 UNK         0.0481 
     23 CB         17.0091  -23.4783  -46.1418 C.3       2 UNK        -0.1831 
     24 N          17.3376  -25.0224  -44.2769 N.am      2 UNK        -0.4498 
     25 C          17.5734  -25.3837  -43.0068 C.2       1 UNK         0.5027 
     26 O          18.1754  -24.6693  -42.2013 O.2       1 UNK        -0.4969 
     27 C          22.1935  -25.1465  -44.6119 C.2       3 UNK         0.5005 
     28 O          23.2652  -24.5953  -44.8662 O.2       3 UNK        -0.5279 
     29 N          21.7521  -25.4025  -43.3705 N.am      4 UNK        -0.4463 
     30 CA         22.2606  -24.9409  -42.0697 C.3       4 UNK         0.0283 
     31 CB         22.1862  -23.4054  -41.9743 C.3       4 UNK        -0.1875 
     32 C          23.6563  -25.4436  -41.6567 C.2       4 UNK         0.4949 
     33 O          23.8934  -25.6171  -40.4616 O.2       4 UNK        -0.5039 
     34 N          24.5540  -25.6650  -42.6230 N.am      5 UNK        -0.4663 
     35 CA         25.9193  -26.1543  -42.4106 C.3       5 UNK         0.0242 
     36 CB         26.7378  -25.9222  -43.6910 C.3       5 UNK        -0.1982 
     37 C          25.9812  -27.6342  -41.9934 C.2       5 UNK         0.5017 
     38 O          26.9530  -28.0392  -41.3539 O.2       5 UNK        -0.5012 
     39 N          24.9583  -28.4125  -42.3696 N.am      6 UNK        -0.4439 
     40 CA         24.8047  -29.8188  -42.0047 C.3       6 UNK         0.0297 
     41 CB         23.8155  -30.4831  -42.9721 C.3       6 UNK        -0.2006 
     42 C          24.3110  -29.9621  -40.5577 C.2       6 UNK         0.4892 
     43 O          23.4613  -29.1834  -40.1191 O.2       6 UNK        -0.5089 
     44 N          24.8093  -30.9877  -39.8575 N.am      7 UNK        -0.4243 
     45 CA         24.4534  -31.3177  -38.4748 C.3       7 UNK         0.0196 
     46 CB         25.5978  -32.1381  -37.8500 C.3       7 UNK        -0.2007 
     47 C          23.0937  -32.0384  -38.3893 C.2       7 UNK         0.5020 
     48 O          23.0380  -33.2055  -37.9986 O.2       7 UNK        -0.5147 
     49 N          22.0250  -31.3390  -38.7953 N.am      8 UNK        -0.4734 
     50 CA         20.6017  -31.7240  -38.8105 C.3       8 UNK         0.0238 
     51 CB         20.0929  -32.0324  -37.3887 C.3       8 UNK        -0.1912 
     52 C          20.2218  -32.8581  -39.7842 C.2       8 UNK         0.5038 
     53 O          19.1360  -32.7944  -40.3601 O.2       8 UNK        -0.5046 
     54 N          21.1128  -33.8430  -39.9510 N.am      9 UNK        -0.4200 
     55 CA         21.0037  -35.0516  -40.7821 C.3       9 UNK         0.0839 
     56 C          19.7291  -35.9148  -40.5245 C.2       9 UNK         0.5513 
     57 N          19.2902  -36.7211  -41.4822 N.am      9 UNK        -0.7519 
     58 O          19.1746  -35.9197  -39.4269 O.2       9 UNK        -0.4960 
     59 C59        21.4012  -34.8077  -42.2709 C.3       10 UNK        -0.0876 
     60 S60        20.1509  -33.9948  -43.3266 S.3       10 UNK        -0.2414 
     61 C61        20.8239  -32.3075  -43.4423 C.3       10 UNK         0.0169 
     62 H62        21.1848  -28.0388  -41.0701 H         1 UNK         0.0903 
     63 H63        19.7688  -28.6257  -40.1980 H         1 UNK         0.0903 
     64 H64        20.4154  -29.5503  -41.5599 H         1 UNK         0.0903 
     65 H65        17.8031  -27.7470  -40.8343 H         1 UNK         0.3096 
     66 H66        16.2447  -26.5939  -41.8857 H         1 UNK         0.1121 
     67 H67        15.6957  -27.1605  -44.2263 H         1 UNK         0.0849 
     68 H68        17.3147  -27.7702  -44.4974 H         1 UNK         0.0849 
     69 H69        15.9130  -31.2934  -44.5645 H         1 UNK         0.0865 
     70 H70        15.8454  -29.8637  -45.5594 H         1 UNK         0.0865 
     71 H71        18.1652  -31.7190  -43.2437 H         1 UNK         0.1346 
     72 H72        21.6298  -30.9045  -45.6344 H         1 UNK         0.1412 
     73 H73        17.8444  -29.2120  -46.7127 H         1 UNK         0.1426 
     74 H74        19.9725  -29.7136  -48.4088 H         1 UNK         0.0716 
     75 H75        21.5081  -29.5896  -47.5899 H         1 UNK         0.0716 
     76 H76        21.2683  -27.6887  -45.3269 H         1 UNK         0.0695 
     77 H77        22.4584  -27.1970  -46.5051 H         1 UNK         0.0695 
     78 H78        21.5195  -24.9227  -46.6217 H         1 UNK         0.0983 
     79 H79        19.2754  -26.0018  -45.1613 H         1 UNK         0.3095 
     80 H80        17.8172  -22.9899  -44.2167 H         1 UNK         0.0454 
     81 H81        17.3611  -22.5658  -46.6254 H         1 UNK         0.0851 
     82 H82        17.0299  -24.2710  -46.8908 H         1 UNK         0.0851 
     83 H83        15.9704  -23.3102  -45.8573 H         1 UNK         0.0851 
     84 H84        16.8194  -25.6525  -44.8715 H         1 UNK         0.2976 
     85 H85        20.9092  -25.9732  -43.3140 H         1 UNK         0.3116 
     86 H86        21.5634  -25.3451  -41.3339 H         1 UNK         0.0646 
     87 H87        22.4708  -23.0614  -40.9791 H         1 UNK         0.0847 
     88 H88        21.1741  -23.0469  -42.1638 H         1 UNK         0.0847 
     89 H89        22.8532  -22.9211  -42.6882 H         1 UNK         0.0847 
     90 H90        24.2829  -25.4141  -43.5717 H         1 UNK         0.3040 
     91 H91        26.3687  -25.5706  -41.6039 H         1 UNK         0.1015 
     92 H92        26.7685  -24.8650  -43.9556 H         1 UNK         0.0786 
     93 H93        26.3233  -26.4683  -44.5394 H         1 UNK         0.0786 
     94 H94        27.7694  -26.2530  -43.5614 H         1 UNK         0.0786 
     95 H95        24.1835  -27.9730  -42.8434 H         1 UNK         0.3172 
     96 H96        25.7731  -30.3140  -42.1048 H         1 UNK         0.0595 
     97 H97        22.8218  -30.0368  -42.9064 H         1 UNK         0.0839 
     98 H98        23.7181  -31.5450  -42.7449 H         1 UNK         0.0839 
     99 H99        24.1524  -30.4034  -44.0058 H         1 UNK         0.0839 
    100 H100       25.4714  -31.6042  -40.3070 H         1 UNK         0.2998 
    101 H101       24.3630  -30.3908  -37.9037 H         1 UNK         0.0822 
    102 H102       26.5357  -31.5824  -37.8603 H         1 UNK         0.0787 
    103 H103       25.3802  -32.3823  -36.8092 H         1 UNK         0.0787 
    104 H104       25.7588  -33.0785  -38.3788 H         1 UNK         0.0787 
    105 H105       22.2273  -30.4149  -39.1695 H         1 UNK         0.3055 
    106 H106       20.0651  -30.8404  -39.1579 H         1 UNK         0.1106 
    107 H107       20.5691  -32.9180  -36.9670 H         1 UNK         0.0828 
    108 H108       20.2752  -31.1980  -36.7116 H         1 UNK         0.0828 
    109 H109       19.0177  -32.2170  -37.3928 H         1 UNK         0.0828 
    110 H110       21.9324  -33.7986  -39.3513 H         1 UNK         0.2931 
    111 H111       21.7980  -35.6820  -40.3803 H         1 UNK         0.0412 
    112 H112       18.4842  -37.3004  -41.3060 H         1 UNK         0.3472 
    113 H113       19.7206  -36.7217  -42.3936 H         1 UNK         0.3472 
    114 H114       21.6482  -35.7614  -42.7395 H         1 UNK         0.0970 
    115 H115       22.3297  -34.2363  -42.3090 H         1 UNK         0.0970 
    116 H116       21.8410  -32.3798  -43.8267 H         1 UNK         0.0612 
    117 H117       20.8869  -31.8622  -42.4499 H         1 UNK         0.0612 
@<TRIPOS>BOND
     1    1    2 1    
     2    1   62 1    
     3    1   63 1    
     4    1   64 1    
     5    2    3 2    
     6    2    4 am   BACKBONE|DICT|INTERRES
     7    4    5 1    
     8    4   65 1    
     9    5    6 1    
    10    5   25 1    
    11    5   66 1    
    12    6    7 1    
    13    6   67 1    
    14    6   68 1    
    15    7    8 1    
    16    8    9 1    
    17    8   69 1    
    18    8   70 1    
    19    9   10 ar   
    20    9   14 ar   
    21   10   11 ar   
    22   10   71 1    
    23   11   12 ar   
    24   11   61 1    
    25   12   13 ar   
    26   12   72 1    
    27   13   14 ar   
    28   13   15 1    
    29   14   73 1    
    30   15   16 1    
    31   15   74 1    
    32   15   75 1    
    33   16   17 1    
    34   17   18 1    
    35   17   76 1    
    36   17   77 1    
    37   18   19 1    
    38   18   27 1    
    39   18   78 1    
    40   19   20 am   BACKBONE|DICT|INTERRES
    41   19   79 1    
    42   20   21 2    
    43   20   22 1    
    44   22   23 1    
    45   22   24 1    
    46   22   80 1    
    47   23   81 1    
    48   23   82 1    
    49   23   83 1    
    50   24   25 am   BACKBONE|DICT|INTERRES
    51   24   84 1    
    52   25   26 2    
    53   27   28 2    
    54   27   29 am   BACKBONE|DICT|INTERRES
    55   29   30 1    
    56   29   85 1    
    57   30   31 1    
    58   30   32 1    
    59   30   86 1    
    60   31   87 1    
    61   31   88 1    
    62   31   89 1    
    63   32   33 2    
    64   32   34 am   BACKBONE|DICT|INTERRES
    65   34   35 1    
    66   34   90 1    
    67   35   36 1    
    68   35   37 1    
    69   35   91 1    
    70   36   92 1    
    71   36   93 1    
    72   36   94 1    
    73   37   38 2    
    74   37   39 am   BACKBONE|DICT|INTERRES
    75   39   40 1    
    76   39   95 1    
    77   40   41 1    
    78   40   42 1    
    79   40   96 1    
    80   41   97 1    
    81   41   98 1    
    82   41   99 1    
    83   42   43 2    
    84   42   44 am   BACKBONE|DICT|INTERRES
    85   44   45 1    
    86   44  100 1    
    87   45   46 1    
    88   45   47 1    
    89   45  101 1    
    90   46  102 1    
    91   46  103 1    
    92   46  104 1    
    93   47   48 2    
    94   47   49 am   BACKBONE|DICT|INTERRES
    95   49   50 1    
    96   49  105 1    
    97   50   51 1    
    98   50   52 1    
    99   50  106 1    
   100   51  107 1    
   101   51  108 1    
   102   51  109 1    
   103   52   53 2    
   104   52   54 am   BACKBONE|DICT|INTERRES
   105   54   55 1    
   106   54  110 1    
   107   55   56 1    
   108   55   59 1    
   109   55  111 1    
   110   56   57 am   BACKBONE|DICT|INTERRES
   111   56   58 2    
   112   57  112 1    
   113   57  113 1    
   114   59   60 1    
   115   59  114 1    
   116   59  115 1    
   117   60   61 1    
   118   61  116 1    
   119   61  117 1    
@<TRIPOS>SUBSTRUCTURE
     1 UNK         1 GROUP             0       ****    0 ROOT    
