@<TRIPOS>MOLECULE
3R8
117   119    1
SMALL
USER_CHARGES


@<TRIPOS>ATOM
      1 CA         20.8975  -29.3884  -49.2102 C.3       0 UNK        -0.2013 
      2 C          20.0033  -28.5556  -48.3039 C.2       0 UNK         0.4866 
      3 O          19.6832  -27.4169  -48.6450 O.2       0 UNK        -0.5176 
      4 N          19.6064  -29.1190  -47.1533 N.am      1 UNK        -0.4884 
      5 CA         18.7261  -28.5128  -46.1394 C.3       1 UNK         0.0853 
      6 C6         17.2606  -28.3311  -46.6190 C.3       10 UNK        -0.0849 
      7 S7         16.4790  -29.9492  -46.9366 S.3       10 UNK        -0.2776 
      8 C8         15.2932  -30.0791  -45.5546 C.3       10 UNK         0.0316 
      9 C9         15.9479  -29.9926  -44.1782 C.ar      10 UNK        -0.0863 
     10 C10        16.9201  -30.9210  -43.7917 C.ar      10 UNK        -0.1009 
     11 C11        17.4968  -30.8569  -42.5193 C.ar      10 UNK        -0.0712 
     12 C12        17.0711  -29.8767  -41.6189 C.ar      10 UNK        -0.0894 
     13 C13        16.0925  -28.9470  -41.9853 C.ar      10 UNK        -0.0745 
     14 C14        15.5444  -29.0061  -43.2712 C.ar      10 UNK        -0.0972 
     15 C15        15.5698  -27.9168  -40.9857 C.3       10 UNK         0.0209 
     16 S16        16.8696  -27.0975  -40.0002 S.3       10 UNK        -0.2568 
     17 C17        17.7650  -26.1555  -41.2767 C.3       10 UNK        -0.0983 
     18 CA         19.2800  -26.4779  -41.2778 C.3       3 UNK         0.0876 
     19 N          19.8560  -26.2539  -42.6032 N.am      3 UNK        -0.4424 
     20 C          21.1273  -26.4427  -42.9775 C.2       2 UNK         0.4918 
     21 O          22.0334  -26.7749  -42.2125 O.2       2 UNK        -0.4875 
     22 CA         21.4034  -26.2815  -44.4865 C.3       2 UNK         0.0481 
     23 CB         22.8991  -26.4070  -44.8305 C.3       2 UNK        -0.1831 
     24 N          20.6516  -27.2745  -45.2605 N.am      2 UNK        -0.4498 
     25 C          19.3325  -27.2424  -45.5060 C.2       1 UNK         0.5027 
     26 O          18.6127  -26.2881  -45.2020 O.2       1 UNK        -0.4969 
     27 C          20.0280  -25.6842  -40.1887 C.2       3 UNK         0.5005 
     28 O          20.2537  -24.4838  -40.3640 O.2       3 UNK        -0.5279 
     29 N          20.4302  -26.3752  -39.1121 N.am      4 UNK        -0.4463 
     30 CA         21.2219  -25.9101  -37.9611 C.3       4 UNK         0.0283 
     31 CB         20.5098  -24.7705  -37.2061 C.3       4 UNK        -0.1875 
     32 C          22.6821  -25.5324  -38.2838 C.2       4 UNK         0.4949 
     33 O          23.5489  -25.7348  -37.4333 O.2       4 UNK        -0.5039 
     34 N          22.9413  -25.0106  -39.4892 N.am      5 UNK        -0.4663 
     35 CA         24.2679  -24.6675  -40.0046 C.3       5 UNK         0.0242 
     36 CB         24.1130  -23.8516  -41.2981 C.3       5 UNK        -0.1982 
     37 C          25.1593  -25.8980  -40.2430 C.2       5 UNK         0.5017 
     38 O          26.3717  -25.8051  -40.0458 O.2       5 UNK        -0.5012 
     39 N          24.5519  -27.0210  -40.6437 N.am      6 UNK        -0.4439 
     40 CA         25.2037  -28.3135  -40.8209 C.3       6 UNK         0.0297 
     41 CB         25.5929  -28.4904  -42.2992 C.3       6 UNK        -0.2006 
     42 C          24.2517  -29.4274  -40.3714 C.2       6 UNK         0.4892 
     43 O          23.0326  -29.2571  -40.4279 O.2       6 UNK        -0.5089 
     44 N          24.8353  -30.5620  -39.9689 N.am      7 UNK        -0.4243 
     45 CA         24.1211  -31.7980  -39.6281 C.3       7 UNK         0.0196 
     46 CB         24.7762  -32.4160  -38.3802 C.3       7 UNK        -0.2007 
     47 C          24.1135  -32.8078  -40.7931 C.2       7 UNK         0.5020 
     48 O          23.5265  -33.8806  -40.6568 O.2       7 UNK        -0.5147 
     49 N          24.7769  -32.4684  -41.9079 N.am      8 UNK        -0.4734 
     50 CA         24.9490  -33.3191  -43.0908 C.3       8 UNK         0.0238 
     51 CB         26.1670  -32.8124  -43.8831 C.3       8 UNK        -0.1912 
     52 C          23.7090  -33.4021  -44.0019 C.2       8 UNK         0.5038 
     53 O          23.7206  -34.1916  -44.9479 O.2       8 UNK        -0.5046 
     54 N          22.6854  -32.5820  -43.7324 N.am      9 UNK        -0.4200 
     55 CA         21.4021  -32.5582  -44.4466 C.3       9 UNK         0.0839 
     56 C          20.5975  -33.8870  -44.3492 C.2       9 UNK         0.5513 
     57 N          19.7289  -34.1522  -45.3160 N.am      9 UNK        -0.7519 
     58 O          20.7214  -34.6565  -43.3987 O.2       9 UNK        -0.4960 
     59 C59        20.5506  -31.3259  -44.0382 C.3       10 UNK        -0.0876 
     60 S60        20.2393  -31.1826  -42.2425 S.3       10 UNK        -0.2414 
     61 C61        18.5559  -31.8626  -42.0946 C.3       10 UNK         0.0169 
     62 H62        21.1080  -30.3710  -48.7885 H         1 UNK         0.0903 
     63 H63        20.4190  -29.5314  -50.1787 H         1 UNK         0.0903 
     64 H64        21.8469  -28.8785  -49.3715 H         1 UNK         0.0903 
     65 H65        19.8911  -30.0687  -46.9617 H         1 UNK         0.3096 
     66 H66        18.6943  -29.2175  -45.3082 H         1 UNK         0.1121 
     67 H67        17.2190  -27.7290  -47.5277 H         1 UNK         0.0849 
     68 H68        16.6631  -27.7963  -45.8786 H         1 UNK         0.0849 
     69 H69        14.5337  -29.3046  -45.6733 H         1 UNK         0.0865 
     70 H70        14.7675  -31.0317  -45.6332 H         1 UNK         0.0865 
     71 H71        17.2240  -31.6943  -44.4841 H         1 UNK         0.1346 
     72 H72        17.4978  -29.8462  -40.6257 H         1 UNK         0.1412 
     73 H73        14.7784  -28.2979  -43.5572 H         1 UNK         0.1426 
     74 H74        14.8846  -28.4200  -40.3025 H         1 UNK         0.0716 
     75 H75        14.9856  -27.1476  -41.4934 H         1 UNK         0.0716 
     76 H76        17.5775  -25.0888  -41.1368 H         1 UNK         0.0695 
     77 H77        17.3305  -26.4012  -42.2473 H         1 UNK         0.0695 
     78 H78        19.4121  -27.5454  -41.0855 H         1 UNK         0.0983 
     79 H79        19.2015  -26.0000  -43.3354 H         1 UNK         0.3095 
     80 H80        21.0758  -25.2814  -44.7778 H         1 UNK         0.0454 
     81 H81        23.2878  -27.3964  -44.5889 H         1 UNK         0.0851 
     82 H82        23.4917  -25.6798  -44.2742 H         1 UNK         0.0851 
     83 H83        23.0785  -26.2257  -45.8902 H         1 UNK         0.0851 
     84 H84        21.1644  -28.0933  -45.5523 H         1 UNK         0.2976 
     85 H85        20.2195  -27.3642  -39.0965 H         1 UNK         0.3116 
     86 H86        21.2719  -26.7645  -37.2841 H         1 UNK         0.0646 
     87 H87        20.4508  -23.8587  -37.8009 H         1 UNK         0.0847 
     88 H88        21.0442  -24.5209  -36.2886 H         1 UNK         0.0847 
     89 H89        19.4959  -25.0536  -36.9235 H         1 UNK         0.0847 
     90 H90        22.1472  -24.8391  -40.0989 H         1 UNK         0.3040 
     91 H91        24.7653  -24.0420  -39.2600 H         1 UNK         0.1015 
     92 H92        23.5943  -24.4182  -42.0719 H         1 UNK         0.0786 
     93 H93        25.0866  -23.5659  -41.6989 H         1 UNK         0.0786 
     94 H94        23.5524  -22.9332  -41.1229 H         1 UNK         0.0786 
     95 H95        23.5480  -27.0188  -40.8100 H         1 UNK         0.3172 
     96 H96        26.1018  -28.3614  -40.2010 H         1 UNK         0.0595 
     97 H97        26.1314  -29.4249  -42.4587 H         1 UNK         0.0839 
     98 H98        26.2430  -27.6832  -42.6372 H         1 UNK         0.0839 
     99 H99        24.7137  -28.5027  -42.9444 H         1 UNK         0.0839 
    100 H100       25.8447  -30.6042  -39.9325 H         1 UNK         0.2998 
    101 H101       23.0785  -31.5755  -39.3896 H         1 UNK         0.0822 
    102 H102       24.2479  -33.3169  -38.0649 H         1 UNK         0.0787 
    103 H103       25.8147  -32.6945  -38.5637 H         1 UNK         0.0787 
    104 H104       24.7578  -31.7225  -37.5392 H         1 UNK         0.0787 
    105 H105       25.2181  -31.5620  -41.9378 H         1 UNK         0.3055 
    106 H106       25.1596  -34.3370  -42.7541 H         1 UNK         0.1106 
    107 H107       26.3638  -33.4468  -44.7486 H         1 UNK         0.0828 
    108 H108       26.0155  -31.7973  -44.2525 H         1 UNK         0.0828 
    109 H109       27.0698  -32.8178  -43.2720 H         1 UNK         0.0828 
    110 H110       22.7427  -31.9990  -42.9110 H         1 UNK         0.2931 
    111 H111       21.6548  -32.4320  -45.5015 H         1 UNK         0.0412 
    112 H112       19.6183  -33.5390  -46.1080 H         1 UNK         0.3472 
    113 H113       19.1895  -35.0025  -45.2658 H         1 UNK         0.3472 
    114 H114       19.6066  -31.3172  -44.5821 H         1 UNK         0.0970 
    115 H115       21.0695  -30.4171  -44.3452 H         1 UNK         0.0970 
    116 H116       18.3881  -32.1470  -41.0548 H         1 UNK         0.0612 
    117 H117       18.4699  -32.7820  -42.6745 H         1 UNK         0.0612 
@<TRIPOS>BOND
     1    1    2 1    
     2    1   62 1    
     3    1   63 1    
     4    1   64 1    
     5    2    3 2    
     6    2    4 am   BACKBONE|DICT|INTERRES
     7    4    5 1    
     8    4   65 1    
     9    5    6 1    
    10    5   25 1    
    11    5   66 1    
    12    6    7 1    
    13    6   67 1    
    14    6   68 1    
    15    7    8 1    
    16    8    9 1    
    17    8   69 1    
    18    8   70 1    
    19    9   10 ar   
    20    9   14 ar   
    21   10   11 ar   
    22   10   71 1    
    23   11   12 ar   
    24   11   61 1    
    25   12   13 ar   
    26   12   72 1    
    27   13   14 ar   
    28   13   15 1    
    29   14   73 1    
    30   15   16 1    
    31   15   74 1    
    32   15   75 1    
    33   16   17 1    
    34   17   18 1    
    35   17   76 1    
    36   17   77 1    
    37   18   19 1    
    38   18   27 1    
    39   18   78 1    
    40   19   20 am   BACKBONE|DICT|INTERRES
    41   19   79 1    
    42   20   21 2    
    43   20   22 1    
    44   22   23 1    
    45   22   24 1    
    46   22   80 1    
    47   23   81 1    
    48   23   82 1    
    49   23   83 1    
    50   24   25 am   BACKBONE|DICT|INTERRES
    51   24   84 1    
    52   25   26 2    
    53   27   28 2    
    54   27   29 am   BACKBONE|DICT|INTERRES
    55   29   30 1    
    56   29   85 1    
    57   30   31 1    
    58   30   32 1    
    59   30   86 1    
    60   31   87 1    
    61   31   88 1    
    62   31   89 1    
    63   32   33 2    
    64   32   34 am   BACKBONE|DICT|INTERRES
    65   34   35 1    
    66   34   90 1    
    67   35   36 1    
    68   35   37 1    
    69   35   91 1    
    70   36   92 1    
    71   36   93 1    
    72   36   94 1    
    73   37   38 2    
    74   37   39 am   BACKBONE|DICT|INTERRES
    75   39   40 1    
    76   39   95 1    
    77   40   41 1    
    78   40   42 1    
    79   40   96 1    
    80   41   97 1    
    81   41   98 1    
    82   41   99 1    
    83   42   43 2    
    84   42   44 am   BACKBONE|DICT|INTERRES
    85   44   45 1    
    86   44  100 1    
    87   45   46 1    
    88   45   47 1    
    89   45  101 1    
    90   46  102 1    
    91   46  103 1    
    92   46  104 1    
    93   47   48 2    
    94   47   49 am   BACKBONE|DICT|INTERRES
    95   49   50 1    
    96   49  105 1    
    97   50   51 1    
    98   50   52 1    
    99   50  106 1    
   100   51  107 1    
   101   51  108 1    
   102   51  109 1    
   103   52   53 2    
   104   52   54 am   BACKBONE|DICT|INTERRES
   105   54   55 1    
   106   54  110 1    
   107   55   56 1    
   108   55   59 1    
   109   55  111 1    
   110   56   57 am   BACKBONE|DICT|INTERRES
   111   56   58 2    
   112   57  112 1    
   113   57  113 1    
   114   59   60 1    
   115   59  114 1    
   116   59  115 1    
   117   60   61 1    
   118   61  116 1    
   119   61  117 1    
@<TRIPOS>SUBSTRUCTURE
     1 UNK         1 GROUP             0       ****    0 ROOT    
