@<TRIPOS>MOLECULE
3R8
117   119    1
SMALL
USER_CHARGES


@<TRIPOS>ATOM
      1 CA         15.2350  -23.4744  -41.6544 C.3       0 UNK        -0.2013 
      2 C          16.3940  -24.3619  -42.0844 C.2       0 UNK         0.4866 
      3 O          17.4917  -24.2251  -41.5455 O.2       0 UNK        -0.5176 
      4 N          16.1447  -25.2631  -43.0456 N.am      1 UNK        -0.4884 
      5 CA         17.0891  -26.2205  -43.6385 C.3       1 UNK         0.0853 
      6 C6         17.5992  -27.3046  -42.6502 C.3       10 UNK        -0.0849 
      7 S7         16.2768  -28.3921  -42.0098 S.3       10 UNK        -0.2776 
      8 C8         15.7203  -29.3138  -43.4884 C.3       10 UNK         0.0316 
      9 C9         16.8741  -29.8869  -44.3014 C.ar      10 UNK        -0.0863 
     10 C10        17.6043  -30.9745  -43.8173 C.ar      10 UNK        -0.1009 
     11 C11        18.6838  -31.4824  -44.5454 C.ar      10 UNK        -0.0712 
     12 C12        19.0170  -30.9082  -45.7762 C.ar      10 UNK        -0.0894 
     13 C13        18.2989  -29.8125  -46.2718 C.ar      10 UNK        -0.0745 
     14 C14        17.2182  -29.3220  -45.5336 C.ar      10 UNK        -0.0972 
     15 C15        18.6454  -29.1412  -47.6017 C.3       10 UNK         0.0209 
     16 S16        20.4113  -29.1745  -48.0757 S.3       10 UNK        -0.2568 
     17 C17        21.2690  -28.4653  -46.6294 C.3       10 UNK        -0.0983 
     18 CA         21.5317  -26.9448  -46.7565 C.3       3 UNK         0.0876 
     19 N          20.2877  -26.1750  -46.6497 N.am      3 UNK        -0.4424 
     20 C          20.1737  -24.8512  -46.8235 C.2       2 UNK         0.4918 
     21 O          21.0843  -24.1403  -47.2494 O.2       2 UNK        -0.4875 
     22 CA         18.8325  -24.1916  -46.4355 C.3       2 UNK         0.0481 
     23 CB         18.0575  -23.7882  -47.7006 C.3       2 UNK        -0.1831 
     24 N          17.9430  -24.9770  -45.5645 N.am      2 UNK        -0.4498 
     25 C          18.2449  -25.5035  -44.3666 C.2       1 UNK         0.5027 
     26 O          19.3674  -25.4550  -43.8591 O.2       1 UNK        -0.4969 
     27 C          22.5829  -26.5141  -45.7076 C.2       3 UNK         0.5005 
     28 O          23.7781  -26.6098  -45.9880 O.2       3 UNK        -0.5279 
     29 N          22.1246  -26.0731  -44.5224 N.am      4 UNK        -0.4463 
     30 CA         22.9019  -25.5947  -43.3690 C.3       4 UNK         0.0283 
     31 CB         23.6938  -24.3214  -43.7313 C.3       4 UNK        -0.1875 
     32 C          23.7986  -26.6516  -42.6900 C.2       4 UNK         0.4949 
     33 O          24.5388  -26.3083  -41.7670 O.2       4 UNK        -0.5039 
     34 N          23.7041  -27.9217  -43.1046 N.am      5 UNK        -0.4663 
     35 CA         24.4858  -29.0545  -42.5988 C.3       5 UNK         0.0242 
     36 CB         24.5482  -30.1367  -43.6931 C.3       5 UNK        -0.1982 
     37 C          23.9333  -29.5957  -41.2663 C.2       5 UNK         0.5017 
     38 O          23.7144  -30.8003  -41.1325 O.2       5 UNK        -0.5012 
     39 N          23.7139  -28.6964  -40.2976 N.am      6 UNK        -0.4439 
     40 CA         23.0727  -28.9485  -39.0008 C.3       6 UNK         0.0297 
     41 CB         22.9706  -27.6265  -38.2244 C.3       6 UNK        -0.2006 
     42 C          23.7450  -30.0296  -38.1347 C.2       6 UNK         0.4892 
     43 O          23.0615  -30.6563  -37.3257 O.2       6 UNK        -0.5089 
     44 N          25.0493  -30.2603  -38.3403 N.am      7 UNK        -0.4243 
     45 CA         25.8146  -31.3429  -37.7154 C.3       7 UNK         0.0196 
     46 CB         27.3053  -31.1596  -38.0429 C.3       7 UNK        -0.2007 
     47 C          25.3430  -32.7517  -38.1280 C.2       7 UNK         0.5020 
     48 O          25.5230  -33.6907  -37.3521 O.2       7 UNK        -0.5147 
     49 N          24.7528  -32.8753  -39.3245 N.am      8 UNK        -0.4734 
     50 CA         24.1673  -34.1116  -39.8441 C.3       8 UNK         0.0238 
     51 CB         24.6834  -34.3543  -41.2729 C.3       8 UNK        -0.1912 
     52 C          22.6336  -34.0419  -39.8343 C.2       8 UNK         0.5038 
     53 O          21.9886  -35.0122  -39.4350 O.2       8 UNK        -0.5046 
     54 N          22.0820  -32.9093  -40.2867 N.am      9 UNK        -0.4200 
     55 CA         20.6399  -32.6776  -40.4499 C.3       9 UNK         0.0839 
     56 C          19.8711  -32.3782  -39.1327 C.2       9 UNK         0.5513 
     57 N          20.5262  -32.0462  -38.0276 N.am      9 UNK        -0.7519 
     58 O          18.6460  -32.4612  -39.1123 O.2       9 UNK        -0.4960 
     59 C59        20.3616  -31.5909  -41.5206 C.3       10 UNK        -0.0876 
     60 S60        21.0068  -32.0652  -43.1629 S.3       10 UNK        -0.2414 
     61 C61        19.5008  -32.6454  -44.0044 C.3       10 UNK         0.0169 
     62 H62        15.0335  -23.6105  -40.5921 H         1 UNK         0.0903 
     63 H63        15.4825  -22.4266  -41.8225 H         1 UNK         0.0903 
     64 H64        14.3207  -23.6989  -42.2034 H         1 UNK         0.0903 
     65 H65        15.2100  -25.3016  -43.4286 H         1 UNK         0.3096 
     66 H66        16.5269  -26.7341  -44.4164 H         1 UNK         0.1121 
     67 H67        18.3590  -27.9331  -43.1186 H         1 UNK         0.0849 
     68 H68        18.0971  -26.8395  -41.7979 H         1 UNK         0.0849 
     69 H69        15.0681  -30.1276  -43.1681 H         1 UNK         0.0865 
     70 H70        15.0988  -28.6624  -44.1043 H         1 UNK         0.0865 
     71 H71        17.3375  -31.4137  -42.8659 H         1 UNK         0.1346 
     72 H72        19.8509  -31.3080  -46.3363 H         1 UNK         0.1412 
     73 H73        16.6439  -28.4931  -45.9228 H         1 UNK         0.1426 
     74 H74        18.3185  -28.1007  -47.5941 H         1 UNK         0.0716 
     75 H75        18.0728  -29.6317  -48.3897 H         1 UNK         0.0716 
     76 H76        20.7232  -28.6873  -45.7113 H         1 UNK         0.0695 
     77 H77        22.2125  -29.0098  -46.5478 H         1 UNK         0.0695 
     78 H78        21.9645  -26.7434  -47.7390 H         1 UNK         0.0983 
     79 H79        19.4830  -26.6774  -46.3109 H         1 UNK         0.3095 
     80 H80        19.0818  -23.2804  -45.8882 H         1 UNK         0.0454 
     81 H81        18.6720  -23.1706  -48.3576 H         1 UNK         0.0851 
     82 H82        17.7425  -24.6598  -48.2757 H         1 UNK         0.0851 
     83 H83        17.1691  -23.2059  -47.4560 H         1 UNK         0.0851 
     84 H84        16.9894  -25.0609  -45.8873 H         1 UNK         0.2976 
     85 H85        21.1163  -26.0105  -44.3954 H         1 UNK         0.3116 
     86 H86        22.1611  -25.3138  -42.6188 H         1 UNK         0.0646 
     87 H87        24.1470  -23.8754  -42.8452 H         1 UNK         0.0847 
     88 H88        23.0469  -23.5657  -44.1770 H         1 UNK         0.0847 
     89 H89        24.4998  -24.5309  -44.4350 H         1 UNK         0.0847 
     90 H90        23.0489  -28.1235  -43.8446 H         1 UNK         0.3040 
     91 H91        25.5069  -28.7183  -42.4056 H         1 UNK         0.1015 
     92 H92        24.9853  -29.7464  -44.6124 H         1 UNK         0.0786 
     93 H93        23.5581  -30.5264  -43.9318 H         1 UNK         0.0786 
     94 H94        25.1631  -30.9807  -43.3771 H         1 UNK         0.0786 
     95 H95        23.9546  -27.7330  -40.5127 H         1 UNK         0.3172 
     96 H96        22.0594  -29.2973  -39.2105 H         1 UNK         0.0595 
     97 H97        22.3939  -26.8842  -38.7766 H         1 UNK         0.0839 
     98 H98        23.9543  -27.2029  -38.0179 H         1 UNK         0.0839 
     99 H99        22.4708  -27.7734  -37.2656 H         1 UNK         0.0839 
    100 H100       25.5310  -29.6924  -39.0217 H         1 UNK         0.2998 
    101 H101       25.6868  -31.2602  -36.6339 H         1 UNK         0.0822 
    102 H102       27.6764  -30.1994  -37.6838 H         1 UNK         0.0787 
    103 H103       27.9071  -31.9356  -37.5675 H         1 UNK         0.0787 
    104 H104       27.4927  -31.2141  -39.1161 H         1 UNK         0.0787 
    105 H105       24.6133  -32.0418  -39.8871 H         1 UNK         0.3055 
    106 H106       24.4622  -34.9646  -39.2285 H         1 UNK         0.1106 
    107 H107       24.4237  -33.5344  -41.9445 H         1 UNK         0.0828 
    108 H108       25.7675  -34.4664  -41.2869 H         1 UNK         0.0828 
    109 H109       24.2577  -35.2670  -41.6921 H         1 UNK         0.0828 
    110 H110       22.6866  -32.1613  -40.6185 H         1 UNK         0.2931 
    111 H111       20.2096  -33.6078  -40.8270 H         1 UNK         0.0412 
    112 H112       20.0013  -31.8654  -37.1870 H         1 UNK         0.3472 
    113 H113       21.5297  -31.9171  -38.0218 H         1 UNK         0.3472 
    114 H114       20.8241  -30.6460  -41.2307 H         1 UNK         0.0970 
    115 H115       19.2938  -31.3861  -41.5975 H         1 UNK         0.0970 
    116 H116       18.9073  -33.2562  -43.3222 H         1 UNK         0.0612 
    117 H117       19.7905  -33.3009  -44.8270 H         1 UNK         0.0612 
@<TRIPOS>BOND
     1    1    2 1    
     2    1   62 1    
     3    1   63 1    
     4    1   64 1    
     5    2    3 2    
     6    2    4 am   BACKBONE|DICT|INTERRES
     7    4    5 1    
     8    4   65 1    
     9    5    6 1    
    10    5   25 1    
    11    5   66 1    
    12    6    7 1    
    13    6   67 1    
    14    6   68 1    
    15    7    8 1    
    16    8    9 1    
    17    8   69 1    
    18    8   70 1    
    19    9   10 ar   
    20    9   14 ar   
    21   10   11 ar   
    22   10   71 1    
    23   11   12 ar   
    24   11   61 1    
    25   12   13 ar   
    26   12   72 1    
    27   13   14 ar   
    28   13   15 1    
    29   14   73 1    
    30   15   16 1    
    31   15   74 1    
    32   15   75 1    
    33   16   17 1    
    34   17   18 1    
    35   17   76 1    
    36   17   77 1    
    37   18   19 1    
    38   18   27 1    
    39   18   78 1    
    40   19   20 am   BACKBONE|DICT|INTERRES
    41   19   79 1    
    42   20   21 2    
    43   20   22 1    
    44   22   23 1    
    45   22   24 1    
    46   22   80 1    
    47   23   81 1    
    48   23   82 1    
    49   23   83 1    
    50   24   25 am   BACKBONE|DICT|INTERRES
    51   24   84 1    
    52   25   26 2    
    53   27   28 2    
    54   27   29 am   BACKBONE|DICT|INTERRES
    55   29   30 1    
    56   29   85 1    
    57   30   31 1    
    58   30   32 1    
    59   30   86 1    
    60   31   87 1    
    61   31   88 1    
    62   31   89 1    
    63   32   33 2    
    64   32   34 am   BACKBONE|DICT|INTERRES
    65   34   35 1    
    66   34   90 1    
    67   35   36 1    
    68   35   37 1    
    69   35   91 1    
    70   36   92 1    
    71   36   93 1    
    72   36   94 1    
    73   37   38 2    
    74   37   39 am   BACKBONE|DICT|INTERRES
    75   39   40 1    
    76   39   95 1    
    77   40   41 1    
    78   40   42 1    
    79   40   96 1    
    80   41   97 1    
    81   41   98 1    
    82   41   99 1    
    83   42   43 2    
    84   42   44 am   BACKBONE|DICT|INTERRES
    85   44   45 1    
    86   44  100 1    
    87   45   46 1    
    88   45   47 1    
    89   45  101 1    
    90   46  102 1    
    91   46  103 1    
    92   46  104 1    
    93   47   48 2    
    94   47   49 am   BACKBONE|DICT|INTERRES
    95   49   50 1    
    96   49  105 1    
    97   50   51 1    
    98   50   52 1    
    99   50  106 1    
   100   51  107 1    
   101   51  108 1    
   102   51  109 1    
   103   52   53 2    
   104   52   54 am   BACKBONE|DICT|INTERRES
   105   54   55 1    
   106   54  110 1    
   107   55   56 1    
   108   55   59 1    
   109   55  111 1    
   110   56   57 am   BACKBONE|DICT|INTERRES
   111   56   58 2    
   112   57  112 1    
   113   57  113 1    
   114   59   60 1    
   115   59  114 1    
   116   59  115 1    
   117   60   61 1    
   118   61  116 1    
   119   61  117 1    
@<TRIPOS>SUBSTRUCTURE
     1 UNK         1 GROUP             0       ****    0 ROOT    
