@<TRIPOS>MOLECULE
3R8
117   119    1
SMALL
USER_CHARGES


@<TRIPOS>ATOM
      1 CA         19.3810  -24.6311  -39.6796 C.3       0 UNK        -0.2013 
      2 C          19.0101  -24.4867  -41.1479 C.2       0 UNK         0.4866 
      3 O          19.0100  -23.3731  -41.6742 O.2       0 UNK        -0.5176 
      4 N          18.6863  -25.6042  -41.8099 N.am      1 UNK        -0.4884 
      5 CA         18.3880  -25.6766  -43.2443 C.3       1 UNK         0.0853 
      6 C6         17.8965  -27.0811  -43.6499 C.3       10 UNK        -0.0849 
      7 S7         16.3884  -27.6898  -42.8215 S.3       10 UNK        -0.2776 
      8 C8         16.9494  -29.2599  -42.0540 C.3       10 UNK         0.0316 
      9 C9         17.1820  -30.4436  -43.0046 C.ar      10 UNK        -0.0863 
     10 C10        16.9682  -31.7435  -42.5391 C.ar      10 UNK        -0.1009 
     11 C11        17.2849  -32.8524  -43.3312 C.ar      10 UNK        -0.0712 
     12 C12        17.8140  -32.6578  -44.6136 C.ar      10 UNK        -0.0894 
     13 C13        18.0287  -31.3668  -45.1079 C.ar      10 UNK        -0.0745 
     14 C14        17.6888  -30.2805  -44.2973 C.ar      10 UNK        -0.0972 
     15 C15        18.6828  -31.1748  -46.4842 C.3       10 UNK         0.0209 
     16 S16        18.5771  -29.4749  -47.1715 S.3       10 UNK        -0.2568 
     17 C17        20.2171  -29.2326  -47.9404 C.3       10 UNK        -0.0983 
     18 CA         21.1934  -28.3186  -47.1443 C.3       3 UNK         0.0876 
     19 N          20.6016  -27.0139  -46.8164 N.am      3 UNK        -0.4424 
     20 C          21.2871  -25.8647  -46.7268 C.2       2 UNK         0.4918 
     21 O          22.4956  -25.7721  -46.9400 O.2       2 UNK        -0.4875 
     22 CA         20.5022  -24.6072  -46.2993 C.3       2 UNK         0.0481 
     23 CB         19.9086  -23.9035  -47.5297 C.3       2 UNK        -0.1831 
     24 N          19.4382  -24.8631  -45.3189 N.am      2 UNK        -0.4498 
     25 C          19.6395  -25.3730  -44.0953 C.2       1 UNK         0.5027 
     26 O          20.7496  -25.7117  -43.6794 O.2       1 UNK        -0.4969 
     27 C          21.8134  -29.0377  -45.9224 C.2       3 UNK         0.5005 
     28 O          22.4124  -30.0984  -46.1107 O.2       3 UNK        -0.5279 
     29 N          21.6725  -28.4756  -44.7111 N.am      4 UNK        -0.4463 
     30 CA         22.1863  -29.0504  -43.4638 C.3       4 UNK         0.0283 
     31 CB         21.0288  -29.2238  -42.4682 C.3       4 UNK        -0.1875 
     32 C          23.3043  -28.1942  -42.8536 C.2       4 UNK         0.4949 
     33 O          24.3087  -28.7485  -42.4062 O.2       4 UNK        -0.5039 
     34 N          23.1255  -26.8649  -42.8515 N.am      5 UNK        -0.4663 
     35 CA         24.0151  -25.8561  -42.2701 C.3       5 UNK         0.0242 
     36 CB         25.3176  -25.7358  -43.0947 C.3       5 UNK        -0.1982 
     37 C          24.2320  -26.1018  -40.7642 C.2       5 UNK         0.5017 
     38 O          23.3040  -25.8851  -39.9840 O.2       5 UNK        -0.5012 
     39 N          25.4374  -26.5462  -40.3862 N.am      6 UNK        -0.4439 
     40 CA         25.8139  -26.8793  -39.0112 C.3       6 UNK         0.0297 
     41 CB         27.3415  -26.7663  -38.8738 C.3       6 UNK        -0.2006 
     42 C          25.3380  -28.2734  -38.5580 C.2       6 UNK         0.4892 
     43 O          25.3177  -28.5244  -37.3517 O.2       6 UNK        -0.5089 
     44 N          24.9946  -29.1608  -39.5026 N.am      7 UNK        -0.4243 
     45 CA         24.5099  -30.5149  -39.2244 C.3       7 UNK         0.0196 
     46 CB         24.8718  -31.4239  -40.4116 C.3       7 UNK        -0.2007 
     47 C          22.9934  -30.5269  -38.9704 C.2       7 UNK         0.5020 
     48 O          22.3104  -29.5323  -39.2208 O.2       7 UNK        -0.5147 
     49 N          22.4849  -31.6708  -38.4930 N.am      8 UNK        -0.4734 
     50 CA         21.0497  -31.9081  -38.2974 C.3       8 UNK         0.0238 
     51 CB         20.8473  -33.1235  -37.3776 C.3       8 UNK        -0.1912 
     52 C          20.2954  -32.1019  -39.6250 C.2       8 UNK         0.5038 
     53 O          19.1720  -31.6151  -39.7524 O.2       8 UNK        -0.5046 
     54 N          20.9385  -32.7898  -40.5764 N.am      9 UNK        -0.4200 
     55 CA         20.4694  -33.0228  -41.9466 C.3       9 UNK         0.0839 
     56 C          21.6325  -32.8145  -42.9442 C.2       9 UNK         0.5513 
     57 N          21.3170  -32.4191  -44.1682 N.am      9 UNK        -0.7519 
     58 O          22.8001  -33.0356  -42.6309 O.2       9 UNK        -0.4960 
     59 C59        19.8410  -34.4321  -42.1352 C.3       10 UNK        -0.0876 
     60 S60        18.1986  -34.5940  -41.3603 S.3       10 UNK        -0.2414 
     61 C61        17.0948  -34.2582  -42.7752 C.3       10 UNK         0.0169 
     62 H62        18.7535  -23.9848  -39.0666 H         1 UNK         0.0903 
     63 H63        19.2598  -25.6552  -39.3269 H         1 UNK         0.0903 
     64 H64        20.4212  -24.3430  -39.5277 H         1 UNK         0.0903 
     65 H65        18.6951  -26.4875  -41.3223 H         1 UNK         0.3096 
     66 H66        17.6156  -24.9387  -43.4720 H         1 UNK         0.1121 
     67 H67        18.7029  -27.7930  -43.4707 H         1 UNK         0.0849 
     68 H68        17.6883  -27.1028  -44.7221 H         1 UNK         0.0849 
     69 H69        16.1992  -29.5401  -41.3130 H         1 UNK         0.0865 
     70 H70        17.8675  -29.0795  -41.4933 H         1 UNK         0.0865 
     71 H71        16.5985  -31.9005  -41.5346 H         1 UNK         0.1346 
     72 H72        18.0776  -33.5133  -45.2209 H         1 UNK         0.1412 
     73 H73        17.8503  -29.2986  -44.6839 H         1 UNK         0.1426 
     74 H74        18.2309  -31.8612  -47.2016 H         1 UNK         0.0716 
     75 H75        19.7311  -31.4620  -46.4007 H         1 UNK         0.0716 
     76 H76        20.0395  -28.7811  -48.9176 H         1 UNK         0.0695 
     77 H77        20.6720  -30.2005  -48.1589 H         1 UNK         0.0695 
     78 H78        22.0398  -28.1362  -47.8107 H         1 UNK         0.0983 
     79 H79        19.6057  -27.0093  -46.6521 H         1 UNK         0.3095 
     80 H80        21.2148  -23.9237  -45.8326 H         1 UNK         0.0454 
     81 H81        19.1587  -24.5195  -48.0276 H         1 UNK         0.0851 
     82 H82        20.6845  -23.6797  -48.2634 H         1 UNK         0.0851 
     83 H83        19.4410  -22.9565  -47.2595 H         1 UNK         0.0851 
     84 H84        18.4974  -24.6296  -45.6048 H         1 UNK         0.2976 
     85 H85        21.2335  -27.5666  -44.6453 H         1 UNK         0.3116 
     86 H86        22.6140  -30.0367  -43.6486 H         1 UNK         0.0646 
     87 H87        20.2075  -29.7886  -42.9073 H         1 UNK         0.0847 
     88 H88        20.6394  -28.2669  -42.1200 H         1 UNK         0.0847 
     89 H89        21.3595  -29.7784  -41.5917 H         1 UNK         0.0847 
     90 H90        22.2378  -26.4933  -43.1879 H         1 UNK         0.3040 
     91 H91        23.4888  -24.9030  -42.3470 H         1 UNK         0.1015 
     92 H92        25.9726  -24.9647  -42.6865 H         1 UNK         0.0786 
     93 H93        25.0968  -25.4523  -44.1240 H         1 UNK         0.0786 
     94 H94        25.8809  -26.6687  -43.1296 H         1 UNK         0.0786 
     95 H95        26.1252  -26.7206  -41.1050 H         1 UNK         0.3172 
     96 H96        25.3610  -26.1470  -38.3392 H         1 UNK         0.0595 
     97 H97        27.8598  -27.4747  -39.5213 H         1 UNK         0.0839 
     98 H98        27.6576  -26.9711  -37.8499 H         1 UNK         0.0839 
     99 H99        27.6905  -25.7640  -39.1230 H         1 UNK         0.0839 
    100 H100       24.9466  -28.8603  -40.4711 H         1 UNK         0.2998 
    101 H101       25.0097  -30.8983  -38.3320 H         1 UNK         0.0822 
    102 H102       25.9384  -31.3838  -40.6327 H         1 UNK         0.0787 
    103 H103       24.6262  -32.4660  -40.2046 H         1 UNK         0.0787 
    104 H104       24.3328  -31.1405  -41.3161 H         1 UNK         0.0787 
    105 H105       23.1090  -32.4393  -38.2908 H         1 UNK         0.3055 
    106 H106       20.6206  -31.0331  -37.8031 H         1 UNK         0.1106 
    107 H107       19.7858  -33.3073  -37.2052 H         1 UNK         0.0828 
    108 H108       21.3090  -32.9652  -36.4029 H         1 UNK         0.0828 
    109 H109       21.2686  -34.0336  -37.8064 H         1 UNK         0.0828 
    110 H110       21.8841  -33.0974  -40.3994 H         1 UNK         0.2931 
    111 H111       19.7257  -32.2618  -42.1848 H         1 UNK         0.0412 
    112 H112       20.3587  -32.2319  -44.4147 H         1 UNK         0.3472 
    113 H113       22.0514  -32.2453  -44.8385 H         1 UNK         0.3472 
    114 H114       19.7384  -34.6782  -43.1940 H         1 UNK         0.0970 
    115 H115       20.4976  -35.1980  -41.7189 H         1 UNK         0.0970 
    116 H116       16.0604  -34.3755  -42.4497 H         1 UNK         0.0612 
    117 H117       17.2614  -35.0109  -43.5474 H         1 UNK         0.0612 
@<TRIPOS>BOND
     1    1    2 1    
     2    1   62 1    
     3    1   63 1    
     4    1   64 1    
     5    2    3 2    
     6    2    4 am   BACKBONE|DICT|INTERRES
     7    4    5 1    
     8    4   65 1    
     9    5    6 1    
    10    5   25 1    
    11    5   66 1    
    12    6    7 1    
    13    6   67 1    
    14    6   68 1    
    15    7    8 1    
    16    8    9 1    
    17    8   69 1    
    18    8   70 1    
    19    9   10 ar   
    20    9   14 ar   
    21   10   11 ar   
    22   10   71 1    
    23   11   12 ar   
    24   11   61 1    
    25   12   13 ar   
    26   12   72 1    
    27   13   14 ar   
    28   13   15 1    
    29   14   73 1    
    30   15   16 1    
    31   15   74 1    
    32   15   75 1    
    33   16   17 1    
    34   17   18 1    
    35   17   76 1    
    36   17   77 1    
    37   18   19 1    
    38   18   27 1    
    39   18   78 1    
    40   19   20 am   BACKBONE|DICT|INTERRES
    41   19   79 1    
    42   20   21 2    
    43   20   22 1    
    44   22   23 1    
    45   22   24 1    
    46   22   80 1    
    47   23   81 1    
    48   23   82 1    
    49   23   83 1    
    50   24   25 am   BACKBONE|DICT|INTERRES
    51   24   84 1    
    52   25   26 2    
    53   27   28 2    
    54   27   29 am   BACKBONE|DICT|INTERRES
    55   29   30 1    
    56   29   85 1    
    57   30   31 1    
    58   30   32 1    
    59   30   86 1    
    60   31   87 1    
    61   31   88 1    
    62   31   89 1    
    63   32   33 2    
    64   32   34 am   BACKBONE|DICT|INTERRES
    65   34   35 1    
    66   34   90 1    
    67   35   36 1    
    68   35   37 1    
    69   35   91 1    
    70   36   92 1    
    71   36   93 1    
    72   36   94 1    
    73   37   38 2    
    74   37   39 am   BACKBONE|DICT|INTERRES
    75   39   40 1    
    76   39   95 1    
    77   40   41 1    
    78   40   42 1    
    79   40   96 1    
    80   41   97 1    
    81   41   98 1    
    82   41   99 1    
    83   42   43 2    
    84   42   44 am   BACKBONE|DICT|INTERRES
    85   44   45 1    
    86   44  100 1    
    87   45   46 1    
    88   45   47 1    
    89   45  101 1    
    90   46  102 1    
    91   46  103 1    
    92   46  104 1    
    93   47   48 2    
    94   47   49 am   BACKBONE|DICT|INTERRES
    95   49   50 1    
    96   49  105 1    
    97   50   51 1    
    98   50   52 1    
    99   50  106 1    
   100   51  107 1    
   101   51  108 1    
   102   51  109 1    
   103   52   53 2    
   104   52   54 am   BACKBONE|DICT|INTERRES
   105   54   55 1    
   106   54  110 1    
   107   55   56 1    
   108   55   59 1    
   109   55  111 1    
   110   56   57 am   BACKBONE|DICT|INTERRES
   111   56   58 2    
   112   57  112 1    
   113   57  113 1    
   114   59   60 1    
   115   59  114 1    
   116   59  115 1    
   117   60   61 1    
   118   61  116 1    
   119   61  117 1    
@<TRIPOS>SUBSTRUCTURE
     1 UNK         1 GROUP             0       ****    0 ROOT    
