@<TRIPOS>MOLECULE
3R8
117   119    1
SMALL
USER_CHARGES


@<TRIPOS>ATOM
      1 CA         13.7055  -26.8391  -45.7286 C.3       0 UNK        -0.2013 
      2 C          15.2047  -26.8839  -45.4762 C.2       0 UNK         0.4866 
      3 O          15.9572  -27.3570  -46.3292 O.2       0 UNK        -0.5176 
      4 N          15.6509  -26.3870  -44.3153 N.am      1 UNK        -0.4884 
      5 CA         17.0542  -26.3498  -43.8847 C.3       1 UNK         0.0853 
      6 C6         17.1724  -26.2764  -42.3379 C.3       10 UNK        -0.0849 
      7 S7         16.7216  -27.8508  -41.5306 S.3       10 UNK        -0.2776 
      8 C8         18.3533  -28.4815  -41.0064 C.3       10 UNK         0.0316 
      9 C9         19.0927  -29.1789  -42.1420 C.ar      10 UNK        -0.0863 
     10 C10        19.1798  -30.5734  -42.1732 C.ar      10 UNK        -0.1009 
     11 C11        19.8351  -31.2285  -43.2248 C.ar      10 UNK        -0.0712 
     12 C12        20.4014  -30.4687  -44.2536 C.ar      10 UNK        -0.0894 
     13 C13        20.3325  -29.0739  -44.2263 C.ar      10 UNK        -0.0745 
     14 C14        19.6990  -28.4367  -43.1579 C.ar      10 UNK        -0.0972 
     15 C15        20.9395  -28.2434  -45.3433 C.3       10 UNK         0.0209 
     16 S16        22.5383  -27.5648  -44.8246 S.3       10 UNK        -0.2568 
     17 C17        22.7666  -26.2093  -46.0274 C.3       10 UNK        -0.0983 
     18 CA         22.2402  -24.8058  -45.5855 C.3       3 UNK         0.0876 
     19 N          20.7922  -24.6488  -45.7254 N.am      3 UNK        -0.4424 
     20 C          20.1208  -24.5743  -46.8790 C.2       2 UNK         0.4918 
     21 O          20.6561  -24.6999  -47.9817 O.2       2 UNK        -0.4875 
     22 CA         18.6017  -24.3162  -46.7880 C.3       2 UNK         0.0481 
     23 CB         17.9159  -24.3266  -48.1669 C.3       2 UNK        -0.1831 
     24 N          17.9210  -25.2818  -45.9221 N.am      2 UNK        -0.4498 
     25 C          17.8367  -25.2164  -44.5886 C.2       1 UNK         0.5027 
     26 O          18.3500  -24.3106  -43.9299 O.2       1 UNK        -0.4969 
     27 C          22.6414  -24.3791  -44.1570 C.2       3 UNK         0.5005 
     28 O          21.8097  -23.8424  -43.4199 O.2       3 UNK        -0.5279 
     29 N          23.8978  -24.6506  -43.7766 N.am      4 UNK        -0.4463 
     30 CA         24.4457  -24.4212  -42.4335 C.3       4 UNK         0.0283 
     31 CB         25.9819  -24.4531  -42.5167 C.3       4 UNK        -0.1875 
     32 C          23.9446  -25.4151  -41.3621 C.2       4 UNK         0.4949 
     33 O          24.2662  -25.2308  -40.1887 O.2       4 UNK        -0.5039 
     34 N          23.2038  -26.4550  -41.7783 N.am      5 UNK        -0.4663 
     35 CA         22.6238  -27.5446  -40.9762 C.3       5 UNK         0.0242 
     36 CB         21.6911  -27.0036  -39.8727 C.3       5 UNK        -0.1982 
     37 C          23.6534  -28.5518  -40.4312 C.2       5 UNK         0.5017 
     38 O          23.2973  -29.3940  -39.6058 O.2       5 UNK        -0.5012 
     39 N          24.8946  -28.4888  -40.9344 N.am      6 UNK        -0.4439 
     40 CA         26.0265  -29.3386  -40.5474 C.3       6 UNK         0.0297 
     41 CB         27.3016  -28.8091  -41.2233 C.3       6 UNK        -0.2006 
     42 C          25.8368  -30.8370  -40.8527 C.2       6 UNK         0.4892 
     43 O          26.5051  -31.6638  -40.2313 O.2       6 UNK        -0.5089 
     44 N          24.9321  -31.1601  -41.7883 N.am      7 UNK        -0.4243 
     45 CA         24.5252  -32.5246  -42.1310 C.3       7 UNK         0.0196 
     46 CB         23.6904  -32.4885  -43.4205 C.3       7 UNK        -0.2007 
     47 C          23.7645  -33.2419  -40.9982 C.2       7 UNK         0.5020 
     48 O          23.8575  -34.4659  -40.9084 O.2       7 UNK        -0.5147 
     49 N          23.0548  -32.4732  -40.1533 N.am      8 UNK        -0.4734 
     50 CA         22.3903  -32.8879  -38.9075 C.3       8 UNK         0.0238 
     51 CB         23.4513  -33.1182  -37.8106 C.3       8 UNK        -0.1912 
     52 C          21.4216  -34.0824  -39.0542 C.2       8 UNK         0.5038 
     53 O          21.4164  -34.9780  -38.2068 O.2       8 UNK        -0.5046 
     54 N          20.6241  -34.0785  -40.1299 N.am      9 UNK        -0.4200 
     55 CA         19.6485  -35.1332  -40.4583 C.3       9 UNK         0.0839 
     56 C          18.3633  -35.1523  -39.5773 C.2       9 UNK         0.5513 
     57 N          18.1136  -34.1544  -38.7374 N.am      9 UNK        -0.7519 
     58 O          17.5854  -36.1003  -39.6494 O.2       9 UNK        -0.4960 
     59 C59        19.3282  -35.1700  -41.9782 C.3       10 UNK        -0.0876 
     60 S60        18.5405  -33.6454  -42.6045 S.3       10 UNK        -0.2414 
     61 C61        19.9910  -32.7464  -43.2445 C.3       10 UNK         0.0169 
     62 H62        13.4924  -26.2438  -46.6160 H         1 UNK         0.0903 
     63 H63        13.3235  -27.8461  -45.8938 H         1 UNK         0.0903 
     64 H64        13.1629  -26.4042  -44.8894 H         1 UNK         0.0903 
     65 H65        14.9874  -25.9994  -43.6592 H         1 UNK         0.3096 
     66 H66        17.5186  -27.2812  -44.2131 H         1 UNK         0.1121 
     67 H67        18.1817  -26.0059  -42.0239 H         1 UNK         0.0849 
     68 H68        16.5306  -25.4861  -41.9445 H         1 UNK         0.0849 
     69 H69        18.9570  -27.6688  -40.6039 H         1 UNK         0.0865 
     70 H70        18.2020  -29.1748  -40.1775 H         1 UNK         0.0865 
     71 H71        18.7355  -31.1480  -41.3725 H         1 UNK         0.1346 
     72 H72        20.9106  -30.9620  -45.0705 H         1 UNK         0.1412 
     73 H73        19.6782  -27.3576  -43.1266 H         1 UNK         0.1426 
     74 H74        20.2567  -27.4339  -45.6030 H         1 UNK         0.0716 
     75 H75        21.0735  -28.8391  -46.2474 H         1 UNK         0.0716 
     76 H76        23.8368  -26.1426  -46.2277 H         1 UNK         0.0695 
     77 H77        22.3289  -26.5058  -46.9812 H         1 UNK         0.0695 
     78 H78        22.6950  -24.0634  -46.2452 H         1 UNK         0.0983 
     79 H79        20.3047  -24.4652  -44.8528 H         1 UNK         0.3095 
     80 H80        18.4744  -23.3161  -46.3689 H         1 UNK         0.0454 
     81 H81        18.3572  -23.5821  -48.8308 H         1 UNK         0.0851 
     82 H82        18.0078  -25.2970  -48.6561 H         1 UNK         0.0851 
     83 H83        16.8544  -24.0929  -48.0837 H         1 UNK         0.0851 
     84 H84        17.4460  -26.0560  -46.3780 H         1 UNK         0.2976 
     85 H85        24.5132  -25.1010  -44.4394 H         1 UNK         0.3116 
     86 H86        24.1442  -23.4233  -42.1084 H         1 UNK         0.0646 
     87 H87        26.3581  -23.7035  -43.2130 H         1 UNK         0.0847 
     88 H88        26.3510  -25.4274  -42.8390 H         1 UNK         0.0847 
     89 H89        26.4322  -24.2406  -41.5460 H         1 UNK         0.0847 
     90 H90        23.0177  -26.5163  -42.7720 H         1 UNK         0.3040 
     91 H91        22.0072  -28.1206  -41.6661 H         1 UNK         0.1015 
     92 H92        21.1279  -27.8130  -39.4068 H         1 UNK         0.0786 
     93 H93        20.9701  -26.2931  -40.2762 H         1 UNK         0.0786 
     94 H94        22.2467  -26.5037  -39.0792 H         1 UNK         0.0786 
     95 H95        25.0807  -27.7654  -41.6129 H         1 UNK         0.3172 
     96 H96        26.1491  -29.2451  -39.4665 H         1 UNK         0.0595 
     97 H97        28.1721  -29.3974  -40.9297 H         1 UNK         0.0839 
     98 H98        27.2314  -28.8536  -42.3108 H         1 UNK         0.0839 
     99 H99        27.5031  -27.7757  -40.9403 H         1 UNK         0.0839 
    100 H100       24.4515  -30.4085  -42.2600 H         1 UNK         0.2998 
    101 H101       25.4295  -33.1047  -42.3276 H         1 UNK         0.0822 
    102 H102       23.3087  -33.4790  -43.6728 H         1 UNK         0.0787 
    103 H103       22.8374  -31.8176  -43.3264 H         1 UNK         0.0787 
    104 H104       24.2875  -32.1481  -44.2667 H         1 UNK         0.0787 
    105 H105       23.0720  -31.4713  -40.3079 H         1 UNK         0.3055 
    106 H106       21.7761  -32.0421  -38.5934 H         1 UNK         0.1106 
    107 H107       24.0918  -32.2441  -37.6908 H         1 UNK         0.0828 
    108 H108       22.9849  -33.3104  -36.8436 H         1 UNK         0.0828 
    109 H109       24.0900  -33.9715  -38.0418 H         1 UNK         0.0828 
    110 H110       20.6723  -33.2998  -40.7683 H         1 UNK         0.2931 
    111 H111       20.1439  -36.0813  -40.2394 H         1 UNK         0.0412 
    112 H112       18.7452  -33.3739  -38.6676 H         1 UNK         0.3472 
    113 H113       17.2811  -34.1837  -38.1698 H         1 UNK         0.3472 
    114 H114       20.2403  -35.3665  -42.5441 H         1 UNK         0.0970 
    115 H115       18.6684  -36.0098  -42.2040 H         1 UNK         0.0970 
    116 H116       20.8689  -32.9990  -42.6525 H         1 UNK         0.0612 
    117 H117       20.1898  -33.0994  -44.2573 H         1 UNK         0.0612 
@<TRIPOS>BOND
     1    1    2 1    
     2    1   62 1    
     3    1   63 1    
     4    1   64 1    
     5    2    3 2    
     6    2    4 am   BACKBONE|DICT|INTERRES
     7    4    5 1    
     8    4   65 1    
     9    5    6 1    
    10    5   25 1    
    11    5   66 1    
    12    6    7 1    
    13    6   67 1    
    14    6   68 1    
    15    7    8 1    
    16    8    9 1    
    17    8   69 1    
    18    8   70 1    
    19    9   10 ar   
    20    9   14 ar   
    21   10   11 ar   
    22   10   71 1    
    23   11   12 ar   
    24   11   61 1    
    25   12   13 ar   
    26   12   72 1    
    27   13   14 ar   
    28   13   15 1    
    29   14   73 1    
    30   15   16 1    
    31   15   74 1    
    32   15   75 1    
    33   16   17 1    
    34   17   18 1    
    35   17   76 1    
    36   17   77 1    
    37   18   19 1    
    38   18   27 1    
    39   18   78 1    
    40   19   20 am   BACKBONE|DICT|INTERRES
    41   19   79 1    
    42   20   21 2    
    43   20   22 1    
    44   22   23 1    
    45   22   24 1    
    46   22   80 1    
    47   23   81 1    
    48   23   82 1    
    49   23   83 1    
    50   24   25 am   BACKBONE|DICT|INTERRES
    51   24   84 1    
    52   25   26 2    
    53   27   28 2    
    54   27   29 am   BACKBONE|DICT|INTERRES
    55   29   30 1    
    56   29   85 1    
    57   30   31 1    
    58   30   32 1    
    59   30   86 1    
    60   31   87 1    
    61   31   88 1    
    62   31   89 1    
    63   32   33 2    
    64   32   34 am   BACKBONE|DICT|INTERRES
    65   34   35 1    
    66   34   90 1    
    67   35   36 1    
    68   35   37 1    
    69   35   91 1    
    70   36   92 1    
    71   36   93 1    
    72   36   94 1    
    73   37   38 2    
    74   37   39 am   BACKBONE|DICT|INTERRES
    75   39   40 1    
    76   39   95 1    
    77   40   41 1    
    78   40   42 1    
    79   40   96 1    
    80   41   97 1    
    81   41   98 1    
    82   41   99 1    
    83   42   43 2    
    84   42   44 am   BACKBONE|DICT|INTERRES
    85   44   45 1    
    86   44  100 1    
    87   45   46 1    
    88   45   47 1    
    89   45  101 1    
    90   46  102 1    
    91   46  103 1    
    92   46  104 1    
    93   47   48 2    
    94   47   49 am   BACKBONE|DICT|INTERRES
    95   49   50 1    
    96   49  105 1    
    97   50   51 1    
    98   50   52 1    
    99   50  106 1    
   100   51  107 1    
   101   51  108 1    
   102   51  109 1    
   103   52   53 2    
   104   52   54 am   BACKBONE|DICT|INTERRES
   105   54   55 1    
   106   54  110 1    
   107   55   56 1    
   108   55   59 1    
   109   55  111 1    
   110   56   57 am   BACKBONE|DICT|INTERRES
   111   56   58 2    
   112   57  112 1    
   113   57  113 1    
   114   59   60 1    
   115   59  114 1    
   116   59  115 1    
   117   60   61 1    
   118   61  116 1    
   119   61  117 1    
@<TRIPOS>SUBSTRUCTURE
     1 UNK         1 GROUP             0       ****    0 ROOT    
