@<TRIPOS>MOLECULE
3R8
117   119    1
SMALL
USER_CHARGES


@<TRIPOS>ATOM
      1 CA         17.8489  -25.6593  -48.6376 C.3       0 UNK        -0.2013 
      2 C          18.1456  -26.2793  -47.2809 C.2       0 UNK         0.4866 
      3 O          19.2417  -26.7994  -47.0693 O.2       0 UNK        -0.5176 
      4 N          17.1861  -26.2168  -46.3491 N.am      1 UNK        -0.4884 
      5 CA         17.2627  -26.7851  -44.9951 C.3       1 UNK         0.0853 
      6 C6         15.8534  -27.1081  -44.4321 C.3       10 UNK        -0.0849 
      7 S7         15.0412  -28.4255  -45.4013 S.3       10 UNK        -0.2776 
      8 C8         15.0858  -29.8429  -44.2497 C.3       10 UNK         0.0316 
      9 C9         16.4769  -30.1263  -43.6903 C.ar      10 UNK        -0.0863 
     10 C10        17.5494  -30.3926  -44.5468 C.ar      10 UNK        -0.1009 
     11 C11        18.8249  -30.6347  -44.0305 C.ar      10 UNK        -0.0712 
     12 C12        19.0186  -30.6481  -42.6462 C.ar      10 UNK        -0.0894 
     13 C13        17.9526  -30.3990  -41.7747 C.ar      10 UNK        -0.0745 
     14 C14        16.6870  -30.1322  -42.3072 C.ar      10 UNK        -0.0972 
     15 C15        18.1312  -30.4604  -40.2588 C.3       10 UNK         0.0209 
     16 S16        19.6574  -29.6745  -39.6399 S.3       10 UNK        -0.2568 
     17 C17        19.3834  -27.9149  -40.0424 C.3       10 UNK        -0.0983 
     18 CA         20.6170  -27.2829  -40.7399 C.3       3 UNK         0.0876 
     19 N          20.2169  -26.2840  -41.7400 N.am      3 UNK        -0.4424 
     20 C          21.0168  -25.7183  -42.6535 C.2       2 UNK         0.4918 
     21 O          22.2368  -25.8880  -42.6890 O.2       2 UNK        -0.4875 
     22 CA         20.3301  -24.8213  -43.7002 C.3       2 UNK         0.0481 
     23 CB         21.3347  -24.1927  -44.6832 C.3       2 UNK        -0.1831 
     24 N          19.3288  -25.5703  -44.4611 N.am      2 UNK        -0.4498 
     25 C          18.1016  -25.9046  -44.0424 C.2       1 UNK         0.5027 
     26 O          17.6499  -25.5573  -42.9487 O.2       1 UNK        -0.4969 
     27 C          21.6643  -26.7733  -39.7206 C.2       3 UNK         0.5005 
     28 O          22.3432  -27.5816  -39.0885 O.2       3 UNK        -0.5279 
     29 N          21.8116  -25.4457  -39.5968 N.am      4 UNK        -0.4463 
     30 CA         22.8739  -24.7932  -38.8263 C.3       4 UNK         0.0283 
     31 CB         22.5677  -23.2908  -38.7171 C.3       4 UNK        -0.1875 
     32 C          24.2827  -25.0111  -39.4156 C.2       4 UNK         0.4949 
     33 O          25.2574  -24.9373  -38.6669 O.2       4 UNK        -0.5039 
     34 N          24.3673  -25.2662  -40.7289 N.am      5 UNK        -0.4663 
     35 CA         25.6076  -25.5502  -41.4513 C.3       5 UNK         0.0242 
     36 CB         25.7423  -24.5766  -42.6353 C.3       5 UNK        -0.1982 
     37 C          25.6272  -27.0066  -41.9336 C.2       5 UNK         0.5017 
     38 O          26.5739  -27.7344  -41.6333 O.2       5 UNK        -0.5012 
     39 N          24.5769  -27.4134  -42.6569 N.am      6 UNK        -0.4439 
     40 CA         24.3904  -28.7547  -43.2052 C.3       6 UNK         0.0297 
     41 CB         23.6893  -28.6340  -44.5722 C.3       6 UNK        -0.2006 
     42 C          23.5893  -29.6055  -42.2095 C.2       6 UNK         0.4892 
     43 O          22.4338  -29.9335  -42.4759 O.2       6 UNK        -0.5089 
     44 N          24.2046  -29.9054  -41.0584 N.am      7 UNK        -0.4243 
     45 CA         23.6023  -30.6445  -39.9466 C.3       7 UNK         0.0196 
     46 CB         24.6010  -30.7132  -38.7801 C.3       7 UNK        -0.2007 
     47 C          23.1385  -32.0492  -40.3622 C.2       7 UNK         0.5020 
     48 O          23.9666  -32.8627  -40.7772 O.2       7 UNK        -0.5147 
     49 N          21.8239  -32.2895  -40.2656 N.am      8 UNK        -0.4734 
     50 CA         21.0710  -33.5110  -40.5958 C.3       8 UNK         0.0238 
     51 CB         21.5179  -34.6944  -39.7154 C.3       8 UNK        -0.1912 
     52 C          21.0581  -33.9104  -42.0857 C.2       8 UNK         0.5038 
     53 O          20.0264  -34.3958  -42.5482 O.2       8 UNK        -0.5046 
     54 N          22.1866  -33.7218  -42.7825 N.am      9 UNK        -0.4200 
     55 CA         22.4645  -34.0030  -44.2035 C.3       9 UNK         0.0839 
     56 C          22.1633  -35.4460  -44.7156 C.2       9 UNK         0.5513 
     57 N          22.0425  -36.4426  -43.8471 N.am      9 UNK        -0.7519 
     58 O          22.0908  -35.6819  -45.9192 O.2       9 UNK        -0.4960 
     59 C59        22.0150  -32.8634  -45.1656 C.3       10 UNK        -0.0876 
     60 S60        20.2086  -32.6360  -45.3371 S.3       10 UNK        -0.2414 
     61 C61        19.9996  -30.8662  -44.9653 C.3       10 UNK         0.0169 
     62 H62        18.5625  -24.8638  -48.8506 H         1 UNK         0.0903 
     63 H63        17.9348  -26.4128  -49.4201 H         1 UNK         0.0903 
     64 H64        16.8454  -25.2368  -48.6827 H         1 UNK         0.0903 
     65 H65        16.3117  -25.7634  -46.5749 H         1 UNK         0.3096 
     66 H66        17.8106  -27.7268  -45.0590 H         1 UNK         0.1121 
     67 H67        15.2208  -26.2188  -44.4445 H         1 UNK         0.0849 
     68 H68        15.9061  -27.4214  -43.3878 H         1 UNK         0.0849 
     69 H69        14.3750  -29.6555  -43.4432 H         1 UNK         0.0865 
     70 H70        14.7266  -30.7316  -44.7703 H         1 UNK         0.0865 
     71 H71        17.3942  -30.3907  -45.6173 H         1 UNK         0.1346 
     72 H72        20.0034  -30.8553  -42.2513 H         1 UNK         0.1412 
     73 H73        15.8573  -29.9416  -41.6399 H         1 UNK         0.1426 
     74 H74        18.1352  -31.5084  -39.9573 H         1 UNK         0.0716 
     75 H75        17.2815  -30.0000  -39.7522 H         1 UNK         0.0716 
     76 H76        19.1088  -27.3742  -39.1346 H         1 UNK         0.0695 
     77 H77        18.5103  -27.8525  -40.6940 H         1 UNK         0.0695 
     78 H78        21.1165  -28.0647  -41.3132 H         1 UNK         0.0983 
     79 H79        19.2250  -26.0797  -41.8067 H         1 UNK         0.3095 
     80 H80        19.8342  -24.0100  -43.1637 H         1 UNK         0.0454 
     81 H81        21.8676  -24.9521  -45.2571 H         1 UNK         0.0851 
     82 H82        22.0819  -23.5995  -44.1543 H         1 UNK         0.0851 
     83 H83        20.8363  -23.5281  -45.3890 H         1 UNK         0.0851 
     84 H84        19.6138  -25.9278  -45.3692 H         1 UNK         0.2976 
     85 H85        21.2027  -24.8478  -40.1362 H         1 UNK         0.3116 
     86 H86        22.8695  -25.2176  -37.8200 H         1 UNK         0.0646 
     87 H87        22.5464  -22.8095  -39.6957 H         1 UNK         0.0847 
     88 H88        23.3265  -22.7813  -38.1214 H         1 UNK         0.0847 
     89 H89        21.6073  -23.1139  -38.2327 H         1 UNK         0.0847 
     90 H90        23.5084  -25.3438  -41.2631 H         1 UNK         0.3040 
     91 H91        26.4738  -25.4102  -40.8004 H         1 UNK         0.1015 
     92 H92        24.8937  -24.6410  -43.3178 H         1 UNK         0.0786 
     93 H93        26.6441  -24.7855  -43.2125 H         1 UNK         0.0786 
     94 H94        25.8117  -23.5453  -42.2890 H         1 UNK         0.0786 
     95 H95        23.7956  -26.7734  -42.7882 H         1 UNK         0.3172 
     96 H96        25.3570  -29.2375  -43.3632 H         1 UNK         0.0595 
     97 H97        23.5355  -29.6162  -45.0201 H         1 UNK         0.0839 
     98 H98        24.2850  -28.0483  -45.2723 H         1 UNK         0.0839 
     99 H99        22.7114  -28.1577  -44.4863 H         1 UNK         0.0839 
    100 H100       25.1532  -29.5807  -40.9292 H         1 UNK         0.2998 
    101 H101       22.7325  -30.0785  -39.6111 H         1 UNK         0.0822 
    102 H102       24.8650  -29.7157  -38.4276 H         1 UNK         0.0787 
    103 H103       24.1744  -31.2529  -37.9335 H         1 UNK         0.0787 
    104 H104       25.5208  -31.2258  -39.0650 H         1 UNK         0.0787 
    105 H105       21.2443  -31.5140  -39.9675 H         1 UNK         0.3055 
    106 H106       20.0340  -33.2884  -40.3381 H         1 UNK         0.1106 
    107 H107       20.8922  -35.5699  -39.8940 H         1 UNK         0.0828 
    108 H108       22.5487  -34.9878  -39.9161 H         1 UNK         0.0828 
    109 H109       21.4387  -34.4519  -38.6558 H         1 UNK         0.0828 
    110 H110       22.9762  -33.3679  -42.2487 H         1 UNK         0.2931 
    111 H111       23.5543  -33.9747  -44.2370 H         1 UNK         0.0412 
    112 H112       22.0984  -36.2651  -42.8574 H         1 UNK         0.3472 
    113 H113       21.8647  -37.3752  -44.1858 H         1 UNK         0.3472 
    114 H114       22.4222  -33.0355  -46.1633 H         1 UNK         0.0970 
    115 H115       22.4759  -31.9328  -44.8347 H         1 UNK         0.0970 
    116 H116       20.8990  -30.4469  -44.5167 H         1 UNK         0.0612 
    117 H117       19.8517  -30.3232  -45.9000 H         1 UNK         0.0612 
@<TRIPOS>BOND
     1    1    2 1    
     2    1   62 1    
     3    1   63 1    
     4    1   64 1    
     5    2    3 2    
     6    2    4 am   BACKBONE|DICT|INTERRES
     7    4    5 1    
     8    4   65 1    
     9    5    6 1    
    10    5   25 1    
    11    5   66 1    
    12    6    7 1    
    13    6   67 1    
    14    6   68 1    
    15    7    8 1    
    16    8    9 1    
    17    8   69 1    
    18    8   70 1    
    19    9   10 ar   
    20    9   14 ar   
    21   10   11 ar   
    22   10   71 1    
    23   11   12 ar   
    24   11   61 1    
    25   12   13 ar   
    26   12   72 1    
    27   13   14 ar   
    28   13   15 1    
    29   14   73 1    
    30   15   16 1    
    31   15   74 1    
    32   15   75 1    
    33   16   17 1    
    34   17   18 1    
    35   17   76 1    
    36   17   77 1    
    37   18   19 1    
    38   18   27 1    
    39   18   78 1    
    40   19   20 am   BACKBONE|DICT|INTERRES
    41   19   79 1    
    42   20   21 2    
    43   20   22 1    
    44   22   23 1    
    45   22   24 1    
    46   22   80 1    
    47   23   81 1    
    48   23   82 1    
    49   23   83 1    
    50   24   25 am   BACKBONE|DICT|INTERRES
    51   24   84 1    
    52   25   26 2    
    53   27   28 2    
    54   27   29 am   BACKBONE|DICT|INTERRES
    55   29   30 1    
    56   29   85 1    
    57   30   31 1    
    58   30   32 1    
    59   30   86 1    
    60   31   87 1    
    61   31   88 1    
    62   31   89 1    
    63   32   33 2    
    64   32   34 am   BACKBONE|DICT|INTERRES
    65   34   35 1    
    66   34   90 1    
    67   35   36 1    
    68   35   37 1    
    69   35   91 1    
    70   36   92 1    
    71   36   93 1    
    72   36   94 1    
    73   37   38 2    
    74   37   39 am   BACKBONE|DICT|INTERRES
    75   39   40 1    
    76   39   95 1    
    77   40   41 1    
    78   40   42 1    
    79   40   96 1    
    80   41   97 1    
    81   41   98 1    
    82   41   99 1    
    83   42   43 2    
    84   42   44 am   BACKBONE|DICT|INTERRES
    85   44   45 1    
    86   44  100 1    
    87   45   46 1    
    88   45   47 1    
    89   45  101 1    
    90   46  102 1    
    91   46  103 1    
    92   46  104 1    
    93   47   48 2    
    94   47   49 am   BACKBONE|DICT|INTERRES
    95   49   50 1    
    96   49  105 1    
    97   50   51 1    
    98   50   52 1    
    99   50  106 1    
   100   51  107 1    
   101   51  108 1    
   102   51  109 1    
   103   52   53 2    
   104   52   54 am   BACKBONE|DICT|INTERRES
   105   54   55 1    
   106   54  110 1    
   107   55   56 1    
   108   55   59 1    
   109   55  111 1    
   110   56   57 am   BACKBONE|DICT|INTERRES
   111   56   58 2    
   112   57  112 1    
   113   57  113 1    
   114   59   60 1    
   115   59  114 1    
   116   59  115 1    
   117   60   61 1    
   118   61  116 1    
   119   61  117 1    
@<TRIPOS>SUBSTRUCTURE
     1 UNK         1 GROUP             0       ****    0 ROOT    
