@<TRIPOS>MOLECULE
3R8
117   119    1
SMALL
USER_CHARGES


@<TRIPOS>ATOM
      1 CA         18.9546  -22.0308  -45.1237 C.3       0 UNK        -0.2013 
      2 C          19.8911  -23.1971  -45.4019 C.2       0 UNK         0.4866 
      3 O          21.1076  -23.0456  -45.2831 O.2       0 UNK        -0.5176 
      4 N          19.3327  -24.3542  -45.7786 N.am      1 UNK        -0.4884 
      5 CA         20.0570  -25.6111  -45.9963 C.3       1 UNK         0.0853 
      6 C6         19.4118  -26.4580  -47.1275 C.3       10 UNK        -0.0849 
      7 S7         17.6638  -26.8992  -46.8307 S.3       10 UNK        -0.2776 
      8 C8         17.5956  -28.6576  -47.3230 C.3       10 UNK         0.0316 
      9 C9         17.3949  -29.5823  -46.1291 C.ar      10 UNK        -0.0863 
     10 C10        18.2902  -30.6240  -45.8614 C.ar      10 UNK        -0.1009 
     11 C11        18.0688  -31.4949  -44.7859 C.ar      10 UNK        -0.0712 
     12 C12        16.9422  -31.3135  -43.9772 C.ar      10 UNK        -0.0894 
     13 C13        16.0483  -30.2701  -44.2300 C.ar      10 UNK        -0.0745 
     14 C14        16.2726  -29.4199  -45.3141 C.ar      10 UNK        -0.0972 
     15 C15        14.8394  -30.0490  -43.3343 C.3       10 UNK         0.0209 
     16 S16        15.3019  -29.4362  -41.6828 S.3       10 UNK        -0.2568 
     17 C17        16.3463  -27.9835  -42.0542 C.3       10 UNK        -0.0983 
     18 CA         17.8071  -28.2010  -41.5614 C.3       3 UNK         0.0876 
     19 N          18.7767  -28.3325  -42.6620 N.am      3 UNK        -0.4424 
     20 C          20.0480  -28.7332  -42.4966 C.2       2 UNK         0.4918 
     21 O          20.4763  -29.1776  -41.4311 O.2       2 UNK        -0.4875 
     22 CA         21.0512  -28.5159  -43.6488 C.3       2 UNK         0.0481 
     23 CB         21.5850  -29.8383  -44.2083 C.3       2 UNK        -0.1831 
     24 N          20.6153  -27.6647  -44.7594 N.am      2 UNK        -0.4498 
     25 C          20.2695  -26.3739  -44.6672 C.2       1 UNK         0.5027 
     26 O          20.1351  -25.7961  -43.5856 O.2       1 UNK        -0.4969 
     27 C          18.2192  -27.1244  -40.5265 C.2       3 UNK         0.5005 
     28 O          17.8021  -27.2140  -39.3713 O.2       3 UNK        -0.5279 
     29 N          19.0702  -26.1640  -40.9254 N.am      4 UNK        -0.4463 
     30 CA         19.7368  -25.2001  -40.0413 C.3       4 UNK         0.0283 
     31 CB         20.1145  -23.9513  -40.8588 C.3       4 UNK        -0.1875 
     32 C          20.9707  -25.7891  -39.3185 C.2       4 UNK         0.4949 
     33 O          21.7356  -25.0283  -38.7267 O.2       4 UNK        -0.5039 
     34 N          21.1553  -27.1166  -39.3943 N.am      5 UNK        -0.4663 
     35 CA         22.2256  -27.9415  -38.8197 C.3       5 UNK         0.0242 
     36 CB         22.3770  -27.7242  -37.2992 C.3       5 UNK        -0.1982 
     37 C          23.5672  -27.8503  -39.5667 C.2       5 UNK         0.5017 
     38 O          24.5474  -28.4302  -39.0974 O.2       5 UNK        -0.5012 
     39 N          23.5945  -27.1800  -40.7283 N.am      6 UNK        -0.4439 
     40 CA         24.7497  -27.0776  -41.6242 C.3       6 UNK         0.0297 
     41 CB         24.4255  -26.1047  -42.7716 C.3       6 UNK        -0.2006 
     42 C          25.1590  -28.4640  -42.1526 C.2       6 UNK         0.4892 
     43 O          24.4486  -29.0321  -42.9816 O.2       6 UNK        -0.5089 
     44 N          26.2551  -29.0031  -41.5993 N.am      7 UNK        -0.4243 
     45 CA         26.7827  -30.3621  -41.7983 C.3       7 UNK         0.0196 
     46 CB         27.2006  -30.5870  -43.2676 C.3       7 UNK        -0.2007 
     47 C          25.8597  -31.4877  -41.2792 C.2       7 UNK         0.5020 
     48 O          26.1008  -32.6521  -41.5991 O.2       7 UNK        -0.5147 
     49 N          24.8306  -31.1362  -40.4902 N.am      8 UNK        -0.4734 
     50 CA         23.8437  -32.0140  -39.8396 C.3       8 UNK         0.0238 
     51 CB         24.4935  -32.7077  -38.6244 C.3       8 UNK        -0.1912 
     52 C          23.1358  -33.0175  -40.7796 C.2       8 UNK         0.5038 
     53 O          22.7805  -34.1123  -40.3389 O.2       8 UNK        -0.5046 
     54 N          22.9637  -32.6364  -42.0536 N.am      9 UNK        -0.4200 
     55 CA         22.4563  -33.4781  -43.1553 C.3       9 UNK         0.0839 
     56 C          23.4041  -34.6531  -43.5543 C.2       9 UNK         0.5513 
     57 N          24.6722  -34.6559  -43.1603 N.am      9 UNK        -0.7519 
     58 O          22.9963  -35.5671  -44.2668 O.2       9 UNK        -0.4960 
     59 C59        20.9788  -33.9393  -42.9624 C.3       10 UNK        -0.0876 
     60 S60        19.8010  -32.5481  -42.8715 S.3       10 UNK        -0.2414 
     61 C61        19.0222  -32.6534  -44.5167 C.3       10 UNK         0.0169 
     62 H62        17.9109  -22.2964  -45.2917 H         1 UNK         0.0903 
     63 H63        19.0593  -21.7064  -44.0887 H         1 UNK         0.0903 
     64 H64        19.1989  -21.1896  -45.7717 H         1 UNK         0.0903 
     65 H65        18.3267  -24.4278  -45.8402 H         1 UNK         0.3096 
     66 H66        21.0647  -25.3620  -46.3371 H         1 UNK         0.1121 
     67 H67        20.0044  -27.3498  -47.3340 H         1 UNK         0.0849 
     68 H68        19.4433  -25.8857  -48.0562 H         1 UNK         0.0849 
     69 H69        16.7531  -28.7898  -48.0034 H         1 UNK         0.0865 
     70 H70        18.4816  -28.9374  -47.8940 H         1 UNK         0.0865 
     71 H71        19.1497  -30.7688  -46.5013 H         1 UNK         0.1346 
     72 H72        16.7679  -31.9781  -43.1419 H         1 UNK         0.1412 
     73 H73        15.5759  -28.6188  -45.5218 H         1 UNK         0.1426 
     74 H74        14.2944  -30.9876  -43.2244 H         1 UNK         0.0716 
     75 H75        14.1429  -29.3428  -43.7891 H         1 UNK         0.0716 
     76 H76        15.8684  -27.1289  -41.5704 H         1 UNK         0.0695 
     77 H77        16.3137  -27.7471  -43.1175 H         1 UNK         0.0695 
     78 H78        17.8577  -29.1441  -41.0118 H         1 UNK         0.0983 
     79 H79        18.4911  -27.9929  -43.5685 H         1 UNK         0.3095 
     80 H80        21.8980  -28.0059  -43.1895 H         1 UNK         0.0454 
     81 H81        22.4308  -29.6752  -44.8763 H         1 UNK         0.0851 
     82 H82        20.8239  -30.3884  -44.7551 H         1 UNK         0.0851 
     83 H83        21.9393  -30.4755  -43.4003 H         1 UNK         0.0851 
     84 H84        20.6719  -28.0793  -45.6774 H         1 UNK         0.2976 
     85 H85        19.3651  -26.1422  -41.9003 H         1 UNK         0.3116 
     86 H86        19.0308  -24.8915  -39.2677 H         1 UNK         0.0646 
     87 H87        19.2526  -23.5448  -41.3881 H         1 UNK         0.0847 
     88 H88        20.8875  -24.1693  -41.5966 H         1 UNK         0.0847 
     89 H89        20.4976  -23.1604  -40.2128 H         1 UNK         0.0847 
     90 H90        20.4911  -27.6441  -39.9490 H         1 UNK         0.3040 
     91 H91        21.8937  -28.9714  -38.9607 H         1 UNK         0.1015 
     92 H92        22.8058  -26.7493  -37.0667 H         1 UNK         0.0786 
     93 H93        23.0357  -28.4757  -36.8620 H         1 UNK         0.0786 
     94 H94        21.4170  -27.8015  -36.7887 H         1 UNK         0.0786 
     95 H95        22.7341  -26.7571  -41.0416 H         1 UNK         0.3172 
     96 H96        25.5799  -26.6562  -41.0534 H         1 UNK         0.0595 
     97 H97        23.5877  -26.4466  -43.3791 H         1 UNK         0.0839 
     98 H98        25.2819  -25.9943  -43.4380 H         1 UNK         0.0839 
     99 H99        24.1807  -25.1117  -42.3940 H         1 UNK         0.0839 
    100 H100       26.7292  -28.4619  -40.8883 H         1 UNK         0.2998 
    101 H101       27.6862  -30.4215  -41.1897 H         1 UNK         0.0822 
    102 H102       27.8572  -29.7917  -43.6202 H         1 UNK         0.0787 
    103 H103       27.7434  -31.5262  -43.3810 H         1 UNK         0.0787 
    104 H104       26.3384  -30.6315  -43.9336 H         1 UNK         0.0787 
    105 H105       24.7490  -30.1516  -40.2589 H         1 UNK         0.3055 
    106 H106       23.0551  -31.3606  -39.4631 H         1 UNK         0.1106 
    107 H107       25.2669  -33.4126  -38.9317 H         1 UNK         0.0828 
    108 H108       23.7559  -33.2639  -38.0444 H         1 UNK         0.0828 
    109 H109       24.9491  -31.9821  -37.9505 H         1 UNK         0.0828 
    110 H110       23.3170  -31.7293  -42.3215 H         1 UNK         0.2931 
    111 H111       22.4695  -32.8290  -44.0314 H         1 UNK         0.0412 
    112 H112       25.2693  -35.4178  -43.4395 H         1 UNK         0.3472 
    113 H113       25.0496  -33.9103  -42.5816 H         1 UNK         0.3472 
    114 H114       20.8759  -34.5402  -42.0584 H         1 UNK         0.0970 
    115 H115       20.6682  -34.5936  -43.7786 H         1 UNK         0.0970 
    116 H116       19.8048  -32.6892  -45.2762 H         1 UNK         0.0612 
    117 H117       18.4712  -33.5918  -44.5926 H         1 UNK         0.0612 
@<TRIPOS>BOND
     1    1    2 1    
     2    1   62 1    
     3    1   63 1    
     4    1   64 1    
     5    2    3 2    
     6    2    4 am   BACKBONE|DICT|INTERRES
     7    4    5 1    
     8    4   65 1    
     9    5    6 1    
    10    5   25 1    
    11    5   66 1    
    12    6    7 1    
    13    6   67 1    
    14    6   68 1    
    15    7    8 1    
    16    8    9 1    
    17    8   69 1    
    18    8   70 1    
    19    9   10 ar   
    20    9   14 ar   
    21   10   11 ar   
    22   10   71 1    
    23   11   12 ar   
    24   11   61 1    
    25   12   13 ar   
    26   12   72 1    
    27   13   14 ar   
    28   13   15 1    
    29   14   73 1    
    30   15   16 1    
    31   15   74 1    
    32   15   75 1    
    33   16   17 1    
    34   17   18 1    
    35   17   76 1    
    36   17   77 1    
    37   18   19 1    
    38   18   27 1    
    39   18   78 1    
    40   19   20 am   BACKBONE|DICT|INTERRES
    41   19   79 1    
    42   20   21 2    
    43   20   22 1    
    44   22   23 1    
    45   22   24 1    
    46   22   80 1    
    47   23   81 1    
    48   23   82 1    
    49   23   83 1    
    50   24   25 am   BACKBONE|DICT|INTERRES
    51   24   84 1    
    52   25   26 2    
    53   27   28 2    
    54   27   29 am   BACKBONE|DICT|INTERRES
    55   29   30 1    
    56   29   85 1    
    57   30   31 1    
    58   30   32 1    
    59   30   86 1    
    60   31   87 1    
    61   31   88 1    
    62   31   89 1    
    63   32   33 2    
    64   32   34 am   BACKBONE|DICT|INTERRES
    65   34   35 1    
    66   34   90 1    
    67   35   36 1    
    68   35   37 1    
    69   35   91 1    
    70   36   92 1    
    71   36   93 1    
    72   36   94 1    
    73   37   38 2    
    74   37   39 am   BACKBONE|DICT|INTERRES
    75   39   40 1    
    76   39   95 1    
    77   40   41 1    
    78   40   42 1    
    79   40   96 1    
    80   41   97 1    
    81   41   98 1    
    82   41   99 1    
    83   42   43 2    
    84   42   44 am   BACKBONE|DICT|INTERRES
    85   44   45 1    
    86   44  100 1    
    87   45   46 1    
    88   45   47 1    
    89   45  101 1    
    90   46  102 1    
    91   46  103 1    
    92   46  104 1    
    93   47   48 2    
    94   47   49 am   BACKBONE|DICT|INTERRES
    95   49   50 1    
    96   49  105 1    
    97   50   51 1    
    98   50   52 1    
    99   50  106 1    
   100   51  107 1    
   101   51  108 1    
   102   51  109 1    
   103   52   53 2    
   104   52   54 am   BACKBONE|DICT|INTERRES
   105   54   55 1    
   106   54  110 1    
   107   55   56 1    
   108   55   59 1    
   109   55  111 1    
   110   56   57 am   BACKBONE|DICT|INTERRES
   111   56   58 2    
   112   57  112 1    
   113   57  113 1    
   114   59   60 1    
   115   59  114 1    
   116   59  115 1    
   117   60   61 1    
   118   61  116 1    
   119   61  117 1    
@<TRIPOS>SUBSTRUCTURE
     1 UNK         1 GROUP             0       ****    0 ROOT    
