@<TRIPOS>MOLECULE
3R8
117   119    1
SMALL
USER_CHARGES


@<TRIPOS>ATOM
      1 CA         16.0268  -25.1463  -40.0188 C.3       0 UNK        -0.2013 
      2 C          15.8636  -25.7015  -41.4259 C.2       0 UNK         0.4866 
      3 O          14.7591  -26.0873  -41.8088 O.2       0 UNK        -0.5176 
      4 N          16.9539  -25.7429  -42.1968 N.am      1 UNK        -0.4884 
      5 CA         17.0113  -26.2231  -43.5761 C.3       1 UNK         0.0853 
      6 C6         16.9697  -27.7744  -43.6669 C.3       10 UNK        -0.0849 
      7 S7         15.8605  -28.3866  -44.9781 S.3       10 UNK        -0.2776 
      8 C8         17.0066  -28.8946  -46.3065 C.3       10 UNK         0.0316 
      9 C9         18.1467  -29.8055  -45.8565 C.ar      10 UNK        -0.0863 
     10 C10        17.9265  -30.8751  -44.9804 C.ar      10 UNK        -0.1009 
     11 C11        18.9767  -31.7219  -44.6154 C.ar      10 UNK        -0.0712 
     12 C12        20.2512  -31.4948  -45.1423 C.ar      10 UNK        -0.0894 
     13 C13        20.4985  -30.4257  -46.0078 C.ar      10 UNK        -0.0745 
     14 C14        19.4317  -29.5893  -46.3633 C.ar      10 UNK        -0.0972 
     15 C15        21.9140  -30.2611  -46.5706 C.3       10 UNK         0.0209 
     16 S16        22.2291  -28.7060  -47.4744 S.3       10 UNK        -0.2568 
     17 C17        23.1850  -27.7174  -46.2705 C.3       10 UNK        -0.0983 
     18 CA         22.3749  -27.0310  -45.1304 C.3       3 UNK         0.0876 
     19 N          21.0649  -26.5287  -45.5505 N.am      3 UNK        -0.4424 
     20 C          20.8344  -25.3139  -46.0571 C.2       2 UNK         0.4918 
     21 O          21.7168  -24.4813  -46.2687 O.2       2 UNK        -0.4875 
     22 CA         19.3693  -24.9457  -46.3701 C.3       2 UNK         0.0481 
     23 CB         19.0683  -25.2237  -47.8519 C.3       2 UNK        -0.1831 
     24 N          18.3331  -25.5874  -45.5439 N.am      2 UNK        -0.4498 
     25 C          18.2894  -25.6407  -44.2047 C.2       1 UNK         0.5027 
     26 O          19.2132  -25.2812  -43.4671 O.2       1 UNK        -0.4969 
     27 C          22.2623  -27.8452  -43.8257 C.2       3 UNK         0.5005 
     28 O          23.1003  -28.7127  -43.5652 O.2       3 UNK        -0.5279 
     29 N          21.2600  -27.5245  -42.9884 N.am      4 UNK        -0.4463 
     30 CA         21.0061  -28.1955  -41.7078 C.3       4 UNK         0.0283 
     31 CB         19.7025  -27.6797  -41.0811 C.3       4 UNK        -0.1875 
     32 C          22.1487  -28.0667  -40.6922 C.2       4 UNK         0.4949 
     33 O          22.3580  -28.9956  -39.9155 O.2       4 UNK        -0.5039 
     34 N          22.8754  -26.9425  -40.7272 N.am      5 UNK        -0.4663 
     35 CA         24.0427  -26.6920  -39.8779 C.3       5 UNK         0.0242 
     36 CB         24.4035  -25.1992  -39.9435 C.3       5 UNK        -0.1982 
     37 C          25.2613  -27.5569  -40.2477 C.2       5 UNK         0.5017 
     38 O          26.0839  -27.8347  -39.3749 O.2       5 UNK        -0.5012 
     39 N          25.3577  -27.9597  -41.5224 N.am      6 UNK        -0.4439 
     40 CA         26.4234  -28.8164  -42.0406 C.3       6 UNK         0.0297 
     41 CB         26.6852  -28.4783  -43.5181 C.3       6 UNK        -0.2006 
     42 C          26.0712  -30.3010  -41.8767 C.2       6 UNK         0.4892 
     43 O          26.9146  -31.0778  -41.4281 O.2       6 UNK        -0.5089 
     44 N          24.8363  -30.6664  -42.2462 N.am      7 UNK        -0.4243 
     45 CA         24.3425  -32.0453  -42.2275 C.3       7 UNK         0.0196 
     46 CB         23.2090  -32.1623  -43.2532 C.3       7 UNK        -0.2007 
     47 C          23.8698  -32.5312  -40.8455 C.2       7 UNK         0.5020 
     48 O          23.6679  -33.7345  -40.6806 O.2       7 UNK        -0.5147 
     49 N          23.6860  -31.6042  -39.8942 N.am      8 UNK        -0.4734 
     50 CA         23.1260  -31.8017  -38.5497 C.3       8 UNK         0.0238 
     51 CB         23.9973  -32.7552  -37.7029 C.3       8 UNK        -0.1912 
     52 C          21.6349  -32.1972  -38.5805 C.2       8 UNK         0.5038 
     53 O          21.1914  -32.9922  -37.7493 O.2       8 UNK        -0.5046 
     54 N          20.8890  -31.6195  -39.5322 N.am      9 UNK        -0.4200 
     55 CA         19.4329  -31.7901  -39.6879 C.3       9 UNK         0.0839 
     56 C          18.5918  -30.8552  -38.7710 C.2       9 UNK         0.5513 
     57 N          19.1897  -29.9278  -38.0316 N.am      9 UNK        -0.7519 
     58 O          17.3714  -30.9820  -38.7213 O.2       9 UNK        -0.4960 
     59 C59        18.9797  -31.6836  -41.1706 C.3       10 UNK        -0.0876 
     60 S60        19.7878  -32.9299  -42.2268 S.3       10 UNK        -0.2414 
     61 C61        18.7243  -32.9203  -43.7072 C.3       10 UNK         0.0169 
     62 H62        15.7345  -25.8961  -39.2841 H         1 UNK         0.0903 
     63 H63        17.0563  -24.8540  -39.8125 H         1 UNK         0.0903 
     64 H64        15.3918  -24.2710  -39.8843 H         1 UNK         0.0903 
     65 H65        17.8359  -25.3624  -41.8731 H         1 UNK         0.3096 
     66 H66        16.1573  -25.7899  -44.1025 H         1 UNK         0.1121 
     67 H67        16.5832  -28.1995  -42.7393 H         1 UNK         0.0849 
     68 H68        17.9653  -28.2068  -43.7718 H         1 UNK         0.0849 
     69 H69        16.4336  -29.4167  -47.0739 H         1 UNK         0.0865 
     70 H70        17.3989  -27.9976  -46.7857 H         1 UNK         0.0865 
     71 H71        16.9320  -31.0577  -44.5969 H         1 UNK         0.1346 
     72 H72        21.0525  -32.1731  -44.8892 H         1 UNK         0.1412 
     73 H73        19.5843  -28.7799  -47.0620 H         1 UNK         0.1426 
     74 H74        22.1035  -31.0892  -47.2546 H         1 UNK         0.0716 
     75 H75        22.6416  -30.3588  -45.7647 H         1 UNK         0.0716 
     76 H76        23.6652  -26.9321  -46.8561 H         1 UNK         0.0695 
     77 H77        24.0130  -28.3163  -45.8883 H         1 UNK         0.0695 
     78 H78        22.9705  -26.1713  -44.8146 H         1 UNK         0.0983 
     79 H79        20.2893  -27.1622  -45.4283 H         1 UNK         0.3095 
     80 H80        19.2744  -23.8709  -46.2045 H         1 UNK         0.0454 
     81 H81        19.1051  -26.2899  -48.0786 H         1 UNK         0.0851 
     82 H82        19.7960  -24.7304  -48.4982 H         1 UNK         0.0851 
     83 H83        18.0845  -24.8512  -48.1374 H         1 UNK         0.0851 
     84 H84        17.5218  -25.9160  -46.0475 H         1 UNK         0.2976 
     85 H85        20.6536  -26.7453  -43.2241 H         1 UNK         0.3116 
     86 H86        20.8944  -29.2593  -41.9211 H         1 UNK         0.0646 
     87 H87        18.8358  -27.9789  -41.6630 H         1 UNK         0.0847 
     88 H88        19.6983  -26.5932  -40.9911 H         1 UNK         0.0847 
     89 H89        19.5577  -28.0839  -40.0792 H         1 UNK         0.0847 
     90 H90        22.6185  -26.2210  -41.3851 H         1 UNK         0.3040 
     91 H91        23.7726  -26.9353  -38.8475 H         1 UNK         0.1015 
     92 H92        25.2547  -24.9751  -39.2988 H         1 UNK         0.0786 
     93 H93        23.5742  -24.5752  -39.6095 H         1 UNK         0.0786 
     94 H94        24.6712  -24.8910  -40.9550 H         1 UNK         0.0786 
     95 H95        24.6027  -27.7360  -42.1568 H         1 UNK         0.3172 
     96 H96        27.3454  -28.6238  -41.4874 H         1 UNK         0.0595 
     97 H97        25.8058  -28.6494  -44.1396 H         1 UNK         0.0839 
     98 H98        27.4914  -29.0934  -43.9202 H         1 UNK         0.0839 
     99 H99        26.9829  -27.4366  -43.6391 H         1 UNK         0.0839 
    100 H100       24.2121  -29.9656  -42.6395 H         1 UNK         0.2998 
    101 H101       25.1495  -32.7113  -42.5407 H         1 UNK         0.0822 
    102 H102       23.5690  -31.9523  -44.2597 H         1 UNK         0.0787 
    103 H103       22.7867  -33.1682  -43.2638 H         1 UNK         0.0787 
    104 H104       22.3996  -31.4658  -43.0298 H         1 UNK         0.0787 
    105 H105       23.8299  -30.6357  -40.1535 H         1 UNK         0.3055 
    106 H106       23.1594  -30.8243  -38.0654 H         1 UNK         0.1106 
    107 H107       23.9477  -33.7828  -38.0634 H         1 UNK         0.0828 
    108 H108       23.6672  -32.7632  -36.6635 H         1 UNK         0.0828 
    109 H109       25.0426  -32.4468  -37.7074 H         1 UNK         0.0828 
    110 H110       21.3353  -30.9383  -40.1306 H         1 UNK         0.2931 
    111 H111       19.1859  -32.8023  -39.3617 H         1 UNK         0.0412 
    112 H112       20.1902  -29.8135  -38.0634 H         1 UNK         0.3472 
    113 H113       18.6317  -29.3385  -37.4341 H         1 UNK         0.3472 
    114 H114       19.1747  -30.6914  -41.5755 H         1 UNK         0.0970 
    115 H115       17.9005  -31.8312  -41.2449 H         1 UNK         0.0970 
    116 H116       18.9199  -33.8298  -44.2765 H         1 UNK         0.0612 
    117 H117       17.6782  -32.9713  -43.4017 H         1 UNK         0.0612 
@<TRIPOS>BOND
     1    1    2 1    
     2    1   62 1    
     3    1   63 1    
     4    1   64 1    
     5    2    3 2    
     6    2    4 am   BACKBONE|DICT|INTERRES
     7    4    5 1    
     8    4   65 1    
     9    5    6 1    
    10    5   25 1    
    11    5   66 1    
    12    6    7 1    
    13    6   67 1    
    14    6   68 1    
    15    7    8 1    
    16    8    9 1    
    17    8   69 1    
    18    8   70 1    
    19    9   10 ar   
    20    9   14 ar   
    21   10   11 ar   
    22   10   71 1    
    23   11   12 ar   
    24   11   61 1    
    25   12   13 ar   
    26   12   72 1    
    27   13   14 ar   
    28   13   15 1    
    29   14   73 1    
    30   15   16 1    
    31   15   74 1    
    32   15   75 1    
    33   16   17 1    
    34   17   18 1    
    35   17   76 1    
    36   17   77 1    
    37   18   19 1    
    38   18   27 1    
    39   18   78 1    
    40   19   20 am   BACKBONE|DICT|INTERRES
    41   19   79 1    
    42   20   21 2    
    43   20   22 1    
    44   22   23 1    
    45   22   24 1    
    46   22   80 1    
    47   23   81 1    
    48   23   82 1    
    49   23   83 1    
    50   24   25 am   BACKBONE|DICT|INTERRES
    51   24   84 1    
    52   25   26 2    
    53   27   28 2    
    54   27   29 am   BACKBONE|DICT|INTERRES
    55   29   30 1    
    56   29   85 1    
    57   30   31 1    
    58   30   32 1    
    59   30   86 1    
    60   31   87 1    
    61   31   88 1    
    62   31   89 1    
    63   32   33 2    
    64   32   34 am   BACKBONE|DICT|INTERRES
    65   34   35 1    
    66   34   90 1    
    67   35   36 1    
    68   35   37 1    
    69   35   91 1    
    70   36   92 1    
    71   36   93 1    
    72   36   94 1    
    73   37   38 2    
    74   37   39 am   BACKBONE|DICT|INTERRES
    75   39   40 1    
    76   39   95 1    
    77   40   41 1    
    78   40   42 1    
    79   40   96 1    
    80   41   97 1    
    81   41   98 1    
    82   41   99 1    
    83   42   43 2    
    84   42   44 am   BACKBONE|DICT|INTERRES
    85   44   45 1    
    86   44  100 1    
    87   45   46 1    
    88   45   47 1    
    89   45  101 1    
    90   46  102 1    
    91   46  103 1    
    92   46  104 1    
    93   47   48 2    
    94   47   49 am   BACKBONE|DICT|INTERRES
    95   49   50 1    
    96   49  105 1    
    97   50   51 1    
    98   50   52 1    
    99   50  106 1    
   100   51  107 1    
   101   51  108 1    
   102   51  109 1    
   103   52   53 2    
   104   52   54 am   BACKBONE|DICT|INTERRES
   105   54   55 1    
   106   54  110 1    
   107   55   56 1    
   108   55   59 1    
   109   55  111 1    
   110   56   57 am   BACKBONE|DICT|INTERRES
   111   56   58 2    
   112   57  112 1    
   113   57  113 1    
   114   59   60 1    
   115   59  114 1    
   116   59  115 1    
   117   60   61 1    
   118   61  116 1    
   119   61  117 1    
@<TRIPOS>SUBSTRUCTURE
     1 UNK         1 GROUP             0       ****    0 ROOT    
