@<TRIPOS>MOLECULE
3R8
117   119    1
SMALL
USER_CHARGES


@<TRIPOS>ATOM
      1 CA         14.1578  -24.4227  -43.4235 C.3       0 UNK        -0.2013 
      2 C          15.5181  -24.8224  -43.9731 C.2       0 UNK         0.4866 
      3 O          16.3885  -25.2241  -43.2040 O.2       0 UNK        -0.5176 
      4 N          15.7141  -24.6810  -45.2921 N.am      1 UNK        -0.4884 
      5 CA         16.8785  -25.0751  -46.1107 C.3       1 UNK         0.0853 
      6 C6         16.9798  -26.6216  -46.3097 C.3       10 UNK        -0.0849 
      7 S7         18.0522  -27.5413  -45.1483 S.3       10 UNK        -0.2776 
      8 C8         16.8525  -28.4165  -44.0946 C.3       10 UNK         0.0316 
      9 C9         17.5744  -28.9591  -42.8739 C.ar      10 UNK        -0.0863 
     10 C10        18.0996  -30.2532  -42.8821 C.ar      10 UNK        -0.1009 
     11 C11        18.8884  -30.7027  -41.8195 C.ar      10 UNK        -0.0712 
     12 C12        19.1488  -29.8471  -40.7455 C.ar      10 UNK        -0.0894 
     13 C13        18.6232  -28.5513  -40.7214 C.ar      10 UNK        -0.0745 
     14 C14        17.7997  -28.1301  -41.7712 C.ar      10 UNK        -0.0972 
     15 C15        18.9780  -27.6049  -39.5780 C.3       10 UNK         0.0209 
     16 S16        19.5212  -25.9505  -40.1370 S.3       10 UNK        -0.2568 
     17 C17        21.0145  -26.3073  -41.1332 C.3       10 UNK        -0.0983 
     18 CA         20.7117  -26.4261  -42.6532 C.3       3 UNK         0.0876 
     19 N          19.9690  -25.2789  -43.1975 N.am      3 UNK        -0.4424 
     20 C          20.4312  -24.0367  -43.4150 C.2       2 UNK         0.4918 
     21 O          21.5762  -23.6715  -43.1456 O.2       2 UNK        -0.4875 
     22 CA         19.4430  -23.0149  -44.0190 C.3       2 UNK         0.0481 
     23 CB         20.1335  -22.0037  -44.9588 C.3       2 UNK        -0.1831 
     24 N          18.2746  -23.6336  -44.6572 N.am      2 UNK        -0.4498 
     25 C          18.2283  -24.3902  -45.7640 C.2       1 UNK         0.5027 
     26 O          19.1965  -24.5724  -46.5032 O.2       1 UNK        -0.4969 
     27 C          21.9514  -26.7372  -43.5184 C.2       3 UNK         0.5005 
     28 O          23.0871  -26.6868  -43.0406 O.2       3 UNK        -0.5279 
     29 N          21.6912  -26.9978  -44.8091 N.am      4 UNK        -0.4463 
     30 CA         22.6687  -27.0906  -45.8997 C.3       4 UNK         0.0283 
     31 CB         21.9161  -27.3521  -47.2144 C.3       4 UNK        -0.1875 
     32 C          23.7983  -28.1219  -45.7171 C.2       4 UNK         0.4949 
     33 O          24.8687  -27.9354  -46.2963 O.2       4 UNK        -0.5039 
     34 N          23.5568  -29.1717  -44.9234 N.am      5 UNK        -0.4663 
     35 CA         24.5392  -30.1990  -44.5672 C.3       5 UNK         0.0242 
     36 CB         24.1326  -31.5363  -45.2131 C.3       5 UNK        -0.1982 
     37 C          24.7137  -30.2795  -43.0395 C.2       5 UNK         0.5017 
     38 O          24.9296  -31.3674  -42.5012 O.2       5 UNK        -0.5012 
     39 N          24.6236  -29.1170  -42.3737 N.am      6 UNK        -0.4439 
     40 CA         24.6535  -28.9110  -40.9219 C.3       6 UNK         0.0297 
     41 CB         25.9800  -29.4131  -40.3058 C.3       6 UNK        -0.2006 
     42 C          23.4004  -29.4889  -40.2378 C.2       6 UNK         0.4892 
     43 O          22.4071  -29.7691  -40.9083 O.2       6 UNK        -0.5089 
     44 N          23.4461  -29.6186  -38.9058 N.am      7 UNK        -0.4243 
     45 CA         22.3396  -30.1352  -38.0962 C.3       7 UNK         0.0196 
     46 CB         22.6080  -29.8286  -36.6141 C.3       7 UNK        -0.2007 
     47 C          22.0828  -31.6393  -38.2963 C.2       7 UNK         0.5020 
     48 O          20.9411  -32.0777  -38.1571 O.2       7 UNK        -0.5147 
     49 N          23.1457  -32.4020  -38.5845 N.am      8 UNK        -0.4734 
     50 CA         23.0986  -33.8592  -38.7079 C.3       8 UNK         0.0238 
     51 CB         24.4966  -34.4395  -38.4349 C.3       8 UNK        -0.1912 
     52 C          22.5730  -34.3399  -40.0687 C.2       8 UNK         0.5038 
     53 O          21.7937  -35.2931  -40.1010 O.2       8 UNK        -0.5046 
     54 N          23.0336  -33.7064  -41.1576 N.am      9 UNK        -0.4200 
     55 CA         22.7966  -34.1217  -42.5537 C.3       9 UNK         0.0839 
     56 C          23.3610  -35.5315  -42.9160 C.2       9 UNK         0.5513 
     57 N          24.3690  -36.0346  -42.2127 N.am      9 UNK        -0.7519 
     58 O          22.9066  -36.1704  -43.8619 O.2       9 UNK        -0.4960 
     59 C59        21.3262  -33.9109  -43.0154 C.3       10 UNK        -0.0876 
     60 S60        20.8707  -32.1472  -43.0507 S.3       10 UNK        -0.2414 
     61 C61        19.4991  -32.0943  -41.8618 C.3       10 UNK         0.0169 
     62 H62        13.4862  -24.0713  -44.2066 H         1 UNK         0.0903 
     63 H63        13.6893  -25.2752  -42.9325 H         1 UNK         0.0903 
     64 H64        14.2696  -23.6260  -42.6886 H         1 UNK         0.0903 
     65 H65        14.9548  -24.2894  -45.8335 H         1 UNK         0.3096 
     66 H66        16.6378  -24.6659  -47.0937 H         1 UNK         0.1121 
     67 H67        15.9858  -27.0713  -46.3233 H         1 UNK         0.0849 
     68 H68        17.3861  -26.8141  -47.3042 H         1 UNK         0.0849 
     69 H69        16.3866  -29.2239  -44.6614 H         1 UNK         0.0865 
     70 H70        16.0486  -27.7478  -43.7882 H         1 UNK         0.0865 
     71 H71        17.9380  -30.8961  -43.7367 H         1 UNK         0.1346 
     72 H72        19.7883  -30.1868  -39.9438 H         1 UNK         0.1412 
     73 H73        17.4030  -27.1240  -41.7692 H         1 UNK         0.1426 
     74 H74        19.7615  -28.0301  -38.9503 H         1 UNK         0.0716 
     75 H75        18.1016  -27.4873  -38.9397 H         1 UNK         0.0716 
     76 H76        21.4733  -27.2244  -40.7629 H         1 UNK         0.0695 
     77 H77        21.7367  -25.5096  -40.9514 H         1 UNK         0.0695 
     78 H78        20.0691  -27.2941  -42.7842 H         1 UNK         0.0983 
     79 H79        19.0027  -25.4638  -43.4332 H         1 UNK         0.3095 
     80 H80        19.0475  -22.4522  -43.1724 H         1 UNK         0.0454 
     81 H81        19.4169  -21.3009  -45.3833 H         1 UNK         0.0851 
     82 H82        20.6485  -22.4989  -45.7823 H         1 UNK         0.0851 
     83 H83        20.8791  -21.4173  -44.4207 H         1 UNK         0.0851 
     84 H84        17.4296  -23.6340  -44.0979 H         1 UNK         0.2976 
     85 H85        20.7202  -27.0082  -45.0929 H         1 UNK         0.3116 
     86 H86        23.1461  -26.1115  -45.9737 H         1 UNK         0.0646 
     87 H87        22.6048  -27.3930  -48.0596 H         1 UNK         0.0847 
     88 H88        21.1959  -26.5607  -47.4249 H         1 UNK         0.0847 
     89 H89        21.3760  -28.2993  -47.1875 H         1 UNK         0.0847 
     90 H90        22.6568  -29.2356  -44.4666 H         1 UNK         0.3040 
     91 H91        25.5255  -29.9346  -44.9546 H         1 UNK         0.1015 
     92 H92        24.1194  -31.4573  -46.3001 H         1 UNK         0.0786 
     93 H93        23.1407  -31.8518  -44.8934 H         1 UNK         0.0786 
     94 H94        24.8341  -32.3316  -44.9580 H         1 UNK         0.0786 
     95 H95        24.3448  -28.2955  -42.9025 H         1 UNK         0.3172 
     96 H96        24.6073  -27.8305  -40.7787 H         1 UNK         0.0595 
     97 H97        26.0263  -30.5018  -40.2637 H         1 UNK         0.0839 
     98 H98        26.1153  -29.0402  -39.2903 H         1 UNK         0.0839 
     99 H99        26.8377  -29.0678  -40.8832 H         1 UNK         0.0839 
    100 H100       24.2855  -29.3463  -38.4152 H         1 UNK         0.2998 
    101 H101       21.4323  -29.6054  -38.3883 H         1 UNK         0.0822 
    102 H102       23.5178  -30.3137  -36.2581 H         1 UNK         0.0787 
    103 H103       22.7077  -28.7567  -36.4418 H         1 UNK         0.0787 
    104 H104       21.7858  -30.1798  -35.9887 H         1 UNK         0.0787 
    105 H105       24.0453  -31.9555  -38.6854 H         1 UNK         0.3055 
    106 H106       22.4218  -34.2497  -37.9437 H         1 UNK         0.1106 
    107 H107       24.4894  -35.5277  -38.5131 H         1 UNK         0.0828 
    108 H108       25.2392  -34.0662  -39.1411 H         1 UNK         0.0828 
    109 H109       24.8375  -34.1929  -37.4292 H         1 UNK         0.0828 
    110 H110       23.6520  -32.9150  -41.0452 H         1 UNK         0.2931 
    111 H111       23.4115  -33.4514  -43.1510 H         1 UNK         0.0412 
    112 H112       24.7721  -35.5145  -41.4505 H         1 UNK         0.3472 
    113 H113       24.7365  -36.9411  -42.4566 H         1 UNK         0.3472 
    114 H114       21.1802  -34.2842  -44.0303 H         1 UNK         0.0970 
    115 H115       20.6357  -34.4755  -42.3876 H         1 UNK         0.0970 
    116 H116       18.7364  -32.8198  -42.1483 H         1 UNK         0.0612 
    117 H117       19.8660  -32.3900  -40.8774 H         1 UNK         0.0612 
@<TRIPOS>BOND
     1    1    2 1    
     2    1   62 1    
     3    1   63 1    
     4    1   64 1    
     5    2    3 2    
     6    2    4 am   BACKBONE|DICT|INTERRES
     7    4    5 1    
     8    4   65 1    
     9    5    6 1    
    10    5   25 1    
    11    5   66 1    
    12    6    7 1    
    13    6   67 1    
    14    6   68 1    
    15    7    8 1    
    16    8    9 1    
    17    8   69 1    
    18    8   70 1    
    19    9   10 ar   
    20    9   14 ar   
    21   10   11 ar   
    22   10   71 1    
    23   11   12 ar   
    24   11   61 1    
    25   12   13 ar   
    26   12   72 1    
    27   13   14 ar   
    28   13   15 1    
    29   14   73 1    
    30   15   16 1    
    31   15   74 1    
    32   15   75 1    
    33   16   17 1    
    34   17   18 1    
    35   17   76 1    
    36   17   77 1    
    37   18   19 1    
    38   18   27 1    
    39   18   78 1    
    40   19   20 am   BACKBONE|DICT|INTERRES
    41   19   79 1    
    42   20   21 2    
    43   20   22 1    
    44   22   23 1    
    45   22   24 1    
    46   22   80 1    
    47   23   81 1    
    48   23   82 1    
    49   23   83 1    
    50   24   25 am   BACKBONE|DICT|INTERRES
    51   24   84 1    
    52   25   26 2    
    53   27   28 2    
    54   27   29 am   BACKBONE|DICT|INTERRES
    55   29   30 1    
    56   29   85 1    
    57   30   31 1    
    58   30   32 1    
    59   30   86 1    
    60   31   87 1    
    61   31   88 1    
    62   31   89 1    
    63   32   33 2    
    64   32   34 am   BACKBONE|DICT|INTERRES
    65   34   35 1    
    66   34   90 1    
    67   35   36 1    
    68   35   37 1    
    69   35   91 1    
    70   36   92 1    
    71   36   93 1    
    72   36   94 1    
    73   37   38 2    
    74   37   39 am   BACKBONE|DICT|INTERRES
    75   39   40 1    
    76   39   95 1    
    77   40   41 1    
    78   40   42 1    
    79   40   96 1    
    80   41   97 1    
    81   41   98 1    
    82   41   99 1    
    83   42   43 2    
    84   42   44 am   BACKBONE|DICT|INTERRES
    85   44   45 1    
    86   44  100 1    
    87   45   46 1    
    88   45   47 1    
    89   45  101 1    
    90   46  102 1    
    91   46  103 1    
    92   46  104 1    
    93   47   48 2    
    94   47   49 am   BACKBONE|DICT|INTERRES
    95   49   50 1    
    96   49  105 1    
    97   50   51 1    
    98   50   52 1    
    99   50  106 1    
   100   51  107 1    
   101   51  108 1    
   102   51  109 1    
   103   52   53 2    
   104   52   54 am   BACKBONE|DICT|INTERRES
   105   54   55 1    
   106   54  110 1    
   107   55   56 1    
   108   55   59 1    
   109   55  111 1    
   110   56   57 am   BACKBONE|DICT|INTERRES
   111   56   58 2    
   112   57  112 1    
   113   57  113 1    
   114   59   60 1    
   115   59  114 1    
   116   59  115 1    
   117   60   61 1    
   118   61  116 1    
   119   61  117 1    
@<TRIPOS>SUBSTRUCTURE
     1 UNK         1 GROUP             0       ****    0 ROOT    
