@<TRIPOS>MOLECULE
3R8
117   119    1
SMALL
USER_CHARGES


@<TRIPOS>ATOM
      1 CA         14.1919  -26.0072  -47.0210 C.3       0 UNK        -0.2013 
      2 C          14.7604  -26.6787  -45.7798 C.2       0 UNK         0.4866 
      3 O          14.1059  -26.6815  -44.7372 O.2       0 UNK        -0.5176 
      4 N          15.9711  -27.2437  -45.8916 N.am      1 UNK        -0.4884 
      5 CA         16.7156  -27.9413  -44.8319 C.3       1 UNK         0.0853 
      6 C6         16.0911  -29.3098  -44.4357 C.3       10 UNK        -0.0849 
      7 S7         16.4999  -30.5787  -45.6819 S.3       10 UNK        -0.2776 
      8 C8         17.9449  -31.3947  -44.9157 C.3       10 UNK         0.0316 
      9 C9         19.0449  -30.4058  -44.5446 C.ar      10 UNK        -0.0863 
     10 C10        19.2336  -30.0357  -43.2105 C.ar      10 UNK        -0.1009 
     11 C11        20.2254  -29.1180  -42.8530 C.ar      10 UNK        -0.0712 
     12 C12        21.0261  -28.5556  -43.8529 C.ar      10 UNK        -0.0894 
     13 C13        20.8359  -28.9014  -45.1961 C.ar      10 UNK        -0.0745 
     14 C14        19.8537  -29.8387  -45.5329 C.ar      10 UNK        -0.0972 
     15 C15        21.6942  -28.2804  -46.2896 C.3       10 UNK         0.0209 
     16 S16        21.1227  -26.6076  -46.7400 S.3       10 UNK        -0.2568 
     17 C17        22.1767  -25.5625  -45.6771 C.3       10 UNK        -0.0983 
     18 CA         21.4135  -24.4269  -44.9452 C.3       3 UNK         0.0876 
     19 N          20.2266  -24.9121  -44.2274 N.am      3 UNK        -0.4424 
     20 C          19.3143  -24.1353  -43.6223 C.2       2 UNK         0.4918 
     21 O          19.3811  -22.9065  -43.5755 O.2       2 UNK        -0.4875 
     22 CA         18.1072  -24.8615  -43.0082 C.3       2 UNK         0.0481 
     23 CB         16.9687  -23.9118  -42.5870 C.3       2 UNK        -0.1831 
     24 N          17.6074  -25.8524  -43.9578 N.am      2 UNK        -0.4498 
     25 C          17.0436  -27.0223  -43.6359 C.2       1 UNK         0.5027 
     26 O          16.8058  -27.3737  -42.4786 O.2       1 UNK        -0.4969 
     27 C          22.3848  -23.6709  -44.0155 C.2       3 UNK         0.5005 
     28 O          22.8221  -22.5677  -44.3448 O.2       3 UNK        -0.5279 
     29 N          22.6819  -24.3088  -42.8768 N.am      4 UNK        -0.4463 
     30 CA         23.5722  -23.9138  -41.7840 C.3       4 UNK         0.0283 
     31 CB         24.9304  -23.3563  -42.2662 C.3       4 UNK        -0.1875 
     32 C          23.7952  -25.1646  -40.9279 C.2       4 UNK         0.4949 
     33 O          23.5080  -25.1493  -39.7318 O.2       4 UNK        -0.5039 
     34 N          24.2495  -26.2396  -41.5833 N.am      5 UNK        -0.4663 
     35 CA         24.4492  -27.5771  -41.0373 C.3       5 UNK         0.0242 
     36 CB         25.6923  -27.6092  -40.1264 C.3       5 UNK        -0.1982 
     37 C          24.6095  -28.5536  -42.2103 C.2       5 UNK         0.5017 
     38 O          24.9562  -28.1281  -43.3158 O.2       5 UNK        -0.5012 
     39 N          24.3772  -29.8392  -41.9372 N.am      6 UNK        -0.4439 
     40 CA         24.5507  -30.9635  -42.8545 C.3       6 UNK         0.0297 
     41 CB         23.4114  -31.0195  -43.8904 C.3       6 UNK        -0.2006 
     42 C          24.6480  -32.2361  -42.0077 C.2       6 UNK         0.4892 
     43 O          23.7782  -33.1062  -42.0915 O.2       6 UNK        -0.5089 
     44 N          25.6789  -32.2794  -41.1498 N.am      7 UNK        -0.4243 
     45 CA         25.9288  -33.2990  -40.1256 C.3       7 UNK         0.0196 
     46 CB         26.3231  -34.6472  -40.7733 C.3       7 UNK        -0.2007 
     47 C          24.7433  -33.3888  -39.1466 C.2       7 UNK         0.5020 
     48 O          24.5634  -32.4766  -38.3395 O.2       7 UNK        -0.5147 
     49 N          23.9461  -34.4582  -39.2513 N.am      8 UNK        -0.4734 
     50 CA         22.7326  -34.6738  -38.4621 C.3       8 UNK         0.0238 
     51 CB         22.3943  -36.1744  -38.4755 C.3       8 UNK        -0.1912 
     52 C          21.5211  -33.8459  -38.9339 C.2       8 UNK         0.5038 
     53 O          20.5506  -33.7594  -38.1801 O.2       8 UNK        -0.5046 
     54 N          21.5702  -33.2826  -40.1533 N.am      9 UNK        -0.4200 
     55 CA         20.4687  -32.5462  -40.8068 C.3       9 UNK         0.0839 
     56 C          19.2161  -33.4207  -41.1310 C.2       9 UNK         0.5513 
     57 N          19.3379  -34.7407  -41.2110 N.am      9 UNK        -0.7519 
     58 O          18.1242  -32.9028  -41.3495 O.2       9 UNK        -0.4960 
     59 C59        20.1228  -31.2090  -40.0802 C.3       10 UNK        -0.0876 
     60 S60        21.3580  -29.9096  -40.4181 S.3       10 UNK        -0.2414 
     61 C61        20.4004  -28.7017  -41.3966 C.3       10 UNK         0.0169 
     62 H62        14.0063  -24.9516  -46.8246 H         1 UNK         0.0903 
     63 H63        14.8686  -26.0797  -47.8723 H         1 UNK         0.0903 
     64 H64        13.2470  -26.4731  -47.2994 H         1 UNK         0.0903 
     65 H65        16.4392  -27.2105  -46.7872 H         1 UNK         0.3096 
     66 H66        17.6957  -28.1396  -45.2649 H         1 UNK         0.1121 
     67 H67        15.0074  -29.2346  -44.3388 H         1 UNK         0.0849 
     68 H68        16.4446  -29.6629  -43.4662 H         1 UNK         0.0849 
     69 H69        17.6158  -31.9502  -44.0356 H         1 UNK         0.0865 
     70 H70        18.3432  -32.1369  -45.6089 H         1 UNK         0.0865 
     71 H71        18.5893  -30.4544  -42.4522 H         1 UNK         0.1346 
     72 H72        21.7990  -27.8503  -43.5853 H         1 UNK         0.1412 
     73 H73        19.7011  -30.1132  -46.5680 H         1 UNK         0.1426 
     74 H74        21.6626  -28.9032  -47.1849 H         1 UNK         0.0716 
     75 H75        22.7412  -28.2592  -45.9841 H         1 UNK         0.0716 
     76 H76        22.9562  -25.1360  -46.3117 H         1 UNK         0.0695 
     77 H77        22.6987  -26.1974  -44.9599 H         1 UNK         0.0695 
     78 H78        21.0640  -23.7160  -45.6974 H         1 UNK         0.0983 
     79 H79        20.0702  -25.9089  -44.2544 H         1 UNK         0.3095 
     80 H80        18.4785  -25.3712  -42.1165 H         1 UNK         0.0454 
     81 H81        17.3173  -23.1796  -41.8577 H         1 UNK         0.0851 
     82 H82        16.1460  -24.4585  -42.1260 H         1 UNK         0.0851 
     83 H83        16.5685  -23.3620  -43.4395 H         1 UNK         0.0851 
     84 H84        17.7420  -25.6332  -44.9360 H         1 UNK         0.2976 
     85 H85        22.2125  -25.1891  -42.7163 H         1 UNK         0.3116 
     86 H86        23.0655  -23.1603  -41.1784 H         1 UNK         0.0646 
     87 H87        25.4022  -24.0056  -43.0043 H         1 UNK         0.0847 
     88 H88        24.8238  -22.3672  -42.7104 H         1 UNK         0.0847 
     89 H89        25.6266  -23.2494  -41.4331 H         1 UNK         0.0847 
     90 H90        24.4629  -26.1729  -42.5720 H         1 UNK         0.3040 
     91 H91        23.5638  -27.8556  -40.4624 H         1 UNK         0.1015 
     92 H92        25.8625  -28.6096  -39.7266 H         1 UNK         0.0786 
     93 H93        25.5818  -26.9401  -39.2731 H         1 UNK         0.0786 
     94 H94        26.5929  -27.3146  -40.6668 H         1 UNK         0.0786 
     95 H95        24.0723  -30.0912  -41.0054 H         1 UNK         0.3172 
     96 H96        25.4982  -30.8497  -43.3851 H         1 UNK         0.0595 
     97 H97        22.4337  -31.0777  -43.4109 H         1 UNK         0.0839 
     98 H98        23.5106  -31.8926  -44.5363 H         1 UNK         0.0839 
     99 H99        23.4210  -30.1426  -44.5352 H         1 UNK         0.0839 
    100 H100       26.3158  -31.4944  -41.1425 H         1 UNK         0.2998 
    101 H101       26.7825  -32.9543  -39.5397 H         1 UNK         0.0822 
    102 H102       26.5248  -35.4039  -40.0138 H         1 UNK         0.0787 
    103 H103       27.2326  -34.5409  -41.3647 H         1 UNK         0.0787 
    104 H104       25.5499  -35.0384  -41.4352 H         1 UNK         0.0787 
    105 H105       24.1544  -35.1385  -39.9685 H         1 UNK         0.3055 
    106 H106       22.9348  -34.3799  -37.4294 H         1 UNK         0.1106 
    107 H107       23.2106  -36.7690  -38.0650 H         1 UNK         0.0828 
    108 H108       21.5107  -36.3822  -37.8700 H         1 UNK         0.0828 
    109 H109       22.1894  -36.5349  -39.4842 H         1 UNK         0.0828 
    110 H110       22.4083  -33.3953  -40.7160 H         1 UNK         0.2931 
    111 H111       20.8509  -32.2868  -41.7949 H         1 UNK         0.0412 
    112 H112       18.5275  -35.2979  -41.4317 H         1 UNK         0.3472 
    113 H113       20.2297  -35.1828  -41.0580 H         1 UNK         0.3472 
    114 H114       19.1403  -30.8307  -40.3581 H         1 UNK         0.0970 
    115 H115       20.0609  -31.3522  -39.0016 H         1 UNK         0.0970 
    116 H116       20.9153  -27.7412  -41.3468 H         1 UNK         0.0612 
    117 H117       19.4249  -28.5389  -40.9355 H         1 UNK         0.0612 
@<TRIPOS>BOND
     1    1    2 1    
     2    1   62 1    
     3    1   63 1    
     4    1   64 1    
     5    2    3 2    
     6    2    4 am   BACKBONE|DICT|INTERRES
     7    4    5 1    
     8    4   65 1    
     9    5    6 1    
    10    5   25 1    
    11    5   66 1    
    12    6    7 1    
    13    6   67 1    
    14    6   68 1    
    15    7    8 1    
    16    8    9 1    
    17    8   69 1    
    18    8   70 1    
    19    9   10 ar   
    20    9   14 ar   
    21   10   11 ar   
    22   10   71 1    
    23   11   12 ar   
    24   11   61 1    
    25   12   13 ar   
    26   12   72 1    
    27   13   14 ar   
    28   13   15 1    
    29   14   73 1    
    30   15   16 1    
    31   15   74 1    
    32   15   75 1    
    33   16   17 1    
    34   17   18 1    
    35   17   76 1    
    36   17   77 1    
    37   18   19 1    
    38   18   27 1    
    39   18   78 1    
    40   19   20 am   BACKBONE|DICT|INTERRES
    41   19   79 1    
    42   20   21 2    
    43   20   22 1    
    44   22   23 1    
    45   22   24 1    
    46   22   80 1    
    47   23   81 1    
    48   23   82 1    
    49   23   83 1    
    50   24   25 am   BACKBONE|DICT|INTERRES
    51   24   84 1    
    52   25   26 2    
    53   27   28 2    
    54   27   29 am   BACKBONE|DICT|INTERRES
    55   29   30 1    
    56   29   85 1    
    57   30   31 1    
    58   30   32 1    
    59   30   86 1    
    60   31   87 1    
    61   31   88 1    
    62   31   89 1    
    63   32   33 2    
    64   32   34 am   BACKBONE|DICT|INTERRES
    65   34   35 1    
    66   34   90 1    
    67   35   36 1    
    68   35   37 1    
    69   35   91 1    
    70   36   92 1    
    71   36   93 1    
    72   36   94 1    
    73   37   38 2    
    74   37   39 am   BACKBONE|DICT|INTERRES
    75   39   40 1    
    76   39   95 1    
    77   40   41 1    
    78   40   42 1    
    79   40   96 1    
    80   41   97 1    
    81   41   98 1    
    82   41   99 1    
    83   42   43 2    
    84   42   44 am   BACKBONE|DICT|INTERRES
    85   44   45 1    
    86   44  100 1    
    87   45   46 1    
    88   45   47 1    
    89   45  101 1    
    90   46  102 1    
    91   46  103 1    
    92   46  104 1    
    93   47   48 2    
    94   47   49 am   BACKBONE|DICT|INTERRES
    95   49   50 1    
    96   49  105 1    
    97   50   51 1    
    98   50   52 1    
    99   50  106 1    
   100   51  107 1    
   101   51  108 1    
   102   51  109 1    
   103   52   53 2    
   104   52   54 am   BACKBONE|DICT|INTERRES
   105   54   55 1    
   106   54  110 1    
   107   55   56 1    
   108   55   59 1    
   109   55  111 1    
   110   56   57 am   BACKBONE|DICT|INTERRES
   111   56   58 2    
   112   57  112 1    
   113   57  113 1    
   114   59   60 1    
   115   59  114 1    
   116   59  115 1    
   117   60   61 1    
   118   61  116 1    
   119   61  117 1    
@<TRIPOS>SUBSTRUCTURE
     1 UNK         1 GROUP             0       ****    0 ROOT    
