@<TRIPOS>MOLECULE
3R8
117   119    1
SMALL
USER_CHARGES


@<TRIPOS>ATOM
      1 CA         14.0053  -25.0138  -45.4652 C.3       0 UNK        -0.2013 
      2 C          15.4410  -24.5596  -45.6832 C.2       0 UNK         0.4866 
      3 O          15.7078  -23.3572  -45.6959 O.2       0 UNK        -0.5176 
      4 N          16.3646  -25.5122  -45.8621 N.am      1 UNK        -0.4884 
      5 CA         17.8044  -25.2669  -45.9973 C.3       1 UNK         0.0853 
      6 C6         18.4930  -26.3813  -46.8397 C.3       10 UNK        -0.0849 
      7 S7         18.9090  -27.9254  -45.9538 S.3       10 UNK        -0.2776 
      8 C8         17.4034  -28.9207  -46.1915 C.3       10 UNK         0.0316 
      9 C9         17.3423  -30.0451  -45.1700 C.ar      10 UNK        -0.0863 
     10 C10        17.3872  -31.3835  -45.5734 C.ar      10 UNK        -0.1009 
     11 C11        17.3569  -32.4084  -44.6227 C.ar      10 UNK        -0.0712 
     12 C12        17.2842  -32.0854  -43.2637 C.ar      10 UNK        -0.0894 
     13 C13        17.2433  -30.7518  -42.8487 C.ar      10 UNK        -0.0745 
     14 C14        17.2517  -29.7375  -43.8086 C.ar      10 UNK        -0.0972 
     15 C15        17.1921  -30.4150  -41.3654 C.3       10 UNK         0.0209 
     16 S16        18.8436  -30.0148  -40.7026 S.3       10 UNK        -0.2568 
     17 C17        18.9250  -28.2055  -40.9342 C.3       10 UNK        -0.0983 
     18 CA         20.2655  -27.7135  -41.5416 C.3       3 UNK         0.0876 
     19 N          20.0837  -26.4138  -42.2028 N.am      3 UNK        -0.4424 
     20 C          21.0228  -25.6556  -42.7828 C.2       2 UNK         0.4918 
     21 O          22.2180  -25.9516  -42.8205 O.2       2 UNK        -0.4875 
     22 CA         20.5277  -24.3398  -43.4186 C.3       2 UNK         0.0481 
     23 CB         21.6807  -23.3873  -43.7810 C.3       2 UNK        -0.1831 
     24 N          19.7166  -24.5804  -44.6147 N.am      2 UNK        -0.4498 
     25 C          18.4549  -25.0314  -44.6131 C.2       1 UNK         0.5027 
     26 O          17.8296  -25.2826  -43.5765 O.2       1 UNK        -0.4969 
     27 C          21.3894  -27.6976  -40.4806 C.2       3 UNK         0.5005 
     28 O          22.2435  -28.5856  -40.4729 O.2       3 UNK        -0.5279 
     29 N          21.3939  -26.6555  -39.6356 N.am      4 UNK        -0.4463 
     30 CA         22.3813  -26.4457  -38.5731 C.3       4 UNK         0.0283 
     31 CB         21.8893  -25.3326  -37.6343 C.3       4 UNK        -0.1875 
     32 C          23.7943  -26.1233  -39.0908 C.2       4 UNK         0.4949 
     33 O          24.7674  -26.4692  -38.4211 O.2       4 UNK        -0.5039 
     34 N          23.8887  -25.4731  -40.2597 N.am      5 UNK        -0.4663 
     35 CA         25.1595  -25.1756  -40.9262 C.3       5 UNK         0.0242 
     36 CB         24.9847  -23.9905  -41.8887 C.3       5 UNK        -0.1982 
     37 C          25.7017  -26.4038  -41.6711 C.2       5 UNK         0.5017 
     38 O          26.9116  -26.6318  -41.6552 O.2       5 UNK        -0.5012 
     39 N          24.7971  -27.1743  -42.2943 N.am      6 UNK        -0.4439 
     40 CA         25.0929  -28.4458  -42.9560 C.3       6 UNK         0.0297 
     41 CB         23.8558  -28.9254  -43.7341 C.3       6 UNK        -0.2006 
     42 C          25.5685  -29.5249  -41.9687 C.2       6 UNK         0.4892 
     43 O          26.5312  -30.2299  -42.2733 O.2       6 UNK        -0.5089 
     44 N          24.8916  -29.6152  -40.8111 N.am      7 UNK        -0.4243 
     45 CA         25.1378  -30.5518  -39.7057 C.3       7 UNK         0.0196 
     46 CB         26.4692  -30.2213  -38.9991 C.3       7 UNK        -0.2007 
     47 C          25.0315  -32.0271  -40.1424 C.2       7 UNK         0.5020 
     48 O          25.8143  -32.8705  -39.7013 O.2       7 UNK        -0.5147 
     49 N          24.0639  -32.3020  -41.0208 N.am      8 UNK        -0.4734 
     50 CA         23.7949  -33.5860  -41.6583 C.3       8 UNK         0.0238 
     51 CB         24.8060  -33.8186  -42.8000 C.3       8 UNK        -0.1912 
     52 C          22.3499  -33.5635  -42.1754 C.2       8 UNK         0.5038 
     53 O          21.6660  -32.5468  -42.0231 O.2       8 UNK        -0.5046 
     54 N          21.9097  -34.6749  -42.7798 N.am      9 UNK        -0.4200 
     55 CA         20.5726  -34.8884  -43.3641 C.3       9 UNK         0.0839 
     56 C          19.4503  -35.0779  -42.3042 C.2       9 UNK         0.5513 
     57 N          19.3848  -34.2497  -41.2706 N.am      9 UNK        -0.7519 
     58 O          18.6493  -36.0028  -42.4080 O.2       9 UNK        -0.4960 
     59 C59        20.2094  -33.8074  -44.4220 C.3       10 UNK        -0.0876 
     60 S60        19.0411  -34.3669  -45.7098 S.3       10 UNK        -0.2414 
     61 C61        17.4120  -33.8681  -45.0541 C.3       10 UNK         0.0169 
     62 H62        13.9110  -26.0992  -45.4939 H         1 UNK         0.0903 
     63 H63        13.6465  -24.6682  -44.4961 H         1 UNK         0.0903 
     64 H64        13.3584  -24.5971  -46.2368 H         1 UNK         0.0903 
     65 H65        16.0926  -26.4803  -45.7891 H         1 UNK         0.3096 
     66 H66        17.9230  -24.3328  -46.5521 H         1 UNK         0.1121 
     67 H67        17.8918  -26.6194  -47.7190 H         1 UNK         0.0849 
     68 H68        19.4306  -25.9930  -47.2409 H         1 UNK         0.0849 
     69 H69        17.3871  -29.3102  -47.2107 H         1 UNK         0.0865 
     70 H70        16.5147  -28.3005  -46.0809 H         1 UNK         0.0865 
     71 H71        17.4581  -31.6321  -46.6237 H         1 UNK         0.1346 
     72 H72        17.2723  -32.8744  -42.5247 H         1 UNK         0.1412 
     73 H73        17.2164  -28.7020  -43.5010 H         1 UNK         0.1426 
     74 H74        16.4989  -29.5921  -41.1849 H         1 UNK         0.0716 
     75 H75        16.7965  -31.2647  -40.8069 H         1 UNK         0.0716 
     76 H76        18.1014  -27.9092  -41.5833 H         1 UNK         0.0695 
     77 H77        18.7188  -27.7216  -39.9775 H         1 UNK         0.0695 
     78 H78        20.5681  -28.4107  -42.3261 H         1 UNK         0.0983 
     79 H79        19.1256  -26.0942  -42.3065 H         1 UNK         0.3095 
     80 H80        19.9080  -23.8312  -42.6770 H         1 UNK         0.0454 
     81 H81        22.2507  -23.1160  -42.8923 H         1 UNK         0.0851 
     82 H82        21.3085  -22.4590  -44.2145 H         1 UNK         0.0851 
     83 H83        22.3732  -23.8367  -44.4939 H         1 UNK         0.0851 
     84 H84        20.1801  -24.4385  -45.5008 H         1 UNK         0.2976 
     85 H85        20.6619  -25.9652  -39.7231 H         1 UNK         0.3116 
     86 H86        22.4496  -27.3706  -37.9960 H         1 UNK         0.0646 
     87 H87        22.5930  -25.1744  -36.8157 H         1 UNK         0.0847 
     88 H88        21.7792  -24.3811  -38.1561 H         1 UNK         0.0847 
     89 H89        20.9280  -25.5852  -37.1865 H         1 UNK         0.0847 
     90 H90        23.0431  -25.2679  -40.7734 H         1 UNK         0.3040 
     91 H91        25.8945  -24.8900  -40.1697 H         1 UNK         0.1015 
     92 H92        25.9467  -23.6860  -42.3029 H         1 UNK         0.0786 
     93 H93        24.5603  -23.1229  -41.3832 H         1 UNK         0.0786 
     94 H94        24.3400  -24.2441  -42.7298 H         1 UNK         0.0786 
     95 H95        23.8300  -26.8615  -42.3105 H         1 UNK         0.3172 
     96 H96        25.8973  -28.2681  -43.6728 H         1 UNK         0.0595 
     97 H97        23.0063  -29.1089  -43.0755 H         1 UNK         0.0839 
     98 H98        24.0646  -29.8570  -44.2618 H         1 UNK         0.0839 
     99 H99        23.5463  -28.1919  -44.4790 H         1 UNK         0.0839 
    100 H100       24.0616  -29.0348  -40.7027 H         1 UNK         0.2998 
    101 H101       24.3331  -30.3890  -38.9870 H         1 UNK         0.0822 
    102 H102       26.5987  -30.8297  -38.1033 H         1 UNK         0.0787 
    103 H103       26.5020  -29.1765  -38.6891 H         1 UNK         0.0787 
    104 H104       27.3273  -30.4065  -39.6460 H         1 UNK         0.0787 
    105 H105       23.4053  -31.5748  -41.2771 H         1 UNK         0.3055 
    106 H106       23.8798  -34.3815  -40.9147 H         1 UNK         0.1106 
    107 H107       24.7213  -33.0524  -43.5719 H         1 UNK         0.0828 
    108 H108       25.8321  -33.8041  -42.4322 H         1 UNK         0.0828 
    109 H109       24.6555  -34.7862  -43.2795 H         1 UNK         0.0828 
    110 H110       22.5279  -35.4718  -42.8287 H         1 UNK         0.2931 
    111 H111       20.6629  -35.8401  -43.8903 H         1 UNK         0.0412 
    112 H112       18.6766  -34.3755  -40.5655 H         1 UNK         0.3472 
    113 H113       20.0360  -33.4750  -41.2181 H         1 UNK         0.3472 
    114 H114       19.8634  -32.8891  -43.9474 H         1 UNK         0.0970 
    115 H115       21.1132  -33.5153  -44.9588 H         1 UNK         0.0970 
    116 H116       16.6594  -34.0408  -45.8245 H         1 UNK         0.0612 
    117 H117       17.1473  -34.5248  -44.2246 H         1 UNK         0.0612 
@<TRIPOS>BOND
     1    1    2 1    
     2    1   62 1    
     3    1   63 1    
     4    1   64 1    
     5    2    3 2    
     6    2    4 am   BACKBONE|DICT|INTERRES
     7    4    5 1    
     8    4   65 1    
     9    5    6 1    
    10    5   25 1    
    11    5   66 1    
    12    6    7 1    
    13    6   67 1    
    14    6   68 1    
    15    7    8 1    
    16    8    9 1    
    17    8   69 1    
    18    8   70 1    
    19    9   10 ar   
    20    9   14 ar   
    21   10   11 ar   
    22   10   71 1    
    23   11   12 ar   
    24   11   61 1    
    25   12   13 ar   
    26   12   72 1    
    27   13   14 ar   
    28   13   15 1    
    29   14   73 1    
    30   15   16 1    
    31   15   74 1    
    32   15   75 1    
    33   16   17 1    
    34   17   18 1    
    35   17   76 1    
    36   17   77 1    
    37   18   19 1    
    38   18   27 1    
    39   18   78 1    
    40   19   20 am   BACKBONE|DICT|INTERRES
    41   19   79 1    
    42   20   21 2    
    43   20   22 1    
    44   22   23 1    
    45   22   24 1    
    46   22   80 1    
    47   23   81 1    
    48   23   82 1    
    49   23   83 1    
    50   24   25 am   BACKBONE|DICT|INTERRES
    51   24   84 1    
    52   25   26 2    
    53   27   28 2    
    54   27   29 am   BACKBONE|DICT|INTERRES
    55   29   30 1    
    56   29   85 1    
    57   30   31 1    
    58   30   32 1    
    59   30   86 1    
    60   31   87 1    
    61   31   88 1    
    62   31   89 1    
    63   32   33 2    
    64   32   34 am   BACKBONE|DICT|INTERRES
    65   34   35 1    
    66   34   90 1    
    67   35   36 1    
    68   35   37 1    
    69   35   91 1    
    70   36   92 1    
    71   36   93 1    
    72   36   94 1    
    73   37   38 2    
    74   37   39 am   BACKBONE|DICT|INTERRES
    75   39   40 1    
    76   39   95 1    
    77   40   41 1    
    78   40   42 1    
    79   40   96 1    
    80   41   97 1    
    81   41   98 1    
    82   41   99 1    
    83   42   43 2    
    84   42   44 am   BACKBONE|DICT|INTERRES
    85   44   45 1    
    86   44  100 1    
    87   45   46 1    
    88   45   47 1    
    89   45  101 1    
    90   46  102 1    
    91   46  103 1    
    92   46  104 1    
    93   47   48 2    
    94   47   49 am   BACKBONE|DICT|INTERRES
    95   49   50 1    
    96   49  105 1    
    97   50   51 1    
    98   50   52 1    
    99   50  106 1    
   100   51  107 1    
   101   51  108 1    
   102   51  109 1    
   103   52   53 2    
   104   52   54 am   BACKBONE|DICT|INTERRES
   105   54   55 1    
   106   54  110 1    
   107   55   56 1    
   108   55   59 1    
   109   55  111 1    
   110   56   57 am   BACKBONE|DICT|INTERRES
   111   56   58 2    
   112   57  112 1    
   113   57  113 1    
   114   59   60 1    
   115   59  114 1    
   116   59  115 1    
   117   60   61 1    
   118   61  116 1    
   119   61  117 1    
@<TRIPOS>SUBSTRUCTURE
     1 UNK         1 GROUP             0       ****    0 ROOT    
