@<TRIPOS>MOLECULE
3R8
117   119    1
SMALL
USER_CHARGES


@<TRIPOS>ATOM
      1 CA         20.6547  -25.6746  -38.6456 C.3       0 UNK        -0.2013 
      2 C          19.7305  -25.4796  -39.8389 C.2       0 UNK         0.4866 
      3 O          19.0758  -24.4417  -39.9447 O.2       0 UNK        -0.5176 
      4 N          19.6707  -26.4702  -40.7349 N.am      1 UNK        -0.4884 
      5 CA         18.9246  -26.4306  -41.9958 C.3       1 UNK         0.0853 
      6 C6         18.8106  -27.8423  -42.6241 C.3       10 UNK        -0.0849 
      7 S7         17.8359  -28.9939  -41.5979 S.3       10 UNK        -0.2776 
      8 C8         16.7460  -29.7662  -42.8401 C.3       10 UNK         0.0316 
      9 C9         17.5368  -30.5687  -43.8654 C.ar      10 UNK        -0.0863 
     10 C10        18.1412  -31.7722  -43.4943 C.ar      10 UNK        -0.1009 
     11 C11        18.8920  -32.5055  -44.4160 C.ar      10 UNK        -0.0712 
     12 C12        19.0309  -32.0311  -45.7232 C.ar      10 UNK        -0.0894 
     13 C13        18.4255  -30.8321  -46.1132 C.ar      10 UNK        -0.0745 
     14 C14        17.6689  -30.1118  -45.1808 C.ar      10 UNK        -0.0972 
     15 C15        18.5850  -30.3366  -47.5478 C.3       10 UNK         0.0209 
     16 S16        19.0597  -28.5795  -47.6682 S.3       10 UNK        -0.2568 
     17 C17        20.6475  -28.5587  -46.7688 C.3       10 UNK        -0.0983 
     18 CA         21.2313  -27.1266  -46.6540 C.3       3 UNK         0.0876 
     19 N          20.2969  -26.2253  -45.9841 N.am      3 UNK        -0.4424 
     20 C          20.3220  -24.8874  -46.0033 C.2       2 UNK         0.4918 
     21 O          21.1145  -24.2272  -46.6764 O.2       2 UNK        -0.4875 
     22 CA         19.3029  -24.1643  -45.0981 C.3       2 UNK         0.0481 
     23 CB         18.1044  -23.6781  -45.9278 C.3       2 UNK        -0.1831 
     24 N          18.8176  -24.9829  -43.9766 N.am      2 UNK        -0.4498 
     25 C          19.5965  -25.4723  -42.9996 C.2       1 UNK         0.5027 
     26 O          20.8070  -25.2510  -42.9286 O.2       1 UNK        -0.4969 
     27 C          22.5923  -27.1112  -45.9244 C.2       3 UNK         0.5005 
     28 O          22.8697  -27.9988  -45.1161 O.2       3 UNK        -0.5279 
     29 N          23.4018  -26.0786  -46.2032 N.am      4 UNK        -0.4463 
     30 CA         24.7918  -25.8881  -45.7638 C.3       4 UNK         0.0283 
     31 CB         25.7112  -26.9147  -46.4600 C.3       4 UNK        -0.1875 
     32 C          24.9928  -25.8652  -44.2330 C.2       4 UNK         0.4949 
     33 O          26.0508  -26.2780  -43.7555 O.2       4 UNK        -0.5039 
     34 N          23.9835  -25.3787  -43.4938 N.am      5 UNK        -0.4663 
     35 CA         23.9352  -25.2709  -42.0276 C.3       5 UNK         0.0242 
     36 CB         25.0127  -24.2943  -41.5060 C.3       5 UNK        -0.1982 
     37 C          23.9590  -26.6315  -41.2997 C.2       5 UNK         0.5017 
     38 O          24.3780  -26.6859  -40.1417 O.2       5 UNK        -0.5012 
     39 N          23.5164  -27.7050  -41.9741 N.am      6 UNK        -0.4439 
     40 CA         23.4421  -29.0609  -41.4253 C.3       6 UNK         0.0297 
     41 CB         23.0474  -30.0436  -42.5402 C.3       6 UNK        -0.2006 
     42 C          22.4419  -29.1492  -40.2630 C.2       6 UNK         0.4892 
     43 O          21.2963  -28.7224  -40.4155 O.2       6 UNK        -0.5089 
     44 N          22.8698  -29.7308  -39.1361 N.am      7 UNK        -0.4243 
     45 CA         22.0460  -29.9552  -37.9444 C.3       7 UNK         0.0196 
     46 CB         22.9669  -30.0898  -36.7177 C.3       7 UNK        -0.2007 
     47 C          21.1374  -31.1817  -38.1394 C.2       7 UNK         0.5020 
     48 O          21.3723  -32.2298  -37.5349 O.2       7 UNK        -0.5147 
     49 N          20.1670  -31.0499  -39.0558 N.am      8 UNK        -0.4734 
     50 CA         19.2358  -32.0858  -39.5312 C.3       8 UNK         0.0238 
     51 CB         18.2531  -32.4882  -38.4118 C.3       8 UNK        -0.1912 
     52 C          19.9366  -33.3074  -40.1669 C.2       8 UNK         0.5038 
     53 O          19.3494  -34.3889  -40.2216 O.2       8 UNK        -0.5046 
     54 N          21.1830  -33.1083  -40.6174 N.am      9 UNK        -0.4200 
     55 CA         22.1247  -34.1304  -41.1029 C.3       9 UNK         0.0839 
     56 C          22.5743  -35.1521  -40.0130 C.2       9 UNK         0.5513 
     57 N          22.4375  -34.8512  -38.7258 N.am      9 UNK        -0.7519 
     58 O          23.0852  -36.2224  -40.3335 O.2       9 UNK        -0.4960 
     59 C59        21.6782  -34.8080  -42.4303 C.3       10 UNK        -0.0876 
     60 S60        21.3392  -33.5872  -43.7460 S.3       10 UNK        -0.2414 
     61 C61        19.5507  -33.8088  -43.9951 C.3       10 UNK         0.0169 
     62 H62        20.0762  -25.7063  -37.7229 H         1 UNK         0.0903 
     63 H63        21.2280  -26.5982  -38.7203 H         1 UNK         0.0903 
     64 H64        21.3605  -24.8471  -38.5794 H         1 UNK         0.0903 
     65 H65        20.2460  -27.3026  -40.6036 H         1 UNK         0.3096 
     66 H66        17.9222  -26.0514  -41.7850 H         1 UNK         0.1121 
     67 H67        19.7994  -28.2785  -42.7833 H         1 UNK         0.0849 
     68 H68        18.3464  -27.7822  -43.6094 H         1 UNK         0.0849 
     69 H69        16.0423  -30.4267  -42.3313 H         1 UNK         0.0865 
     70 H70        16.1436  -28.9962  -43.3247 H         1 UNK         0.0865 
     71 H71        18.0309  -32.1349  -42.4831 H         1 UNK         0.1346 
     72 H72        19.6163  -32.5987  -46.4338 H         1 UNK         0.1412 
     73 H73        17.1949  -29.1869  -45.4797 H         1 UNK         0.1426 
     74 H74        17.6402  -30.4805  -48.0733 H         1 UNK         0.0716 
     75 H75        19.3283  -30.9305  -48.0821 H         1 UNK         0.0716 
     76 H76        21.3459  -29.2169  -47.2892 H         1 UNK         0.0695 
     77 H77        20.4942  -28.9909  -45.7777 H         1 UNK         0.0695 
     78 H78        21.3968  -26.7561  -47.6684 H         1 UNK         0.0983 
     79 H79        19.6004  -26.6740  -45.4114 H         1 UNK         0.3095 
     80 H80        19.8046  -23.2904  -44.6775 H         1 UNK         0.0454 
     81 H81        17.5481  -24.5099  -46.3619 H         1 UNK         0.0851 
     82 H82        18.4326  -23.0422  -46.7514 H         1 UNK         0.0851 
     83 H83        17.4142  -23.0891  -45.3237 H         1 UNK         0.0851 
     84 H84        17.8310  -25.2012  -43.9740 H         1 UNK         0.2976 
     85 H85        23.0233  -25.3430  -46.7900 H         1 UNK         0.3116 
     86 H86        25.0842  -24.8972  -46.1143 H         1 UNK         0.0646 
     87 H87        25.5811  -26.8969  -47.5419 H         1 UNK         0.0847 
     88 H88        25.5138  -27.9302  -46.1145 H         1 UNK         0.0847 
     89 H89        26.7623  -26.7022  -46.2607 H         1 UNK         0.0847 
     90 H90        23.1354  -25.1025  -43.9720 H         1 UNK         0.3040 
     91 H91        22.9719  -24.8268  -41.7796 H         1 UNK         0.1015 
     92 H92        26.0187  -24.6990  -41.6185 H         1 UNK         0.0786 
     93 H93        24.8675  -24.0823  -40.4460 H         1 UNK         0.0786 
     94 H94        24.9724  -23.3407  -42.0322 H         1 UNK         0.0786 
     95 H95        23.1978  -27.5819  -42.9286 H         1 UNK         0.3172 
     96 H96        24.4370  -29.3297  -41.0646 H         1 UNK         0.0595 
     97 H97        22.0621  -29.8156  -42.9506 H         1 UNK         0.0839 
     98 H98        23.0170  -31.0693  -42.1717 H         1 UNK         0.0839 
     99 H99        23.7622  -30.0185  -43.3629 H         1 UNK         0.0839 
    100 H100       23.8206  -30.0693  -39.0937 H         1 UNK         0.2998 
    101 H101       21.4017  -29.0878  -37.7834 H         1 UNK         0.0822 
    102 H102       23.5566  -29.1857  -36.5647 H         1 UNK         0.0787 
    103 H103       22.3847  -30.2534  -35.8098 H         1 UNK         0.0787 
    104 H104       23.6577  -30.9281  -36.8176 H         1 UNK         0.0787 
    105 H105       20.1229  -30.1613  -39.5481 H         1 UNK         0.3055 
    106 H106       18.6532  -31.6241  -40.3280 H         1 UNK         0.1106 
    107 H107       18.7567  -33.0168  -37.6019 H         1 UNK         0.0828 
    108 H108       17.4722  -33.1473  -38.7932 H         1 UNK         0.0828 
    109 H109       17.7574  -31.6155  -37.9871 H         1 UNK         0.0828 
    110 H110       21.5641  -32.1809  -40.5166 H         1 UNK         0.2931 
    111 H111       23.0356  -33.5759  -41.3312 H         1 UNK         0.0412 
    112 H112       22.7421  -35.5157  -38.0322 H         1 UNK         0.3472 
    113 H113       22.0299  -33.9704  -38.4317 H         1 UNK         0.3472 
    114 H114       20.8109  -35.4482  -42.2637 H         1 UNK         0.0970 
    115 H115       22.4650  -35.4679  -42.7998 H         1 UNK         0.0970 
    116 H116       19.3850  -34.5747  -44.7540 H         1 UNK         0.0612 
    117 H117       19.0858  -34.1767  -43.0795 H         1 UNK         0.0612 
@<TRIPOS>BOND
     1    1    2 1    
     2    1   62 1    
     3    1   63 1    
     4    1   64 1    
     5    2    3 2    
     6    2    4 am   BACKBONE|DICT|INTERRES
     7    4    5 1    
     8    4   65 1    
     9    5    6 1    
    10    5   25 1    
    11    5   66 1    
    12    6    7 1    
    13    6   67 1    
    14    6   68 1    
    15    7    8 1    
    16    8    9 1    
    17    8   69 1    
    18    8   70 1    
    19    9   10 ar   
    20    9   14 ar   
    21   10   11 ar   
    22   10   71 1    
    23   11   12 ar   
    24   11   61 1    
    25   12   13 ar   
    26   12   72 1    
    27   13   14 ar   
    28   13   15 1    
    29   14   73 1    
    30   15   16 1    
    31   15   74 1    
    32   15   75 1    
    33   16   17 1    
    34   17   18 1    
    35   17   76 1    
    36   17   77 1    
    37   18   19 1    
    38   18   27 1    
    39   18   78 1    
    40   19   20 am   BACKBONE|DICT|INTERRES
    41   19   79 1    
    42   20   21 2    
    43   20   22 1    
    44   22   23 1    
    45   22   24 1    
    46   22   80 1    
    47   23   81 1    
    48   23   82 1    
    49   23   83 1    
    50   24   25 am   BACKBONE|DICT|INTERRES
    51   24   84 1    
    52   25   26 2    
    53   27   28 2    
    54   27   29 am   BACKBONE|DICT|INTERRES
    55   29   30 1    
    56   29   85 1    
    57   30   31 1    
    58   30   32 1    
    59   30   86 1    
    60   31   87 1    
    61   31   88 1    
    62   31   89 1    
    63   32   33 2    
    64   32   34 am   BACKBONE|DICT|INTERRES
    65   34   35 1    
    66   34   90 1    
    67   35   36 1    
    68   35   37 1    
    69   35   91 1    
    70   36   92 1    
    71   36   93 1    
    72   36   94 1    
    73   37   38 2    
    74   37   39 am   BACKBONE|DICT|INTERRES
    75   39   40 1    
    76   39   95 1    
    77   40   41 1    
    78   40   42 1    
    79   40   96 1    
    80   41   97 1    
    81   41   98 1    
    82   41   99 1    
    83   42   43 2    
    84   42   44 am   BACKBONE|DICT|INTERRES
    85   44   45 1    
    86   44  100 1    
    87   45   46 1    
    88   45   47 1    
    89   45  101 1    
    90   46  102 1    
    91   46  103 1    
    92   46  104 1    
    93   47   48 2    
    94   47   49 am   BACKBONE|DICT|INTERRES
    95   49   50 1    
    96   49  105 1    
    97   50   51 1    
    98   50   52 1    
    99   50  106 1    
   100   51  107 1    
   101   51  108 1    
   102   51  109 1    
   103   52   53 2    
   104   52   54 am   BACKBONE|DICT|INTERRES
   105   54   55 1    
   106   54  110 1    
   107   55   56 1    
   108   55   59 1    
   109   55  111 1    
   110   56   57 am   BACKBONE|DICT|INTERRES
   111   56   58 2    
   112   57  112 1    
   113   57  113 1    
   114   59   60 1    
   115   59  114 1    
   116   59  115 1    
   117   60   61 1    
   118   61  116 1    
   119   61  117 1    
@<TRIPOS>SUBSTRUCTURE
     1 UNK         1 GROUP             0       ****    0 ROOT    
