@<TRIPOS>MOLECULE
3R8
117   119    1
SMALL
USER_CHARGES


@<TRIPOS>ATOM
      1 CA         20.3017  -25.3703  -39.9448 C.3       0 UNK        -0.2013 
      2 C          19.8212  -25.7449  -41.3379 C.2       0 UNK         0.4866 
      3 O          20.4862  -26.5255  -42.0212 O.2       0 UNK        -0.5176 
      4 N          18.6738  -25.1863  -41.7483 N.am      1 UNK        -0.4884 
      5 CA         18.0959  -25.2216  -43.1035 C.3       1 UNK         0.0853 
      6 C6         17.9135  -26.6506  -43.6991 C.3       10 UNK        -0.0849 
      7 S7         16.9250  -27.7554  -42.6378 S.3       10 UNK        -0.2776 
      8 C8         16.4724  -29.0893  -43.7940 C.3       10 UNK         0.0316 
      9 C9         17.6835  -29.7724  -44.4196 C.ar      10 UNK        -0.0863 
     10 C10        18.4187  -30.7217  -43.6989 C.ar      10 UNK        -0.1009 
     11 C11        19.4996  -31.3904  -44.2939 C.ar      10 UNK        -0.0712 
     12 C12        19.8497  -31.0697  -45.6093 C.ar      10 UNK        -0.0894 
     13 C13        19.1320  -30.1183  -46.3376 C.ar      10 UNK        -0.0745 
     14 C14        18.0427  -29.4802  -45.7389 C.ar      10 UNK        -0.0972 
     15 C15        19.5205  -29.8135  -47.7807 C.3       10 UNK         0.0209 
     16 S16        19.8345  -28.0446  -48.0859 S.3       10 UNK        -0.2568 
     17 C17        21.2014  -27.7067  -46.9254 C.3       10 UNK        -0.0983 
     18 CA         21.5955  -26.2082  -46.8868 C.3       3 UNK         0.0876 
     19 N          20.4316  -25.3635  -46.6209 N.am      3 UNK        -0.4424 
     20 C          20.3454  -24.0441  -46.8273 C.2       2 UNK         0.4918 
     21 O          21.2401  -23.3637  -47.3286 O.2       2 UNK        -0.4875 
     22 CA         19.0362  -23.3707  -46.3650 C.3       2 UNK         0.0481 
     23 CB         18.0708  -23.2099  -47.5499 C.3       2 UNK        -0.1831 
     24 N          18.3584  -24.0951  -45.2778 N.am      2 UNK        -0.4498 
     25 C          18.8950  -24.3141  -44.0672 C.2       1 UNK         0.5027 
     26 O          19.9921  -23.8560  -43.7363 O.2       1 UNK        -0.4969 
     27 C          22.7342  -25.9973  -45.8641 C.2       3 UNK         0.5005 
     28 O          23.8736  -26.3447  -46.1784 O.2       3 UNK        -0.5279 
     29 N          22.4131  -25.4716  -44.6661 N.am      4 UNK        -0.4463 
     30 CA         23.2826  -25.3499  -43.4863 C.3       4 UNK         0.0283 
     31 CB         24.3915  -24.3036  -43.7245 C.3       4 UNK        -0.1875 
     32 C          23.8255  -26.7236  -43.0418 C.2       4 UNK         0.4949 
     33 O          25.0379  -26.9004  -42.9076 O.2       4 UNK        -0.5039 
     34 N          22.9072  -27.6845  -42.8800 N.am      5 UNK        -0.4663 
     35 CA         23.2085  -29.1074  -42.7179 C.3       5 UNK         0.0242 
     36 CB         23.1051  -29.7943  -44.0905 C.3       5 UNK        -0.1982 
     37 C          22.3356  -29.8241  -41.6757 C.2       5 UNK         0.5017 
     38 O          22.6288  -30.9841  -41.3807 O.2       5 UNK        -0.5012 
     39 N          21.3131  -29.1659  -41.1014 N.am      6 UNK        -0.4439 
     40 CA         20.4203  -29.7733  -40.0971 C.3       6 UNK         0.0297 
     41 CB         19.2766  -28.8193  -39.7345 C.3       6 UNK        -0.2006 
     42 C          21.1333  -30.2399  -38.8161 C.2       6 UNK         0.4892 
     43 O          20.6779  -31.1912  -38.1829 O.2       6 UNK        -0.5089 
     44 N          22.2579  -29.5931  -38.4806 N.am      7 UNK        -0.4243 
     45 CA         23.1544  -29.9897  -37.3936 C.3       7 UNK         0.0196 
     46 CB         24.1869  -28.8739  -37.1647 C.3       7 UNK        -0.2007 
     47 C          23.8620  -31.3364  -37.6413 C.2       7 UNK         0.5020 
     48 O          24.2758  -31.9755  -36.6736 O.2       7 UNK        -0.5147 
     49 N          23.9959  -31.7430  -38.9122 N.am      8 UNK        -0.4734 
     50 CA         24.5759  -33.0233  -39.3096 C.3       8 UNK         0.0238 
     51 CB         25.3523  -32.8639  -40.6286 C.3       8 UNK        -0.1912 
     52 C          23.4959  -34.1065  -39.4317 C.2       8 UNK         0.5038 
     53 O          23.6764  -35.1847  -38.8633 O.2       8 UNK        -0.5046 
     54 N          22.4112  -33.8218  -40.1709 N.am      9 UNK        -0.4200 
     55 CA         21.3319  -34.7958  -40.4163 C.3       9 UNK         0.0839 
     56 C          20.3135  -34.9762  -39.2547 C.2       9 UNK         0.5513 
     57 N          20.2197  -34.0666  -38.2939 N.am      9 UNK        -0.7519 
     58 O          19.6078  -35.9810  -39.2136 O.2       9 UNK        -0.4960 
     59 C59        20.6482  -34.6115  -41.7958 C.3       10 UNK        -0.0876 
     60 S60        19.6744  -33.0789  -41.9945 S.3       10 UNK        -0.2414 
     61 C61        20.3167  -32.4800  -43.5940 C.3       10 UNK         0.0169 
     62 H62        19.4814  -25.3905  -39.2276 H         1 UNK         0.0903 
     63 H63        20.7303  -24.3686  -39.9541 H         1 UNK         0.0903 
     64 H64        21.0713  -26.0615  -39.6022 H         1 UNK         0.0903 
     65 H65        18.1986  -24.5605  -41.1129 H         1 UNK         0.3096 
     66 H66        17.1065  -24.7700  -43.0128 H         1 UNK         0.1121 
     67 H67        17.4116  -26.5979  -44.6664 H         1 UNK         0.0849 
     68 H68        18.8764  -27.1277  -43.8890 H         1 UNK         0.0849 
     69 H69        15.8781  -29.8306  -43.2579 H         1 UNK         0.0865 
     70 H70        15.8179  -28.6839  -44.5672 H         1 UNK         0.0865 
     71 H71        18.1293  -30.9407  -42.6812 H         1 UNK         0.1346 
     72 H72        20.6837  -31.5780  -46.0743 H         1 UNK         0.1412 
     73 H73        17.4744  -28.7554  -46.3058 H         1 UNK         0.1426 
     74 H74        20.4074  -30.3779  -48.0732 H         1 UNK         0.0716 
     75 H75        18.7157  -30.1449  -48.4381 H         1 UNK         0.0716 
     76 H76        22.0554  -28.3225  -47.2147 H         1 UNK         0.0695 
     77 H77        20.9016  -28.0418  -45.9305 H         1 UNK         0.0695 
     78 H78        21.9904  -25.9325  -47.8673 H         1 UNK         0.0983 
     79 H79        19.6220  -25.8401  -46.2558 H         1 UNK         0.3095 
     80 H80        19.2918  -22.3758  -45.9947 H         1 UNK         0.0454 
     81 H81        17.1732  -22.6629  -47.2611 H         1 UNK         0.0851 
     82 H82        17.7627  -24.1744  -47.9556 H         1 UNK         0.0851 
     83 H83        18.5397  -22.6512  -48.3613 H         1 UNK         0.0851 
     84 H84        17.4437  -24.4694  -45.4880 H         1 UNK         0.2976 
     85 H85        21.4561  -25.1737  -44.5133 H         1 UNK         0.3116 
     86 H86        22.6550  -24.9824  -42.6733 H         1 UNK         0.0646 
     87 H87        23.9710  -23.3408  -44.0144 H         1 UNK         0.0847 
     88 H88        24.9753  -24.1429  -42.8174 H         1 UNK         0.0847 
     89 H89        25.0858  -24.6153  -44.5053 H         1 UNK         0.0847 
     90 H90        21.9281  -27.4130  -42.9214 H         1 UNK         0.3040 
     91 H91        24.2343  -29.2226  -42.3607 H         1 UNK         0.1015 
     92 H92        22.0952  -29.7255  -44.4935 H         1 UNK         0.0786 
     93 H93        23.3647  -30.8516  -44.0246 H         1 UNK         0.0786 
     94 H94        23.7840  -29.3405  -44.8130 H         1 UNK         0.0786 
     95 H95        21.0950  -28.2181  -41.3975 H         1 UNK         0.3172 
     96 H96        19.9755  -30.6537  -40.5594 H         1 UNK         0.0595 
     97 H97        18.5278  -29.3290  -39.1266 H         1 UNK         0.0839 
     98 H98        18.7709  -28.4524  -40.6242 H         1 UNK         0.0839 
     99 H99        19.6277  -27.9646  -39.1588 H         1 UNK         0.0839 
    100 H100       22.5536  -28.8212  -39.0598 H         1 UNK         0.2998 
    101 H101       22.5559  -30.0974  -36.4863 H         1 UNK         0.0822 
    102 H102       23.7033  -27.9298  -36.9129 H         1 UNK         0.0787 
    103 H103       24.8544  -29.1240  -36.3387 H         1 UNK         0.0787 
    104 H104       24.8076  -28.7107  -38.0468 H         1 UNK         0.0787 
    105 H105       23.5750  -31.1943  -39.6548 H         1 UNK         0.3055 
    106 H106       25.2887  -33.3516  -38.5492 H         1 UNK         0.1106 
    107 H107       26.1399  -32.1162  -40.5355 H         1 UNK         0.0828 
    108 H108       25.8301  -33.8027  -40.9118 H         1 UNK         0.0828 
    109 H109       24.7076  -32.5681  -41.4562 H         1 UNK         0.0828 
    110 H110       22.3179  -32.9085  -40.6016 H         1 UNK         0.2931 
    111 H111       21.8188  -35.7708  -40.4906 H         1 UNK         0.0412 
    112 H112       19.5595  -34.2134  -37.5476 H         1 UNK         0.3472 
    113 H113       20.7148  -33.1837  -38.3508 H         1 UNK         0.3472 
    114 H114       21.4124  -34.6604  -42.5729 H         1 UNK         0.0970 
    115 H115       19.9840  -35.4542  -41.9969 H         1 UNK         0.0970 
    116 H116       21.3364  -32.1260  -43.4486 H         1 UNK         0.0612 
    117 H117       20.3799  -33.3346  -44.2695 H         1 UNK         0.0612 
@<TRIPOS>BOND
     1    1    2 1    
     2    1   62 1    
     3    1   63 1    
     4    1   64 1    
     5    2    3 2    
     6    2    4 am   BACKBONE|DICT|INTERRES
     7    4    5 1    
     8    4   65 1    
     9    5    6 1    
    10    5   25 1    
    11    5   66 1    
    12    6    7 1    
    13    6   67 1    
    14    6   68 1    
    15    7    8 1    
    16    8    9 1    
    17    8   69 1    
    18    8   70 1    
    19    9   10 ar   
    20    9   14 ar   
    21   10   11 ar   
    22   10   71 1    
    23   11   12 ar   
    24   11   61 1    
    25   12   13 ar   
    26   12   72 1    
    27   13   14 ar   
    28   13   15 1    
    29   14   73 1    
    30   15   16 1    
    31   15   74 1    
    32   15   75 1    
    33   16   17 1    
    34   17   18 1    
    35   17   76 1    
    36   17   77 1    
    37   18   19 1    
    38   18   27 1    
    39   18   78 1    
    40   19   20 am   BACKBONE|DICT|INTERRES
    41   19   79 1    
    42   20   21 2    
    43   20   22 1    
    44   22   23 1    
    45   22   24 1    
    46   22   80 1    
    47   23   81 1    
    48   23   82 1    
    49   23   83 1    
    50   24   25 am   BACKBONE|DICT|INTERRES
    51   24   84 1    
    52   25   26 2    
    53   27   28 2    
    54   27   29 am   BACKBONE|DICT|INTERRES
    55   29   30 1    
    56   29   85 1    
    57   30   31 1    
    58   30   32 1    
    59   30   86 1    
    60   31   87 1    
    61   31   88 1    
    62   31   89 1    
    63   32   33 2    
    64   32   34 am   BACKBONE|DICT|INTERRES
    65   34   35 1    
    66   34   90 1    
    67   35   36 1    
    68   35   37 1    
    69   35   91 1    
    70   36   92 1    
    71   36   93 1    
    72   36   94 1    
    73   37   38 2    
    74   37   39 am   BACKBONE|DICT|INTERRES
    75   39   40 1    
    76   39   95 1    
    77   40   41 1    
    78   40   42 1    
    79   40   96 1    
    80   41   97 1    
    81   41   98 1    
    82   41   99 1    
    83   42   43 2    
    84   42   44 am   BACKBONE|DICT|INTERRES
    85   44   45 1    
    86   44  100 1    
    87   45   46 1    
    88   45   47 1    
    89   45  101 1    
    90   46  102 1    
    91   46  103 1    
    92   46  104 1    
    93   47   48 2    
    94   47   49 am   BACKBONE|DICT|INTERRES
    95   49   50 1    
    96   49  105 1    
    97   50   51 1    
    98   50   52 1    
    99   50  106 1    
   100   51  107 1    
   101   51  108 1    
   102   51  109 1    
   103   52   53 2    
   104   52   54 am   BACKBONE|DICT|INTERRES
   105   54   55 1    
   106   54  110 1    
   107   55   56 1    
   108   55   59 1    
   109   55  111 1    
   110   56   57 am   BACKBONE|DICT|INTERRES
   111   56   58 2    
   112   57  112 1    
   113   57  113 1    
   114   59   60 1    
   115   59  114 1    
   116   59  115 1    
   117   60   61 1    
   118   61  116 1    
   119   61  117 1    
@<TRIPOS>SUBSTRUCTURE
     1 UNK         1 GROUP             0       ****    0 ROOT    
