@<TRIPOS>MOLECULE
3R8
117   119    1
SMALL
USER_CHARGES


@<TRIPOS>ATOM
      1 CA         15.1825  -23.6194  -45.7150 C.3       0 UNK        -0.2013 
      2 C          15.9639  -24.8411  -45.2567 C.2       0 UNK         0.4866 
      3 O          17.1922  -24.7909  -45.1824 O.2       0 UNK        -0.5176 
      4 N          15.2643  -25.9376  -44.9374 N.am      1 UNK        -0.4884 
      5 CA         15.8319  -27.2138  -44.4822 C.3       1 UNK         0.0853 
      6 C6         14.8791  -28.3986  -44.7903 C.3       10 UNK        -0.0849 
      7 S7         15.0148  -28.8741  -46.5461 S.3       10 UNK        -0.2776 
      8 C8         16.1236  -30.3224  -46.4530 C.3       10 UNK         0.0316 
      9 C9         17.4174  -30.0308  -45.6990 C.ar      10 UNK        -0.0863 
     10 C10        17.5862  -30.4953  -44.3912 C.ar      10 UNK        -0.1009 
     11 C11        18.7699  -30.2459  -43.6908 C.ar      10 UNK        -0.0712 
     12 C12        19.7936  -29.5231  -44.3094 C.ar      10 UNK        -0.0894 
     13 C13        19.6335  -29.0388  -45.6118 C.ar      10 UNK        -0.0745 
     14 C14        18.4450  -29.3001  -46.3031 C.ar      10 UNK        -0.0972 
     15 C15        20.7473  -28.2489  -46.2838 C.3       10 UNK         0.0209 
     16 S16        20.7381  -26.4973  -45.7826 S.3       10 UNK        -0.2568 
     17 C17        21.8774  -26.5078  -44.3568 C.3       10 UNK        -0.0983 
     18 CA         21.3726  -25.6600  -43.1623 C.3       3 UNK         0.0876 
     19 N          20.0643  -26.1092  -42.6785 N.am      3 UNK        -0.4424 
     20 C          19.3203  -25.4761  -41.7610 C.2       2 UNK         0.4918 
     21 O          19.6547  -24.4253  -41.2107 O.2       2 UNK        -0.4875 
     22 CA         17.9454  -26.0960  -41.4709 C.3       2 UNK         0.0481 
     23 CB         17.0793  -25.2464  -40.5190 C.3       2 UNK        -0.1831 
     24 N          17.2639  -26.2919  -42.7450 N.am      2 UNK        -0.4498 
     25 C          16.2733  -27.1480  -43.0048 C.2       1 UNK         0.5027 
     26 O          15.7278  -27.8478  -42.1497 O.2       1 UNK        -0.4969 
     27 C          22.4307  -25.6710  -42.0409 C.2       3 UNK         0.5005 
     28 O          22.4320  -26.5817  -41.2091 O.2       3 UNK        -0.5279 
     29 N          23.3418  -24.6881  -42.0730 N.am      4 UNK        -0.4463 
     30 CA         24.5199  -24.6337  -41.2013 C.3       4 UNK         0.0283 
     31 CB         25.1109  -23.2150  -41.2228 C.3       4 UNK        -0.1875 
     32 C          25.5877  -25.6696  -41.5964 C.2       4 UNK         0.4949 
     33 O          26.3247  -26.1410  -40.7305 O.2       4 UNK        -0.5039 
     34 N          25.6450  -26.0110  -42.8916 N.am      5 UNK        -0.4663 
     35 CA         26.4621  -27.0951  -43.4324 C.3       5 UNK         0.0242 
     36 CB         26.5356  -26.9595  -44.9615 C.3       5 UNK        -0.1982 
     37 C          25.8606  -28.4515  -43.0352 C.2       5 UNK         0.5017 
     38 O          24.6625  -28.6615  -43.2441 O.2       5 UNK        -0.5012 
     39 N          26.6945  -29.3319  -42.4632 N.am      6 UNK        -0.4439 
     40 CA         26.3899  -30.6651  -41.9204 C.3       6 UNK         0.0297 
     41 CB         25.8334  -31.6162  -43.0011 C.3       6 UNK        -0.2006 
     42 C          25.4844  -30.6526  -40.6737 C.2       6 UNK         0.4892 
     43 O          25.8304  -31.2990  -39.6840 O.2       6 UNK        -0.5089 
     44 N          24.3529  -29.9362  -40.7444 N.am      7 UNK        -0.4243 
     45 CA         23.2878  -29.7555  -39.7463 C.3       7 UNK         0.0196 
     46 CB         23.8160  -29.0697  -38.4714 C.3       7 UNK        -0.2007 
     47 C          22.5089  -31.0402  -39.4155 C.2       7 UNK         0.5020 
     48 O          21.2806  -31.0426  -39.4940 O.2       7 UNK        -0.5147 
     49 N          23.2234  -32.1212  -39.0874 N.am      8 UNK        -0.4734 
     50 CA         22.6937  -33.4649  -38.8553 C.3       8 UNK         0.0238 
     51 CB         23.6649  -34.2281  -37.9352 C.3       8 UNK        -0.1912 
     52 C          22.4488  -34.1872  -40.1937 C.2       8 UNK         0.5038 
     53 O          23.1184  -35.1773  -40.4966 O.2       8 UNK        -0.5046 
     54 N          21.5187  -33.6452  -40.9870 N.am      9 UNK        -0.4200 
     55 CA         21.0760  -34.1816  -42.2803 C.3       9 UNK         0.0839 
     56 C          20.3724  -35.5660  -42.1766 C.2       9 UNK         0.5513 
     57 N          20.3654  -36.3352  -43.2576 N.am      9 UNK        -0.7519 
     58 O          19.8143  -35.9385  -41.1455 O.2       9 UNK        -0.4960 
     59 C59        20.2212  -33.1440  -43.0563 C.3       10 UNK        -0.0876 
     60 S60        18.7538  -32.5545  -42.1360 S.3       10 UNK        -0.2414 
     61 C61        18.9340  -30.7456  -42.2612 C.3       10 UNK         0.0169 
     62 H62        14.1096  -23.8059  -45.7387 H         1 UNK         0.0903 
     63 H63        15.3669  -22.7827  -45.0427 H         1 UNK         0.0903 
     64 H64        15.4977  -23.3273  -46.7160 H         1 UNK         0.0903 
     65 H65        14.2563  -25.9121  -45.0017 H         1 UNK         0.3096 
     66 H66        16.7573  -27.3807  -45.0381 H         1 UNK         0.1121 
     67 H67        15.0965  -29.2749  -44.1787 H         1 UNK         0.0849 
     68 H68        13.8441  -28.1375  -44.5643 H         1 UNK         0.0849 
     69 H69        16.3608  -30.6520  -47.4655 H         1 UNK         0.0865 
     70 H70        15.5877  -31.1504  -45.9860 H         1 UNK         0.0865 
     71 H71        16.7962  -31.0575  -43.9121 H         1 UNK         0.1346 
     72 H72        20.7147  -29.3380  -43.7754 H         1 UNK         0.1412 
     73 H73        18.3149  -28.9311  -47.3116 H         1 UNK         0.1426 
     74 H74        21.7167  -28.7011  -46.0687 H         1 UNK         0.0716 
     75 H75        20.6327  -28.2953  -47.3678 H         1 UNK         0.0716 
     76 H76        22.0680  -27.5336  -44.0388 H         1 UNK         0.0695 
     77 H77        22.8369  -26.1287  -44.7139 H         1 UNK         0.0695 
     78 H78        21.2474  -24.6294  -43.5020 H         1 UNK         0.0983 
     79 H79        19.7100  -26.9587  -43.0914 H         1 UNK         0.3095 
     80 H80        18.1220  -27.0698  -41.0097 H         1 UNK         0.0454 
     81 H81        16.8619  -24.2655  -40.9427 H         1 UNK         0.0851 
     82 H82        16.1297  -25.7341  -40.2997 H         1 UNK         0.0851 
     83 H83        17.5860  -25.0878  -39.5665 H         1 UNK         0.0851 
     84 H84        17.5952  -25.7201  -43.5202 H         1 UNK         0.2976 
     85 H85        23.2621  -23.9649  -42.7743 H         1 UNK         0.3116 
     86 H86        24.2047  -24.8561  -40.1794 H         1 UNK         0.0646 
     87 H87        25.9745  -23.1442  -40.5599 H         1 UNK         0.0847 
     88 H88        24.3844  -22.4764  -40.8838 H         1 UNK         0.0847 
     89 H89        25.4434  -22.9275  -42.2209 H         1 UNK         0.0847 
     90 H90        24.9838  -25.5883  -43.5246 H         1 UNK         0.3040 
     91 H91        27.4717  -27.0067  -43.0251 H         1 UNK         0.1015 
     92 H92        26.9726  -26.0049  -45.2553 H         1 UNK         0.0786 
     93 H93        25.5500  -27.0340  -45.4229 H         1 UNK         0.0786 
     94 H94        27.1566  -27.7461  -45.3920 H         1 UNK         0.0786 
     95 H95        27.6500  -29.0334  -42.3173 H         1 UNK         0.3172 
     96 H96        27.3517  -31.0719  -41.6003 H         1 UNK         0.0595 
     97 H97        25.7118  -32.6250  -42.6039 H         1 UNK         0.0839 
     98 H98        26.5085  -31.6847  -43.8545 H         1 UNK         0.0839 
     99 H99        24.8573  -31.2975  -43.3703 H         1 UNK         0.0839 
    100 H100       24.1972  -29.4534  -41.6275 H         1 UNK         0.2998 
    101 H101       22.5723  -29.0732  -40.2080 H         1 UNK         0.0822 
    102 H102       24.2901  -28.1166  -38.7072 H         1 UNK         0.0787 
    103 H103       23.0008  -28.8630  -37.7763 H         1 UNK         0.0787 
    104 H104       24.5446  -29.6861  -37.9436 H         1 UNK         0.0787 
    105 H105       24.2366  -32.0222  -39.1126 H         1 UNK         0.3055 
    106 H106       21.7321  -33.3909  -38.3414 H         1 UNK         0.1106 
    107 H107       23.2985  -35.2348  -37.7300 H         1 UNK         0.0828 
    108 H108       24.6553  -34.3244  -38.3827 H         1 UNK         0.0828 
    109 H109       23.7792  -33.7242  -36.9752 H         1 UNK         0.0828 
    110 H110       21.0268  -32.8246  -40.6530 H         1 UNK         0.2931 
    111 H111       21.9854  -34.3436  -42.8637 H         1 UNK         0.0412 
    112 H112       19.9060  -37.2325  -43.2183 H         1 UNK         0.3472 
    113 H113       20.8166  -36.0421  -44.1107 H         1 UNK         0.3472 
    114 H114       19.8881  -33.5511  -44.0129 H         1 UNK         0.0970 
    115 H115       20.8504  -32.2902  -43.3126 H         1 UNK         0.0970 
    116 H116       18.1760  -30.2726  -41.6351 H         1 UNK         0.0612 
    117 H117       19.9009  -30.4520  -41.8494 H         1 UNK         0.0612 
@<TRIPOS>BOND
     1    1    2 1    
     2    1   62 1    
     3    1   63 1    
     4    1   64 1    
     5    2    3 2    
     6    2    4 am   BACKBONE|DICT|INTERRES
     7    4    5 1    
     8    4   65 1    
     9    5    6 1    
    10    5   25 1    
    11    5   66 1    
    12    6    7 1    
    13    6   67 1    
    14    6   68 1    
    15    7    8 1    
    16    8    9 1    
    17    8   69 1    
    18    8   70 1    
    19    9   10 ar   
    20    9   14 ar   
    21   10   11 ar   
    22   10   71 1    
    23   11   12 ar   
    24   11   61 1    
    25   12   13 ar   
    26   12   72 1    
    27   13   14 ar   
    28   13   15 1    
    29   14   73 1    
    30   15   16 1    
    31   15   74 1    
    32   15   75 1    
    33   16   17 1    
    34   17   18 1    
    35   17   76 1    
    36   17   77 1    
    37   18   19 1    
    38   18   27 1    
    39   18   78 1    
    40   19   20 am   BACKBONE|DICT|INTERRES
    41   19   79 1    
    42   20   21 2    
    43   20   22 1    
    44   22   23 1    
    45   22   24 1    
    46   22   80 1    
    47   23   81 1    
    48   23   82 1    
    49   23   83 1    
    50   24   25 am   BACKBONE|DICT|INTERRES
    51   24   84 1    
    52   25   26 2    
    53   27   28 2    
    54   27   29 am   BACKBONE|DICT|INTERRES
    55   29   30 1    
    56   29   85 1    
    57   30   31 1    
    58   30   32 1    
    59   30   86 1    
    60   31   87 1    
    61   31   88 1    
    62   31   89 1    
    63   32   33 2    
    64   32   34 am   BACKBONE|DICT|INTERRES
    65   34   35 1    
    66   34   90 1    
    67   35   36 1    
    68   35   37 1    
    69   35   91 1    
    70   36   92 1    
    71   36   93 1    
    72   36   94 1    
    73   37   38 2    
    74   37   39 am   BACKBONE|DICT|INTERRES
    75   39   40 1    
    76   39   95 1    
    77   40   41 1    
    78   40   42 1    
    79   40   96 1    
    80   41   97 1    
    81   41   98 1    
    82   41   99 1    
    83   42   43 2    
    84   42   44 am   BACKBONE|DICT|INTERRES
    85   44   45 1    
    86   44  100 1    
    87   45   46 1    
    88   45   47 1    
    89   45  101 1    
    90   46  102 1    
    91   46  103 1    
    92   46  104 1    
    93   47   48 2    
    94   47   49 am   BACKBONE|DICT|INTERRES
    95   49   50 1    
    96   49  105 1    
    97   50   51 1    
    98   50   52 1    
    99   50  106 1    
   100   51  107 1    
   101   51  108 1    
   102   51  109 1    
   103   52   53 2    
   104   52   54 am   BACKBONE|DICT|INTERRES
   105   54   55 1    
   106   54  110 1    
   107   55   56 1    
   108   55   59 1    
   109   55  111 1    
   110   56   57 am   BACKBONE|DICT|INTERRES
   111   56   58 2    
   112   57  112 1    
   113   57  113 1    
   114   59   60 1    
   115   59  114 1    
   116   59  115 1    
   117   60   61 1    
   118   61  116 1    
   119   61  117 1    
@<TRIPOS>SUBSTRUCTURE
     1 UNK         1 GROUP             0       ****    0 ROOT    
