@<TRIPOS>MOLECULE
3R8
117   119    1
SMALL
USER_CHARGES


@<TRIPOS>ATOM
      1 CA         14.5871  -24.3687  -42.4519 C.3       0 UNK        -0.2013 
      2 C          13.6035  -25.4659  -42.8535 C.2       0 UNK         0.4866 
      3 O          12.4831  -25.4834  -42.3472 O.2       0 UNK        -0.5176 
      4 N          13.9542  -26.3889  -43.7608 N.am      1 UNK        -0.4884 
      5 CA         15.2687  -26.5621  -44.3899 C.3       1 UNK         0.0853 
      6 C6         15.1718  -27.5153  -45.6071 C.3       10 UNK        -0.0849 
      7 S7         16.6323  -27.4323  -46.7044 S.3       10 UNK        -0.2776 
      8 C8         17.0539  -29.1927  -46.9166 C.3       10 UNK         0.0316 
      9 C9         18.0278  -29.7084  -45.8625 C.ar      10 UNK        -0.0863 
     10 C10        17.5598  -30.2461  -44.6593 C.ar      10 UNK        -0.1009 
     11 C11        18.4480  -30.8138  -43.7389 C.ar      10 UNK        -0.0712 
     12 C12        19.8169  -30.8278  -44.0238 C.ar      10 UNK        -0.0894 
     13 C13        20.3017  -30.2900  -45.2196 C.ar      10 UNK        -0.0745 
     14 C14        19.4003  -29.7281  -46.1314 C.ar      10 UNK        -0.0972 
     15 C15        21.7816  -30.4192  -45.5660 C.3       10 UNK         0.0209 
     16 S16        22.5356  -28.8725  -46.1692 S.3       10 UNK        -0.2568 
     17 C17        23.1632  -28.0985  -44.6438 C.3       10 UNK        -0.0983 
     18 CA         22.3100  -26.8773  -44.2284 C.3       3 UNK         0.0876 
     19 N          21.0236  -27.2934  -43.6688 N.am      3 UNK        -0.4424 
     20 C          19.9464  -26.5077  -43.6070 C.2       2 UNK         0.4918 
     21 O          19.8798  -25.3851  -44.1160 O.2       2 UNK        -0.4875 
     22 CA         18.7444  -27.0527  -42.8324 C.3       2 UNK         0.0481 
     23 CB         18.7662  -26.5744  -41.3691 C.3       2 UNK        -0.1831 
     24 N          17.5463  -26.5931  -43.5204 N.am      2 UNK        -0.4498 
     25 C          16.3089  -27.0722  -43.3728 C.2       1 UNK         0.5027 
     26 O          15.9735  -27.8917  -42.5158 O.2       1 UNK        -0.4969 
     27 C          23.0648  -26.0105  -43.2025 C.2       3 UNK         0.5005 
     28 O          22.8929  -26.2001  -41.9959 O.2       3 UNK        -0.5279 
     29 N          23.9358  -25.1140  -43.6889 N.am      4 UNK        -0.4463 
     30 CA         24.7765  -24.2353  -42.8616 C.3       4 UNK         0.0283 
     31 CB         25.5164  -23.2349  -43.7640 C.3       4 UNK        -0.1875 
     32 C          25.7764  -24.9944  -41.9678 C.2       4 UNK         0.4949 
     33 O          26.0971  -24.5224  -40.8776 O.2       4 UNK        -0.5039 
     34 N          26.2197  -26.1693  -42.4337 N.am      5 UNK        -0.4663 
     35 CA         27.0649  -27.1099  -41.6934 C.3       5 UNK         0.0242 
     36 CB         28.0048  -27.8067  -42.6937 C.3       5 UNK        -0.1982 
     37 C          26.2490  -28.1501  -40.8984 C.2       5 UNK         0.5017 
     38 O          26.8488  -29.0671  -40.3347 O.2       5 UNK        -0.5012 
     39 N          24.9112  -28.0271  -40.8934 N.am      6 UNK        -0.4439 
     40 CA         23.9027  -28.9471  -40.3529 C.3       6 UNK         0.0297 
     41 CB         24.0758  -29.1785  -38.8389 C.3       6 UNK        -0.2006 
     42 C          23.8177  -30.2626  -41.1438 C.2       6 UNK         0.4892 
     43 O          22.7749  -30.5367  -41.7400 O.2       6 UNK        -0.5089 
     44 N          24.9206  -31.0242  -41.1664 N.am      7 UNK        -0.4243 
     45 CA         25.1149  -32.3048  -41.8526 C.3       7 UNK         0.0196 
     46 CB         25.2033  -32.0881  -43.3801 C.3       7 UNK        -0.2007 
     47 C          24.0641  -33.3467  -41.4257 C.2       7 UNK         0.5020 
     48 O          24.1939  -33.9221  -40.3451 O.2       7 UNK        -0.5147 
     49 N          23.0452  -33.5640  -42.2673 N.am      8 UNK        -0.4734 
     50 CA         21.9056  -34.4419  -41.9898 C.3       8 UNK         0.0238 
     51 CB         21.1847  -34.7566  -43.3115 C.3       8 UNK        -0.1912 
     52 C          20.9121  -33.8575  -40.9675 C.2       8 UNK         0.5038 
     53 O          20.1759  -34.6275  -40.3491 O.2       8 UNK        -0.5046 
     54 N          20.8871  -32.5260  -40.8272 N.am      9 UNK        -0.4200 
     55 CA         20.0372  -31.7915  -39.8810 C.3       9 UNK         0.0839 
     56 C          20.6847  -31.6854  -38.4727 C.2       9 UNK         0.5513 
     57 N          19.9298  -31.2237  -37.4850 N.am      9 UNK        -0.7519 
     58 O          21.8521  -32.0042  -38.2594 O.2       9 UNK        -0.4960 
     59 C59        19.6236  -30.4058  -40.4668 C.3       10 UNK        -0.0876 
     60 S60        17.8901  -30.3806  -41.0309 S.3       10 UNK        -0.2414 
     61 C61        17.9161  -31.4849  -42.4793 C.3       10 UNK         0.0169 
     62 H62        15.3874  -24.7724  -41.8326 H         1 UNK         0.0903 
     63 H63        15.0229  -23.8811  -43.3229 H         1 UNK         0.0903 
     64 H64        14.0785  -23.5992  -41.8713 H         1 UNK         0.0903 
     65 H65        13.2816  -27.1100  -43.9793 H         1 UNK         0.3096 
     66 H66        15.5878  -25.5856  -44.7595 H         1 UNK         0.1121 
     67 H67        14.9907  -28.5414  -45.2821 H         1 UNK         0.0849 
     68 H68        14.3089  -27.2447  -46.2181 H         1 UNK         0.0849 
     69 H69        16.1471  -29.7994  -46.9241 H         1 UNK         0.0865 
     70 H70        17.4930  -29.3184  -47.9076 H         1 UNK         0.0865 
     71 H71        16.4992  -30.2529  -44.4496 H         1 UNK         0.1346 
     72 H72        20.5022  -31.2933  -43.3304 H         1 UNK         0.1412 
     73 H73        19.7669  -29.3380  -47.0711 H         1 UNK         0.1426 
     74 H74        22.3489  -30.7957  -44.7152 H         1 UNK         0.0716 
     75 H75        21.8784  -31.1719  -46.3493 H         1 UNK         0.0716 
     76 H76        23.2236  -28.8308  -43.8376 H         1 UNK         0.0695 
     77 H77        24.1925  -27.8015  -44.8539 H         1 UNK         0.0695 
     78 H78        22.1251  -26.2607  -45.1115 H         1 UNK         0.0983 
     79 H79        21.0055  -28.1964  -43.2197 H         1 UNK         0.3095 
     80 H80        18.7709  -28.1422  -42.8618 H         1 UNK         0.0454 
     81 H81        18.6956  -25.4884  -41.2999 H         1 UNK         0.0851 
     82 H82        17.9438  -27.0031  -40.7966 H         1 UNK         0.0851 
     83 H83        19.6917  -26.8747  -40.8758 H         1 UNK         0.0851 
     84 H84        17.7418  -25.9323  -44.2631 H         1 UNK         0.2976 
     85 H85        24.0298  -25.0159  -44.6906 H         1 UNK         0.3116 
     86 H86        24.1138  -23.6719  -42.2011 H         1 UNK         0.0646 
     87 H87        26.1287  -22.5541  -43.1707 H         1 UNK         0.0847 
     88 H88        24.8189  -22.6225  -44.3357 H         1 UNK         0.0847 
     89 H89        26.1801  -23.7377  -44.4686 H         1 UNK         0.0847 
     90 H90        25.9113  -26.4639  -43.3489 H         1 UNK         0.3040 
     91 H91        27.6776  -26.5642  -40.9721 H         1 UNK         0.1015 
     92 H92        28.6014  -27.0822  -43.2484 H         1 UNK         0.0786 
     93 H93        27.4522  -28.4105  -43.4149 H         1 UNK         0.0786 
     94 H94        28.7033  -28.4700  -42.1815 H         1 UNK         0.0786 
     95 H95        24.5113  -27.2248  -41.3699 H         1 UNK         0.3172 
     96 H96        22.9447  -28.4424  -40.4874 H         1 UNK         0.0595 
     97 H97        23.2387  -29.7495  -38.4384 H         1 UNK         0.0839 
     98 H98        24.1079  -28.2336  -38.2967 H         1 UNK         0.0839 
     99 H99        24.9844  -29.7313  -38.6006 H         1 UNK         0.0839 
    100 H100       25.7272  -30.6612  -40.6670 H         1 UNK         0.2998 
    101 H101       26.0799  -32.6912  -41.5208 H         1 UNK         0.0822 
    102 H102       26.0594  -31.4620  -43.6324 H         1 UNK         0.0787 
    103 H103       25.3343  -33.0347  -43.9064 H         1 UNK         0.0787 
    104 H104       24.3174  -31.6009  -43.7844 H         1 UNK         0.0787 
    105 H105       23.0181  -33.0325  -43.1249 H         1 UNK         0.3055 
    106 H106       22.2854  -35.3778  -41.5732 H         1 UNK         0.1106 
    107 H107       20.3460  -35.4345  -43.1463 H         1 UNK         0.0828 
    108 H108       20.7863  -33.8567  -43.7817 H         1 UNK         0.0828 
    109 H109       21.8533  -35.2408  -44.0235 H         1 UNK         0.0828 
    110 H110       21.5953  -31.9714  -41.2992 H         1 UNK         0.2931 
    111 H111       19.1343  -32.3851  -39.7235 H         1 UNK         0.0412 
    112 H112       20.3255  -31.1443  -36.5611 H         1 UNK         0.3472 
    113 H113       18.9682  -30.9636  -37.6427 H         1 UNK         0.3472 
    114 H114       20.2692  -30.0950  -41.2869 H         1 UNK         0.0970 
    115 H115       19.7181  -29.6072  -39.7286 H         1 UNK         0.0970 
    116 H116       18.4928  -32.3827  -42.2576 H         1 UNK         0.0612 
    117 H117       16.8963  -31.8298  -42.6558 H         1 UNK         0.0612 
@<TRIPOS>BOND
     1    1    2 1    
     2    1   62 1    
     3    1   63 1    
     4    1   64 1    
     5    2    3 2    
     6    2    4 am   BACKBONE|DICT|INTERRES
     7    4    5 1    
     8    4   65 1    
     9    5    6 1    
    10    5   25 1    
    11    5   66 1    
    12    6    7 1    
    13    6   67 1    
    14    6   68 1    
    15    7    8 1    
    16    8    9 1    
    17    8   69 1    
    18    8   70 1    
    19    9   10 ar   
    20    9   14 ar   
    21   10   11 ar   
    22   10   71 1    
    23   11   12 ar   
    24   11   61 1    
    25   12   13 ar   
    26   12   72 1    
    27   13   14 ar   
    28   13   15 1    
    29   14   73 1    
    30   15   16 1    
    31   15   74 1    
    32   15   75 1    
    33   16   17 1    
    34   17   18 1    
    35   17   76 1    
    36   17   77 1    
    37   18   19 1    
    38   18   27 1    
    39   18   78 1    
    40   19   20 am   BACKBONE|DICT|INTERRES
    41   19   79 1    
    42   20   21 2    
    43   20   22 1    
    44   22   23 1    
    45   22   24 1    
    46   22   80 1    
    47   23   81 1    
    48   23   82 1    
    49   23   83 1    
    50   24   25 am   BACKBONE|DICT|INTERRES
    51   24   84 1    
    52   25   26 2    
    53   27   28 2    
    54   27   29 am   BACKBONE|DICT|INTERRES
    55   29   30 1    
    56   29   85 1    
    57   30   31 1    
    58   30   32 1    
    59   30   86 1    
    60   31   87 1    
    61   31   88 1    
    62   31   89 1    
    63   32   33 2    
    64   32   34 am   BACKBONE|DICT|INTERRES
    65   34   35 1    
    66   34   90 1    
    67   35   36 1    
    68   35   37 1    
    69   35   91 1    
    70   36   92 1    
    71   36   93 1    
    72   36   94 1    
    73   37   38 2    
    74   37   39 am   BACKBONE|DICT|INTERRES
    75   39   40 1    
    76   39   95 1    
    77   40   41 1    
    78   40   42 1    
    79   40   96 1    
    80   41   97 1    
    81   41   98 1    
    82   41   99 1    
    83   42   43 2    
    84   42   44 am   BACKBONE|DICT|INTERRES
    85   44   45 1    
    86   44  100 1    
    87   45   46 1    
    88   45   47 1    
    89   45  101 1    
    90   46  102 1    
    91   46  103 1    
    92   46  104 1    
    93   47   48 2    
    94   47   49 am   BACKBONE|DICT|INTERRES
    95   49   50 1    
    96   49  105 1    
    97   50   51 1    
    98   50   52 1    
    99   50  106 1    
   100   51  107 1    
   101   51  108 1    
   102   51  109 1    
   103   52   53 2    
   104   52   54 am   BACKBONE|DICT|INTERRES
   105   54   55 1    
   106   54  110 1    
   107   55   56 1    
   108   55   59 1    
   109   55  111 1    
   110   56   57 am   BACKBONE|DICT|INTERRES
   111   56   58 2    
   112   57  112 1    
   113   57  113 1    
   114   59   60 1    
   115   59  114 1    
   116   59  115 1    
   117   60   61 1    
   118   61  116 1    
   119   61  117 1    
@<TRIPOS>SUBSTRUCTURE
     1 UNK         1 GROUP             0       ****    0 ROOT    
