@<TRIPOS>MOLECULE
3R8
117   119    1
SMALL
USER_CHARGES


@<TRIPOS>ATOM
      1 CA         13.0208  -24.0236  -47.0734 C.3       0 UNK        -0.2013 
      2 C          14.0783  -24.8527  -46.3602 C.2       0 UNK         0.4866 
      3 O          13.8576  -26.0357  -46.0990 O.2       0 UNK        -0.5176 
      4 N          15.2255  -24.2450  -46.0440 N.am      1 UNK        -0.4884 
      5 CA         16.3691  -24.8789  -45.3927 C.3       1 UNK         0.0853 
      6 C6         16.1531  -25.0288  -43.8620 C.3       10 UNK        -0.0849 
      7 S7         17.3404  -26.1750  -43.0889 S.3       10 UNK        -0.2776 
      8 C8         16.5747  -27.7787  -43.4711 C.3       10 UNK         0.0316 
      9 C9         17.6506  -28.8434  -43.5729 C.ar      10 UNK        -0.0863 
     10 C10        18.0510  -29.5449  -42.4340 C.ar      10 UNK        -0.1009 
     11 C11        19.0780  -30.4886  -42.5089 C.ar      10 UNK        -0.0712 
     12 C12        19.6927  -30.7413  -43.7384 C.ar      10 UNK        -0.0894 
     13 C13        19.3059  -30.0376  -44.8840 C.ar      10 UNK        -0.0745 
     14 C14        18.2756  -29.0973  -44.7974 C.ar      10 UNK        -0.0972 
     15 C15        20.0117  -30.2839  -46.2116 C.3       10 UNK         0.0209 
     16 S16        20.9761  -28.8390  -46.7748 S.3       10 UNK        -0.2568 
     17 C17        22.1609  -28.5942  -45.3996 C.3       10 UNK        -0.0983 
     18 CA         22.2389  -27.1514  -44.8048 C.3       3 UNK         0.0876 
     19 N          21.1952  -26.2354  -45.2839 N.am      3 UNK        -0.4424 
     20 C          21.2254  -24.8997  -45.1538 C.2       2 UNK         0.4918 
     21 O          22.0952  -24.2851  -44.5371 O.2       2 UNK        -0.4875 
     22 CA         20.1135  -24.1073  -45.8522 C.3       2 UNK         0.0481 
     23 CB         20.3894  -23.9971  -47.3645 C.3       2 UNK        -0.1831 
     24 N          18.8016  -24.6998  -45.5981 N.am      2 UNK        -0.4498 
     25 C          17.6301  -24.0717  -45.7523 C.2       1 UNK         0.5027 
     26 O          17.5170  -22.9106  -46.1591 O.2       1 UNK        -0.4969 
     27 C          22.3175  -27.1693  -43.2655 C.2       3 UNK         0.5005 
     28 O          23.3576  -26.8237  -42.7019 O.2       3 UNK        -0.5279 
     29 N          21.2029  -27.5513  -42.6223 N.am      4 UNK        -0.4463 
     30 CA         20.9890  -27.5699  -41.1711 C.3       4 UNK         0.0283 
     31 CB         20.7209  -26.1313  -40.6737 C.3       4 UNK        -0.1875 
     32 C          22.1127  -28.3068  -40.4086 C.2       4 UNK         0.4949 
     33 O          22.4032  -29.4650  -40.7181 O.2       4 UNK        -0.5039 
     34 N          22.7448  -27.6218  -39.4471 N.am      5 UNK        -0.4663 
     35 CA         23.8262  -28.1332  -38.6019 C.3       5 UNK         0.0242 
     36 CB         24.1083  -27.1149  -37.4851 C.3       5 UNK        -0.1982 
     37 C          25.1256  -28.4827  -39.3509 C.2       5 UNK         0.5017 
     38 O          25.9305  -29.2358  -38.8025 O.2       5 UNK        -0.5012 
     39 N          25.3175  -27.9592  -40.5731 N.am      6 UNK        -0.4439 
     40 CA         26.4521  -28.3174  -41.4314 C.3       6 UNK         0.0297 
     41 CB         26.6409  -27.2647  -42.5353 C.3       6 UNK        -0.2006 
     42 C          26.2981  -29.7227  -42.0388 C.2       6 UNK         0.4892 
     43 O          27.3087  -30.3843  -42.2786 O.2       6 UNK        -0.5089 
     44 N          25.0485  -30.1566  -42.2588 N.am      7 UNK        -0.4243 
     45 CA         24.7151  -31.5206  -42.6676 C.3       7 UNK         0.0196 
     46 CB         23.4304  -31.5124  -43.5076 C.3       7 UNK        -0.2007 
     47 C          24.5555  -32.4425  -41.4516 C.2       7 UNK         0.5020 
     48 O          25.0189  -33.5815  -41.5043 O.2       7 UNK        -0.5147 
     49 N          23.9036  -31.9345  -40.3914 N.am      8 UNK        -0.4734 
     50 CA         23.5780  -32.6322  -39.1380 C.3       8 UNK         0.0238 
     51 CB         24.8575  -32.9435  -38.3327 C.3       8 UNK        -0.1912 
     52 C          22.6949  -33.8720  -39.3859 C.2       8 UNK         0.5038 
     53 O          23.0244  -34.9766  -38.9489 O.2       8 UNK        -0.5046 
     54 N          21.6080  -33.6470  -40.1334 N.am      9 UNK        -0.4200 
     55 CA         20.6131  -34.6374  -40.5645 C.3       9 UNK         0.0839 
     56 C          19.9028  -35.3858  -39.3988 C.2       9 UNK         0.5513 
     57 N          19.4153  -36.5935  -39.6501 N.am      9 UNK        -0.7519 
     58 O          19.7615  -34.8768  -38.2883 O.2       9 UNK        -0.4960 
     59 C59        19.6068  -34.0037  -41.5675 C.3       10 UNK        -0.0876 
     60 S60        18.5821  -32.6650  -40.8565 S.3       10 UNK        -0.2414 
     61 C61        19.5582  -31.1809  -41.2449 C.3       10 UNK         0.0169 
     62 H62        13.3487  -22.9968  -47.2353 H         1 UNK         0.0903 
     63 H63        12.1043  -23.9978  -46.4845 H         1 UNK         0.0903 
     64 H64        12.7905  -24.4631  -48.0435 H         1 UNK         0.0903 
     65 H65        15.3993  -23.2834  -46.3150 H         1 UNK         0.3096 
     66 H66        16.4894  -25.8675  -45.8413 H         1 UNK         0.1121 
     67 H67        15.1480  -25.3977  -43.6511 H         1 UNK         0.0849 
     68 H68        16.2208  -24.0593  -43.3646 H         1 UNK         0.0849 
     69 H69        15.8516  -28.0323  -42.6942 H         1 UNK         0.0865 
     70 H70        16.0143  -27.7280  -44.4059 H         1 UNK         0.0865 
     71 H71        17.5814  -29.3370  -41.4820 H         1 UNK         0.1346 
     72 H72        20.4860  -31.4719  -43.8001 H         1 UNK         0.1412 
     73 H73        17.9766  -28.5498  -45.6810 H         1 UNK         0.1426 
     74 H74        20.6765  -31.1467  -46.1443 H         1 UNK         0.0716 
     75 H75        19.2683  -30.5296  -46.9710 H         1 UNK         0.0716 
     76 H76        21.9356  -29.3302  -44.6296 H         1 UNK         0.0695 
     77 H77        23.1471  -28.8803  -45.7684 H         1 UNK         0.0695 
     78 H78        23.1843  -26.7243  -45.1483 H         1 UNK         0.0983 
     79 H79        20.4918  -26.6645  -45.8675 H         1 UNK         0.3095 
     80 H80        20.1209  -23.1014  -45.4264 H         1 UNK         0.0454 
     81 H81        20.3275  -24.9670  -47.8593 H         1 UNK         0.0851 
     82 H82        19.6819  -23.3276  -47.8533 H         1 UNK         0.0851 
     83 H83        21.3873  -23.5980  -47.5513 H         1 UNK         0.0851 
     84 H84        18.7981  -25.6081  -45.1537 H         1 UNK         0.2976 
     85 H85        20.4167  -27.8588  -43.1790 H         1 UNK         0.3116 
     86 H86        20.0814  -28.1463  -40.9970 H         1 UNK         0.0646 
     87 H87        19.8789  -25.6888  -41.2065 H         1 UNK         0.0847 
     88 H88        20.4631  -26.1146  -39.6139 H         1 UNK         0.0847 
     89 H89        21.5802  -25.4767  -40.8258 H         1 UNK         0.0847 
     90 H90        22.4594  -26.6674  -39.2815 H         1 UNK         0.3040 
     91 H91        23.4723  -29.0576  -38.1398 H         1 UNK         0.1015 
     92 H92        24.4463  -26.1588  -37.8868 H         1 UNK         0.0786 
     93 H93        24.8860  -27.4780  -36.8114 H         1 UNK         0.0786 
     94 H94        23.2203  -26.9317  -36.8797 H         1 UNK         0.0786 
     95 H95        24.5992  -27.3700  -40.9816 H         1 UNK         0.3172 
     96 H96        27.3559  -28.3175  -40.8179 H         1 UNK         0.0595 
     97 H97        27.5622  -27.4496  -43.0891 H         1 UNK         0.0839 
     98 H98        26.7079  -26.2583  -42.1220 H         1 UNK         0.0839 
     99 H99        25.8260  -27.2794  -43.2586 H         1 UNK         0.0839 
    100 H100       24.2771  -29.5558  -41.9983 H         1 UNK         0.2998 
    101 H101       25.5179  -31.9247  -43.2885 H         1 UNK         0.0822 
    102 H102       23.0991  -32.5273  -43.7325 H         1 UNK         0.0787 
    103 H103       22.6172  -31.0069  -42.9876 H         1 UNK         0.0787 
    104 H104       23.5938  -31.0108  -44.4605 H         1 UNK         0.0787 
    105 H105       23.5108  -31.0005  -40.4838 H         1 UNK         0.3055 
    106 H106       22.9776  -31.9419  -38.5429 H         1 UNK         0.1106 
    107 H107       25.4422  -32.0406  -38.1558 H         1 UNK         0.0828 
    108 H108       24.6108  -33.3667  -37.3583 H         1 UNK         0.0828 
    109 H109       25.4977  -33.6620  -38.8452 H         1 UNK         0.0828 
    110 H110       21.4244  -32.6986  -40.4183 H         1 UNK         0.2931 
    111 H111       21.1789  -35.3923  -41.1144 H         1 UNK         0.0412 
    112 H112       18.9398  -37.0925  -38.9140 H         1 UNK         0.3472 
    113 H113       19.5188  -37.0210  -40.5577 H         1 UNK         0.3472 
    114 H114       20.1380  -33.6253  -42.4420 H         1 UNK         0.0970 
    115 H115       18.9337  -34.7706  -41.9547 H         1 UNK         0.0970 
    116 H116       20.6156  -31.4257  -41.3357 H         1 UNK         0.0612 
    117 H117       19.4843  -30.4931  -40.4014 H         1 UNK         0.0612 
@<TRIPOS>BOND
     1    1    2 1    
     2    1   62 1    
     3    1   63 1    
     4    1   64 1    
     5    2    3 2    
     6    2    4 am   BACKBONE|DICT|INTERRES
     7    4    5 1    
     8    4   65 1    
     9    5    6 1    
    10    5   25 1    
    11    5   66 1    
    12    6    7 1    
    13    6   67 1    
    14    6   68 1    
    15    7    8 1    
    16    8    9 1    
    17    8   69 1    
    18    8   70 1    
    19    9   10 ar   
    20    9   14 ar   
    21   10   11 ar   
    22   10   71 1    
    23   11   12 ar   
    24   11   61 1    
    25   12   13 ar   
    26   12   72 1    
    27   13   14 ar   
    28   13   15 1    
    29   14   73 1    
    30   15   16 1    
    31   15   74 1    
    32   15   75 1    
    33   16   17 1    
    34   17   18 1    
    35   17   76 1    
    36   17   77 1    
    37   18   19 1    
    38   18   27 1    
    39   18   78 1    
    40   19   20 am   BACKBONE|DICT|INTERRES
    41   19   79 1    
    42   20   21 2    
    43   20   22 1    
    44   22   23 1    
    45   22   24 1    
    46   22   80 1    
    47   23   81 1    
    48   23   82 1    
    49   23   83 1    
    50   24   25 am   BACKBONE|DICT|INTERRES
    51   24   84 1    
    52   25   26 2    
    53   27   28 2    
    54   27   29 am   BACKBONE|DICT|INTERRES
    55   29   30 1    
    56   29   85 1    
    57   30   31 1    
    58   30   32 1    
    59   30   86 1    
    60   31   87 1    
    61   31   88 1    
    62   31   89 1    
    63   32   33 2    
    64   32   34 am   BACKBONE|DICT|INTERRES
    65   34   35 1    
    66   34   90 1    
    67   35   36 1    
    68   35   37 1    
    69   35   91 1    
    70   36   92 1    
    71   36   93 1    
    72   36   94 1    
    73   37   38 2    
    74   37   39 am   BACKBONE|DICT|INTERRES
    75   39   40 1    
    76   39   95 1    
    77   40   41 1    
    78   40   42 1    
    79   40   96 1    
    80   41   97 1    
    81   41   98 1    
    82   41   99 1    
    83   42   43 2    
    84   42   44 am   BACKBONE|DICT|INTERRES
    85   44   45 1    
    86   44  100 1    
    87   45   46 1    
    88   45   47 1    
    89   45  101 1    
    90   46  102 1    
    91   46  103 1    
    92   46  104 1    
    93   47   48 2    
    94   47   49 am   BACKBONE|DICT|INTERRES
    95   49   50 1    
    96   49  105 1    
    97   50   51 1    
    98   50   52 1    
    99   50  106 1    
   100   51  107 1    
   101   51  108 1    
   102   51  109 1    
   103   52   53 2    
   104   52   54 am   BACKBONE|DICT|INTERRES
   105   54   55 1    
   106   54  110 1    
   107   55   56 1    
   108   55   59 1    
   109   55  111 1    
   110   56   57 am   BACKBONE|DICT|INTERRES
   111   56   58 2    
   112   57  112 1    
   113   57  113 1    
   114   59   60 1    
   115   59  114 1    
   116   59  115 1    
   117   60   61 1    
   118   61  116 1    
   119   61  117 1    
@<TRIPOS>SUBSTRUCTURE
     1 UNK         1 GROUP             0       ****    0 ROOT    
