@<TRIPOS>MOLECULE
3R8
117   119    1
SMALL
USER_CHARGES


@<TRIPOS>ATOM
      1 CA         14.3755  -23.9939  -47.8905 C.3       0 UNK        -0.2013 
      2 C          15.8823  -24.1127  -48.0641 C.2       0 UNK         0.4866 
      3 O          16.4109  -23.7361  -49.1107 O.2       0 UNK        -0.5176 
      4 N          16.5775  -24.6280  -47.0469 N.am      1 UNK        -0.4884 
      5 CA         18.0271  -24.8168  -47.0144 C.3       1 UNK         0.0853 
      6 C6         18.4926  -26.0548  -47.8335 C.3       10 UNK        -0.0849 
      7 S7         17.7307  -27.6385  -47.3224 S.3       10 UNK        -0.2776 
      8 C8         19.1188  -28.4018  -46.4261 C.3       10 UNK         0.0316 
      9 C9         18.6494  -29.3729  -45.3524 C.ar      10 UNK        -0.0863 
     10 C10        19.0494  -30.7125  -45.3919 C.ar      10 UNK        -0.1009 
     11 C11        18.6464  -31.6020  -44.3918 C.ar      10 UNK        -0.0712 
     12 C12        17.8205  -31.1493  -43.3605 C.ar      10 UNK        -0.0894 
     13 C13        17.4295  -29.8102  -43.2986 C.ar      10 UNK        -0.0745 
     14 C14        17.8502  -28.9236  -44.2941 C.ar      10 UNK        -0.0972 
     15 C15        16.5559  -29.3380  -42.1483 C.3       10 UNK         0.0209 
     16 S16        17.5387  -29.0768  -40.6378 S.3       10 UNK        -0.2568 
     17 C17        18.1877  -27.3903  -40.8933 C.3       10 UNK        -0.0983 
     18 CA         19.6588  -27.3371  -41.3956 C.3       3 UNK         0.0876 
     19 N          19.8693  -26.0812  -42.1186 N.am      3 UNK        -0.4424 
     20 C          20.4149  -25.9623  -43.3309 C.2       2 UNK         0.4918 
     21 O          20.9341  -26.8862  -43.9557 O.2       2 UNK        -0.4875 
     22 CA         20.3724  -24.5580  -43.9589 C.3       2 UNK         0.0481 
     23 CB         21.7802  -23.9482  -44.0480 C.3       2 UNK        -0.1831 
     24 N          19.7666  -24.5817  -45.2941 N.am      2 UNK        -0.4498 
     25 C          18.4752  -24.8472  -45.5398 C.2       1 UNK         0.5027 
     26 O          17.6460  -25.0887  -44.6561 O.2       1 UNK        -0.4969 
     27 C          20.6856  -27.4901  -40.2483 C.2       3 UNK         0.5005 
     28 O          21.6086  -26.6788  -40.1170 O.2       3 UNK        -0.5279 
     29 N          20.4738  -28.5180  -39.4132 N.am      4 UNK        -0.4463 
     30 CA         21.2224  -28.8706  -38.2041 C.3       4 UNK         0.0283 
     31 CB         21.0448  -27.7910  -37.1114 C.3       4 UNK        -0.1875 
     32 C          22.6881  -29.2165  -38.5174 C.2       4 UNK         0.4949 
     33 O          22.9469  -30.2975  -39.0491 O.2       4 UNK        -0.5039 
     34 N          23.6176  -28.3164  -38.1698 N.am      5 UNK        -0.4663 
     35 CA         25.0514  -28.4646  -38.4264 C.3       5 UNK         0.0242 
     36 CB         25.8245  -27.3917  -37.6434 C.3       5 UNK        -0.1982 
     37 C          25.3995  -28.4005  -39.9222 C.2       5 UNK         0.5017 
     38 O          26.3319  -29.0813  -40.3515 O.2       5 UNK        -0.5012 
     39 N          24.6363  -27.6128  -40.6929 N.am      6 UNK        -0.4439 
     40 CA         24.7297  -27.5675  -42.1501 C.3       6 UNK         0.0297 
     41 CB         24.0707  -26.2860  -42.6711 C.3       6 UNK        -0.2006 
     42 C          24.0812  -28.8265  -42.7441 C.2       6 UNK         0.4892 
     43 O          23.0012  -29.2231  -42.3031 O.2       6 UNK        -0.5089 
     44 N          24.8019  -29.4659  -43.6765 N.am      7 UNK        -0.4243 
     45 CA         24.5307  -30.7819  -44.2789 C.3       7 UNK         0.0196 
     46 CB         23.1819  -30.7855  -45.0314 C.3       7 UNK        -0.2007 
     47 C          24.6456  -31.9739  -43.3003 C.2       7 UNK         0.5020 
     48 O          24.4941  -33.1149  -43.7367 O.2       7 UNK        -0.5147 
     49 N          24.9313  -31.7036  -42.0155 N.am      8 UNK        -0.4734 
     50 CA         25.0367  -32.6406  -40.8887 C.3       8 UNK         0.0238 
     51 CB         26.2709  -33.5527  -41.0535 C.3       8 UNK        -0.1912 
     52 C          23.7415  -33.4331  -40.6107 C.2       8 UNK         0.5038 
     53 O          23.8098  -34.5425  -40.0770 O.2       8 UNK        -0.5046 
     54 N          22.5895  -32.8577  -40.9768 N.am      9 UNK        -0.4200 
     55 CA         21.2606  -33.4638  -40.8091 C.3       9 UNK         0.0839 
     56 C          20.7052  -33.3960  -39.3584 C.2       9 UNK         0.5513 
     57 N          21.2508  -32.5746  -38.4706 N.am      9 UNK        -0.7519 
     58 O          19.7655  -34.1156  -39.0303 O.2       9 UNK        -0.4960 
     59 C59        20.2413  -32.8907  -41.8244 C.3       10 UNK        -0.0876 
     60 S60        20.7105  -33.2406  -43.5543 S.3       10 UNK        -0.2414 
     61 C61        19.1167  -33.0481  -44.4124 C.3       10 UNK         0.0169 
     62 H62        14.0465  -24.3673  -46.9208 H         1 UNK         0.0903 
     63 H63        14.0686  -22.9517  -47.9748 H         1 UNK         0.0903 
     64 H64        13.8631  -24.5644  -48.6646 H         1 UNK         0.0903 
     65 H65        16.1212  -24.8942  -46.1820 H         1 UNK         0.3096 
     66 H66        18.4834  -23.9269  -47.4546 H         1 UNK         0.1121 
     67 H67        19.5804  -26.1403  -47.8143 H         1 UNK         0.0849 
     68 H68        18.2430  -25.9010  -48.8844 H         1 UNK         0.0849 
     69 H69        19.7740  -28.8960  -47.1451 H         1 UNK         0.0865 
     70 H70        19.7178  -27.6270  -45.9556 H         1 UNK         0.0865 
     71 H71        19.6898  -31.0627  -46.1899 H         1 UNK         0.1346 
     72 H72        17.5005  -31.8338  -42.5871 H         1 UNK         0.1412 
     73 H73        17.5581  -27.8827  -44.2491 H         1 UNK         0.1426 
     74 H74        15.7954  -30.0926  -41.9417 H         1 UNK         0.0716 
     75 H75        16.0119  -28.4305  -42.4144 H         1 UNK         0.0716 
     76 H76        18.0693  -26.8269  -39.9654 H         1 UNK         0.0695 
     77 H77        17.5317  -26.8924  -41.6096 H         1 UNK         0.0695 
     78 H78        19.8265  -28.1734  -42.0793 H         1 UNK         0.0983 
     79 H79        19.5411  -25.2498  -41.6500 H         1 UNK         0.3095 
     80 H80        19.7642  -23.9052  -43.3288 H         1 UNK         0.0454 
     81 H81        22.4379  -24.5414  -44.6843 H         1 UNK         0.0851 
     82 H82        22.2425  -23.8903  -43.0619 H         1 UNK         0.0851 
     83 H83        21.7503  -22.9348  -44.4482 H         1 UNK         0.0851 
     84 H84        20.3908  -24.4174  -46.0706 H         1 UNK         0.2976 
     85 H85        19.6877  -29.1203  -39.6248 H         1 UNK         0.3116 
     86 H86        20.7701  -29.7873  -37.8237 H         1 UNK         0.0646 
     87 H87        21.4042  -26.8109  -37.4257 H         1 UNK         0.0847 
     88 H88        21.5779  -28.0635  -36.1994 H         1 UNK         0.0847 
     89 H89        19.9941  -27.6806  -36.8430 H         1 UNK         0.0847 
     90 H90        23.3121  -27.4502  -37.7502 H         1 UNK         0.3040 
     91 H91        25.3605  -29.4469  -38.0613 H         1 UNK         0.1015 
     92 H92        25.5446  -26.3838  -37.9529 H         1 UNK         0.0786 
     93 H93        26.8993  -27.4941  -37.8002 H         1 UNK         0.0786 
     94 H94        25.6460  -27.4767  -36.5712 H         1 UNK         0.0786 
     95 H95        23.8186  -27.1791  -40.2796 H         1 UNK         0.3172 
     96 H96        25.7846  -27.5398  -42.4328 H         1 UNK         0.0595 
     97 H97        24.0481  -26.2704  -43.7614 H         1 UNK         0.0839 
     98 H98        24.6103  -25.3986  -42.3403 H         1 UNK         0.0839 
     99 H99        23.0448  -26.2021  -42.3188 H         1 UNK         0.0839 
    100 H100       25.6856  -29.0539  -43.9450 H         1 UNK         0.2998 
    101 H101       25.3165  -30.9344  -45.0202 H         1 UNK         0.0822 
    102 H102       23.0449  -31.7156  -45.5843 H         1 UNK         0.0787 
    103 H103       22.3337  -30.6914  -44.3527 H         1 UNK         0.0787 
    104 H104       23.1252  -29.9689  -45.7509 H         1 UNK         0.0787 
    105 H105       25.0341  -30.7291  -41.7650 H         1 UNK         0.3055 
    106 H106       25.1973  -32.0249  -40.0018 H         1 UNK         0.1106 
    107 H107       26.4403  -34.1502  -40.1570 H         1 UNK         0.0828 
    108 H108       26.1532  -34.2452  -41.8875 H         1 UNK         0.0828 
    109 H109       27.1751  -32.9690  -41.2259 H         1 UNK         0.0828 
    110 H110       22.6190  -31.9330  -41.3829 H         1 UNK         0.2931 
    111 H111       21.3616  -34.5283  -41.0307 H         1 UNK         0.0412 
    112 H112       21.9925  -31.9370  -38.7442 H         1 UNK         0.3472 
    113 H113       20.8903  -32.5576  -37.5303 H         1 UNK         0.3472 
    114 H114       20.1386  -31.8113  -41.6962 H         1 UNK         0.0970 
    115 H115       19.2532  -33.3200  -41.6487 H         1 UNK         0.0970 
    116 H116       19.2295  -33.3861  -45.4435 H         1 UNK         0.0612 
    117 H117       18.3718  -33.7020  -43.9563 H         1 UNK         0.0612 
@<TRIPOS>BOND
     1    1    2 1    
     2    1   62 1    
     3    1   63 1    
     4    1   64 1    
     5    2    3 2    
     6    2    4 am   BACKBONE|DICT|INTERRES
     7    4    5 1    
     8    4   65 1    
     9    5    6 1    
    10    5   25 1    
    11    5   66 1    
    12    6    7 1    
    13    6   67 1    
    14    6   68 1    
    15    7    8 1    
    16    8    9 1    
    17    8   69 1    
    18    8   70 1    
    19    9   10 ar   
    20    9   14 ar   
    21   10   11 ar   
    22   10   71 1    
    23   11   12 ar   
    24   11   61 1    
    25   12   13 ar   
    26   12   72 1    
    27   13   14 ar   
    28   13   15 1    
    29   14   73 1    
    30   15   16 1    
    31   15   74 1    
    32   15   75 1    
    33   16   17 1    
    34   17   18 1    
    35   17   76 1    
    36   17   77 1    
    37   18   19 1    
    38   18   27 1    
    39   18   78 1    
    40   19   20 am   BACKBONE|DICT|INTERRES
    41   19   79 1    
    42   20   21 2    
    43   20   22 1    
    44   22   23 1    
    45   22   24 1    
    46   22   80 1    
    47   23   81 1    
    48   23   82 1    
    49   23   83 1    
    50   24   25 am   BACKBONE|DICT|INTERRES
    51   24   84 1    
    52   25   26 2    
    53   27   28 2    
    54   27   29 am   BACKBONE|DICT|INTERRES
    55   29   30 1    
    56   29   85 1    
    57   30   31 1    
    58   30   32 1    
    59   30   86 1    
    60   31   87 1    
    61   31   88 1    
    62   31   89 1    
    63   32   33 2    
    64   32   34 am   BACKBONE|DICT|INTERRES
    65   34   35 1    
    66   34   90 1    
    67   35   36 1    
    68   35   37 1    
    69   35   91 1    
    70   36   92 1    
    71   36   93 1    
    72   36   94 1    
    73   37   38 2    
    74   37   39 am   BACKBONE|DICT|INTERRES
    75   39   40 1    
    76   39   95 1    
    77   40   41 1    
    78   40   42 1    
    79   40   96 1    
    80   41   97 1    
    81   41   98 1    
    82   41   99 1    
    83   42   43 2    
    84   42   44 am   BACKBONE|DICT|INTERRES
    85   44   45 1    
    86   44  100 1    
    87   45   46 1    
    88   45   47 1    
    89   45  101 1    
    90   46  102 1    
    91   46  103 1    
    92   46  104 1    
    93   47   48 2    
    94   47   49 am   BACKBONE|DICT|INTERRES
    95   49   50 1    
    96   49  105 1    
    97   50   51 1    
    98   50   52 1    
    99   50  106 1    
   100   51  107 1    
   101   51  108 1    
   102   51  109 1    
   103   52   53 2    
   104   52   54 am   BACKBONE|DICT|INTERRES
   105   54   55 1    
   106   54  110 1    
   107   55   56 1    
   108   55   59 1    
   109   55  111 1    
   110   56   57 am   BACKBONE|DICT|INTERRES
   111   56   58 2    
   112   57  112 1    
   113   57  113 1    
   114   59   60 1    
   115   59  114 1    
   116   59  115 1    
   117   60   61 1    
   118   61  116 1    
   119   61  117 1    
@<TRIPOS>SUBSTRUCTURE
     1 UNK         1 GROUP             0       ****    0 ROOT    
