@<TRIPOS>MOLECULE
3R8
117   119    1
SMALL
USER_CHARGES


@<TRIPOS>ATOM
      1 CA         25.5626  -25.3860  -47.4273 C.3       0 UNK        -0.2013 
      2 C          24.8031  -26.2753  -46.4550 C.2       0 UNK         0.4866 
      3 O          25.3876  -26.7625  -45.4886 O.2       0 UNK        -0.5176 
      4 N          23.5062  -26.4858  -46.6985 N.am      1 UNK        -0.4884 
      5 CA         22.6071  -27.2596  -45.8448 C.3       1 UNK         0.0853 
      6 C6         22.1007  -28.5305  -46.5747 C.3       10 UNK        -0.0849 
      7 S7         21.1199  -29.6410  -45.5036 S.3       10 UNK        -0.2776 
      8 C8         19.4404  -29.3706  -46.1814 C.3       10 UNK         0.0316 
      9 C9         18.3257  -29.9695  -45.3253 C.ar      10 UNK        -0.0863 
     10 C10        18.4728  -31.2246  -44.7273 C.ar      10 UNK        -0.1009 
     11 C11        17.4612  -31.7597  -43.9274 C.ar      10 UNK        -0.0712 
     12 C12        16.2742  -31.0451  -43.7472 C.ar      10 UNK        -0.0894 
     13 C13        16.0954  -29.8013  -44.3604 C.ar      10 UNK        -0.0745 
     14 C14        17.1242  -29.2717  -45.1502 C.ar      10 UNK        -0.0972 
     15 C15        14.7868  -29.0410  -44.1692 C.3       10 UNK         0.0209 
     16 S16        15.0219  -27.3764  -43.4628 S.3       10 UNK        -0.2568 
     17 C17        15.6016  -27.7286  -41.7642 C.3       10 UNK        -0.0983 
     18 CA         17.1323  -27.9621  -41.6778 C.3       3 UNK         0.0876 
     19 N          17.9012  -26.9404  -42.3918 N.am      3 UNK        -0.4424 
     20 C          19.1860  -27.0776  -42.7279 C.2       2 UNK         0.4918 
     21 O          19.8742  -28.0461  -42.3920 O.2       2 UNK        -0.4875 
     22 CA         19.7909  -25.9721  -43.6035 C.3       2 UNK         0.0481 
     23 CB         20.1095  -24.6974  -42.8071 C.3       2 UNK        -0.1831 
     24 N          21.0175  -26.5063  -44.1705 N.am      2 UNK        -0.4498 
     25 C          21.4502  -26.3426  -45.4205 C.2       1 UNK         0.5027 
     26 O          20.9558  -25.5561  -46.2329 O.2       1 UNK        -0.4969 
     27 C          17.6391  -28.0993  -40.2280 C.2       3 UNK         0.5005 
     28 O          17.2983  -27.2714  -39.3806 O.2       3 UNK        -0.5279 
     29 N          18.4915  -29.1117  -40.0040 N.am      4 UNK        -0.4463 
     30 CA         19.2575  -29.3837  -38.7828 C.3       4 UNK         0.0283 
     31 CB         18.3227  -29.7303  -37.6042 C.3       4 UNK        -0.1875 
     32 C          20.2804  -28.2775  -38.4392 C.2       4 UNK         0.4949 
     33 O          20.5449  -28.0421  -37.2592 O.2       4 UNK        -0.5039 
     34 N          20.8611  -27.6346  -39.4625 N.am      5 UNK        -0.4663 
     35 CA         21.9056  -26.6179  -39.3261 C.3       5 UNK         0.0242 
     36 CB         21.2577  -25.2334  -39.1417 C.3       5 UNK        -0.1982 
     37 C          22.8532  -26.6644  -40.5343 C.2       5 UNK         0.5017 
     38 O          22.5170  -27.2688  -41.5554 O.2       5 UNK        -0.5012 
     39 N          24.0351  -26.0457  -40.3960 N.am      6 UNK        -0.4439 
     40 CA         25.1503  -26.0801  -41.3537 C.3       6 UNK         0.0297 
     41 CB         24.7860  -25.3305  -42.6540 C.3       6 UNK        -0.2006 
     42 C          25.6359  -27.5315  -41.5506 C.2       6 UNK         0.4892 
     43 O          26.1694  -28.0983  -40.5954 O.2       6 UNK        -0.5089 
     44 N          25.4069  -28.1290  -42.7317 N.am      7 UNK        -0.4243 
     45 CA         25.6017  -29.5650  -42.9853 C.3       7 UNK         0.0196 
     46 CB         25.3908  -29.8682  -44.4773 C.3       7 UNK        -0.2007 
     47 C          24.7052  -30.4851  -42.1304 C.2       7 UNK         0.5020 
     48 O          25.0725  -31.6419  -41.9237 O.2       7 UNK        -0.5147 
     49 N          23.5646  -29.9625  -41.6509 N.am      8 UNK        -0.4734 
     50 CA         22.6456  -30.5540  -40.6704 C.3       8 UNK         0.0238 
     51 CB         23.2586  -30.4602  -39.2577 C.3       8 UNK        -0.1912 
     52 C          22.1750  -31.9746  -41.0248 C.2       8 UNK         0.5038 
     53 O          22.2441  -32.8759  -40.1868 O.2       8 UNK        -0.5046 
     54 N          21.7209  -32.1369  -42.2731 N.am      9 UNK        -0.4200 
     55 CA         21.2620  -33.4024  -42.8709 C.3       9 UNK         0.0839 
     56 C          22.3970  -34.4263  -43.1786 C.2       9 UNK         0.5513 
     57 N          23.6727  -34.0909  -43.0223 N.am      9 UNK        -0.7519 
     58 O          22.1163  -35.5440  -43.6040 O.2       9 UNK        -0.4960 
     59 C59        20.0682  -34.0638  -42.1151 C.3       10 UNK        -0.0876 
     60 S60        18.6823  -32.9258  -41.7590 S.3       10 UNK        -0.2414 
     61 C61        17.6607  -33.1062  -43.2536 C.3       10 UNK         0.0169 
     62 H62        24.9264  -25.0286  -48.2367 H         1 UNK         0.0903 
     63 H63        25.9667  -24.5198  -46.9041 H         1 UNK         0.0903 
     64 H64        26.3937  -25.9372  -47.8665 H         1 UNK         0.0903 
     65 H65        23.0522  -26.0058  -47.4647 H         1 UNK         0.3096 
     66 H66        23.1285  -27.5726  -44.9381 H         1 UNK         0.1121 
     67 H67        22.9562  -29.1046  -46.9343 H         1 UNK         0.0849 
     68 H68        21.5294  -28.2665  -47.4668 H         1 UNK         0.0849 
     69 H69        19.2794  -28.2974  -46.2943 H         1 UNK         0.0865 
     70 H70        19.3854  -29.8013  -47.1820 H         1 UNK         0.0865 
     71 H71        19.3856  -31.7825  -44.8721 H         1 UNK         0.1346 
     72 H72        15.4898  -31.4598  -43.1286 H         1 UNK         0.1412 
     73 H73        16.9875  -28.3070  -45.6198 H         1 UNK         0.1426 
     74 H74        14.0953  -29.5993  -43.5362 H         1 UNK         0.0716 
     75 H75        14.2989  -28.9410  -45.1396 H         1 UNK         0.0716 
     76 H76        15.0611  -28.5925  -41.3731 H         1 UNK         0.0695 
     77 H77        15.3091  -26.8801  -41.1430 H         1 UNK         0.0695 
     78 H78        17.3353  -28.9117  -42.1743 H         1 UNK         0.0983 
     79 H79        17.3862  -26.1258  -42.6910 H         1 UNK         0.3095 
     80 H80        19.0746  -25.7432  -44.3954 H         1 UNK         0.0454 
     81 H81        20.9381  -24.8553  -42.1184 H         1 UNK         0.0851 
     82 H82        19.2502  -24.3581  -42.2276 H         1 UNK         0.0851 
     83 H83        20.3924  -23.8836  -43.4747 H         1 UNK         0.0851 
     84 H84        21.4458  -27.2079  -43.5731 H         1 UNK         0.2976 
     85 H85        18.7361  -29.6881  -40.7991 H         1 UNK         0.3116 
     86 H86        19.8474  -30.2763  -38.9960 H         1 UNK         0.0646 
     87 H87        17.7461  -28.8654  -37.2751 H         1 UNK         0.0847 
     88 H88        18.8927  -30.0842  -36.7444 H         1 UNK         0.0847 
     89 H89        17.6213  -30.5203  -37.8722 H         1 UNK         0.0847 
     90 H90        20.6283  -27.8802  -40.4214 H         1 UNK         0.3040 
     91 H91        22.5121  -26.8447  -38.4462 H         1 UNK         0.1015 
     92 H92        20.4953  -25.0391  -39.8947 H         1 UNK         0.0786 
     93 H93        21.9936  -24.4303  -39.1973 H         1 UNK         0.0786 
     94 H94        20.7747  -25.1591  -38.1672 H         1 UNK         0.0786 
     95 H95        24.2386  -25.5956  -39.5140 H         1 UNK         0.3172 
     96 H96        25.9763  -25.5407  -40.8877 H         1 UNK         0.0595 
     97 H97        23.9677  -25.8008  -43.1988 H         1 UNK         0.0839 
     98 H98        25.6456  -25.2759  -43.3225 H         1 UNK         0.0839 
     99 H99        24.4861  -24.3047  -42.4409 H         1 UNK         0.0839 
    100 H100       25.0559  -27.5738  -43.5031 H         1 UNK         0.2998 
    101 H101       26.6372  -29.8038  -42.7337 H         1 UNK         0.0822 
    102 H102       26.0878  -29.3078  -45.0999 H         1 UNK         0.0787 
    103 H103       25.5542  -30.9262  -44.6876 H         1 UNK         0.0787 
    104 H104       24.3779  -29.6280  -44.7993 H         1 UNK         0.0787 
    105 H105       23.3475  -29.0002  -41.8972 H         1 UNK         0.3055 
    106 H106       21.7484  -29.9361  -40.6897 H         1 UNK         0.1106 
    107 H107       22.5531  -30.7993  -38.4983 H         1 UNK         0.0828 
    108 H108       24.1560  -31.0736  -39.1689 H         1 UNK         0.0828 
    109 H109       23.5307  -29.4342  -39.0107 H         1 UNK         0.0828 
    110 H110       21.7288  -31.3392  -42.8928 H         1 UNK         0.2931 
    111 H111       20.8924  -33.1190  -43.8553 H         1 UNK         0.0412 
    112 H112       24.3857  -34.7682  -43.2413 H         1 UNK         0.3472 
    113 H113       23.9400  -33.1883  -42.6455 H         1 UNK         0.3472 
    114 H114       19.6862  -34.9193  -42.6747 H         1 UNK         0.0970 
    115 H115       20.4086  -34.4755  -41.1639 H         1 UNK         0.0970 
    116 H116       18.1205  -33.7986  -43.9599 H         1 UNK         0.0612 
    117 H117       16.7012  -33.5448  -42.9758 H         1 UNK         0.0612 
@<TRIPOS>BOND
     1    1    2 1    
     2    1   62 1    
     3    1   63 1    
     4    1   64 1    
     5    2    3 2    
     6    2    4 am   BACKBONE|DICT|INTERRES
     7    4    5 1    
     8    4   65 1    
     9    5    6 1    
    10    5   25 1    
    11    5   66 1    
    12    6    7 1    
    13    6   67 1    
    14    6   68 1    
    15    7    8 1    
    16    8    9 1    
    17    8   69 1    
    18    8   70 1    
    19    9   10 ar   
    20    9   14 ar   
    21   10   11 ar   
    22   10   71 1    
    23   11   12 ar   
    24   11   61 1    
    25   12   13 ar   
    26   12   72 1    
    27   13   14 ar   
    28   13   15 1    
    29   14   73 1    
    30   15   16 1    
    31   15   74 1    
    32   15   75 1    
    33   16   17 1    
    34   17   18 1    
    35   17   76 1    
    36   17   77 1    
    37   18   19 1    
    38   18   27 1    
    39   18   78 1    
    40   19   20 am   BACKBONE|DICT|INTERRES
    41   19   79 1    
    42   20   21 2    
    43   20   22 1    
    44   22   23 1    
    45   22   24 1    
    46   22   80 1    
    47   23   81 1    
    48   23   82 1    
    49   23   83 1    
    50   24   25 am   BACKBONE|DICT|INTERRES
    51   24   84 1    
    52   25   26 2    
    53   27   28 2    
    54   27   29 am   BACKBONE|DICT|INTERRES
    55   29   30 1    
    56   29   85 1    
    57   30   31 1    
    58   30   32 1    
    59   30   86 1    
    60   31   87 1    
    61   31   88 1    
    62   31   89 1    
    63   32   33 2    
    64   32   34 am   BACKBONE|DICT|INTERRES
    65   34   35 1    
    66   34   90 1    
    67   35   36 1    
    68   35   37 1    
    69   35   91 1    
    70   36   92 1    
    71   36   93 1    
    72   36   94 1    
    73   37   38 2    
    74   37   39 am   BACKBONE|DICT|INTERRES
    75   39   40 1    
    76   39   95 1    
    77   40   41 1    
    78   40   42 1    
    79   40   96 1    
    80   41   97 1    
    81   41   98 1    
    82   41   99 1    
    83   42   43 2    
    84   42   44 am   BACKBONE|DICT|INTERRES
    85   44   45 1    
    86   44  100 1    
    87   45   46 1    
    88   45   47 1    
    89   45  101 1    
    90   46  102 1    
    91   46  103 1    
    92   46  104 1    
    93   47   48 2    
    94   47   49 am   BACKBONE|DICT|INTERRES
    95   49   50 1    
    96   49  105 1    
    97   50   51 1    
    98   50   52 1    
    99   50  106 1    
   100   51  107 1    
   101   51  108 1    
   102   51  109 1    
   103   52   53 2    
   104   52   54 am   BACKBONE|DICT|INTERRES
   105   54   55 1    
   106   54  110 1    
   107   55   56 1    
   108   55   59 1    
   109   55  111 1    
   110   56   57 am   BACKBONE|DICT|INTERRES
   111   56   58 2    
   112   57  112 1    
   113   57  113 1    
   114   59   60 1    
   115   59  114 1    
   116   59  115 1    
   117   60   61 1    
   118   61  116 1    
   119   61  117 1    
@<TRIPOS>SUBSTRUCTURE
     1 UNK         1 GROUP             0       ****    0 ROOT    
