@<TRIPOS>MOLECULE
3R8
117   119    1
SMALL
USER_CHARGES


@<TRIPOS>ATOM
      1 CA         16.2415  -22.8838  -43.2192 C.3       0 UNK        -0.2013 
      2 C          15.9489  -23.5152  -44.5797 C.2       0 UNK         0.4866 
      3 O          15.4260  -22.8194  -45.4485 O.2       0 UNK        -0.5176 
      4 N          16.2397  -24.7998  -44.8392 N.am      1 UNK        -0.4884 
      5 CA         16.8780  -25.8250  -43.9969 C.3       1 UNK         0.0853 
      6 C6         16.0727  -26.1732  -42.7094 C.3       10 UNK        -0.0849 
      7 S7         14.5916  -27.1494  -43.1317 S.3       10 UNK        -0.2776 
      8 C8         15.0756  -28.8275  -42.5964 C.3       10 UNK         0.0316 
      9 C9         16.4248  -29.2694  -43.1554 C.ar      10 UNK        -0.0863 
     10 C10        17.4832  -29.5582  -42.2890 C.ar      10 UNK        -0.1009 
     11 C11        18.7185  -29.9811  -42.7885 C.ar      10 UNK        -0.0712 
     12 C12        18.8999  -30.0980  -44.1704 C.ar      10 UNK        -0.0894 
     13 C13        17.8531  -29.7974  -45.0481 C.ar      10 UNK        -0.0745 
     14 C14        16.6146  -29.4008  -44.5339 C.ar      10 UNK        -0.0972 
     15 C15        18.0426  -29.9126  -46.5529 C.3       10 UNK         0.0209 
     16 S16        18.7384  -28.3843  -47.2615 S.3       10 UNK        -0.2568 
     17 C17        20.5334  -28.7174  -47.2129 C.3       10 UNK        -0.0983 
     18 CA         21.3325  -27.6528  -46.4205 C.3       3 UNK         0.0876 
     19 N          20.8531  -27.5133  -45.0401 N.am      3 UNK        -0.4424 
     20 C          21.3080  -26.6526  -44.1159 C.2       2 UNK         0.4918 
     21 O          22.2852  -25.9191  -44.2679 O.2       2 UNK        -0.4875 
     22 CA         20.4856  -26.5861  -42.8129 C.3       2 UNK         0.0481 
     23 CB         20.9188  -25.4395  -41.8733 C.3       2 UNK        -0.1831 
     24 N          19.0406  -26.5322  -43.0803 N.am      2 UNK        -0.4498 
     25 C          18.3813  -25.5704  -43.7494 C.2       1 UNK         0.5027 
     26 O          18.9185  -24.5523  -44.1916 O.2       1 UNK        -0.4969 
     27 C          22.8447  -27.9374  -46.5168 C.2       3 UNK         0.5005 
     28 O          23.5475  -27.2443  -47.2547 O.2       3 UNK        -0.5279 
     29 N          23.3133  -28.9405  -45.7609 N.am      4 UNK        -0.4463 
     30 CA         24.7366  -29.2403  -45.5887 C.3       4 UNK         0.0283 
     31 CB         24.9166  -30.7170  -45.1920 C.3       4 UNK        -0.1875 
     32 C          25.3481  -28.2980  -44.5416 C.2       4 UNK         0.4949 
     33 O          26.3161  -27.5960  -44.8329 O.2       4 UNK        -0.5039 
     34 N          24.7288  -28.2895  -43.3580 N.am      5 UNK        -0.4663 
     35 CA         24.9852  -27.4460  -42.1967 C.3       5 UNK         0.0242 
     36 CB         26.4056  -27.6683  -41.6358 C.3       5 UNK        -0.1982 
     37 C          23.9097  -27.7926  -41.1573 C.2       5 UNK         0.5017 
     38 O          23.1701  -28.7672  -41.3431 O.2       5 UNK        -0.5012 
     39 N          23.8310  -26.9961  -40.0843 N.am      6 UNK        -0.4439 
     40 CA         22.8926  -27.1874  -38.9761 C.3       6 UNK         0.0297 
     41 CB         23.0123  -26.0130  -37.9912 C.3       6 UNK        -0.2006 
     42 C          23.1268  -28.5328  -38.2676 C.2       6 UNK         0.4892 
     43 O          24.2151  -28.7543  -37.7343 O.2       6 UNK        -0.5089 
     44 N          22.1096  -29.4040  -38.3211 N.am      7 UNK        -0.4243 
     45 CA         22.0590  -30.7740  -37.7901 C.3       7 UNK         0.0196 
     46 CB         22.2561  -30.7873  -36.2594 C.3       7 UNK        -0.2007 
     47 C          22.9827  -31.7908  -38.4942 C.2       7 UNK         0.5020 
     48 O          22.9829  -32.9585  -38.1020 O.2       7 UNK        -0.5147 
     49 N          23.7103  -31.3833  -39.5464 N.am      8 UNK        -0.4734 
     50 CA         24.5788  -32.2668  -40.3415 C.3       8 UNK         0.0238 
     51 CB         25.5303  -31.4205  -41.1980 C.3       8 UNK        -0.1912 
     52 C          23.7961  -33.2662  -41.2125 C.2       8 UNK         0.5038 
     53 O          24.3547  -34.2808  -41.6300 O.2       8 UNK        -0.5046 
     54 N          22.5126  -32.9682  -41.4363 N.am      9 UNK        -0.4200 
     55 CA         21.4914  -33.8633  -41.9907 C.3       9 UNK         0.0839 
     56 C          21.1228  -35.0778  -41.0850 C.2       9 UNK         0.5513 
     57 N          21.5134  -35.1176  -39.8152 N.am      9 UNK        -0.7519 
     58 O          20.4747  -36.0104  -41.5528 O.2       9 UNK        -0.4960 
     59 C59        20.2312  -33.0608  -42.4133 C.3       10 UNK        -0.0876 
     60 S60        19.6024  -31.9641  -41.0872 S.3       10 UNK        -0.2414 
     61 C61        19.8440  -30.3176  -41.8220 C.3       10 UNK         0.0169 
     62 H62        16.5397  -21.8440  -43.3511 H         1 UNK         0.0903 
     63 H63        15.3438  -22.8960  -42.6019 H         1 UNK         0.0903 
     64 H64        17.0420  -23.3766  -42.6732 H         1 UNK         0.0903 
     65 H65        16.0271  -25.1273  -45.7711 H         1 UNK         0.3096 
     66 H66        16.8857  -26.7108  -44.6321 H         1 UNK         0.1121 
     67 H67        15.7524  -25.2825  -42.1721 H         1 UNK         0.0849 
     68 H68        16.6614  -26.7372  -41.9855 H         1 UNK         0.0849 
     69 H69        15.0799  -28.8583  -41.5056 H         1 UNK         0.0865 
     70 H70        14.3093  -29.5351  -42.9158 H         1 UNK         0.0865 
     71 H71        17.3433  -29.4746  -41.2194 H         1 UNK         0.1346 
     72 H72        19.8504  -30.4311  -44.5632 H         1 UNK         0.1412 
     73 H73        15.7978  -29.1776  -45.2074 H         1 UNK         0.1426 
     74 H74        17.0806  -30.1039  -47.0310 H         1 UNK         0.0716 
     75 H75        18.6680  -30.7724  -46.7971 H         1 UNK         0.0716 
     76 H76        20.8803  -28.7538  -48.2476 H         1 UNK         0.0695 
     77 H77        20.7130  -29.7129  -46.8042 H         1 UNK         0.0695 
     78 H78        21.1656  -26.6859  -46.9005 H         1 UNK         0.0983 
     79 H79        20.0156  -28.0339  -44.8246 H         1 UNK         0.3095 
     80 H80        20.6730  -27.5231  -42.2880 H         1 UNK         0.0454 
     81 H81        20.3567  -25.4576  -40.9400 H         1 UNK         0.0851 
     82 H82        21.9742  -25.5193  -41.6162 H         1 UNK         0.0851 
     83 H83        20.7793  -24.4599  -42.3304 H         1 UNK         0.0851 
     84 H84        18.5180  -27.3456  -42.7825 H         1 UNK         0.2976 
     85 H85        22.6600  -29.4553  -45.1900 H         1 UNK         0.3116 
     86 H86        25.2586  -29.0813  -46.5351 H         1 UNK         0.0646 
     87 H87        24.3672  -30.9740  -44.2861 H         1 UNK         0.0847 
     88 H88        25.9678  -30.9461  -45.0117 H         1 UNK         0.0847 
     89 H89        24.5747  -31.3811  -45.9860 H         1 UNK         0.0847 
     90 H90        23.9323  -28.8975  -43.2110 H         1 UNK         0.3040 
     91 H91        24.8570  -26.4023  -42.4914 H         1 UNK         0.1015 
     92 H92        26.5628  -27.1130  -40.7106 H         1 UNK         0.0786 
     93 H93        27.1694  -27.3306  -42.3358 H         1 UNK         0.0786 
     94 H94        26.5971  -28.7181  -41.4219 H         1 UNK         0.0786 
     95 H95        24.4931  -26.2397  -39.9885 H         1 UNK         0.3172 
     96 H96        21.8826  -27.1749  -39.3919 H         1 UNK         0.0595 
     97 H97        24.0135  -25.9434  -37.5637 H         1 UNK         0.0839 
     98 H98        22.3127  -26.1277  -37.1621 H         1 UNK         0.0839 
     99 H99        22.7856  -25.0628  -38.4752 H         1 UNK         0.0839 
    100 H100       21.2786  -29.1131  -38.8172 H         1 UNK         0.2998 
    101 H101       21.0443  -31.1236  -37.9876 H         1 UNK         0.0822 
    102 H102       21.5739  -30.0960  -35.7648 H         1 UNK         0.0787 
    103 H103       22.0627  -31.7792  -35.8487 H         1 UNK         0.0787 
    104 H104       23.2737  -30.5159  -35.9773 H         1 UNK         0.0787 
    105 H105       23.6410  -30.4168  -39.8412 H         1 UNK         0.3055 
    106 H106       25.1834  -32.8589  -39.6504 H         1 UNK         0.1106 
    107 H107       26.1762  -30.8100  -40.5681 H         1 UNK         0.0828 
    108 H108       26.1790  -32.0518  -41.8070 H         1 UNK         0.0828 
    109 H109       24.9880  -30.7616  -41.8747 H         1 UNK         0.0828 
    110 H110       22.1575  -32.1132  -41.0355 H         1 UNK         0.2931 
    111 H111       21.9161  -34.2961  -42.8986 H         1 UNK         0.0412 
    112 H112       21.2659  -35.9161  -39.2524 H         1 UNK         0.3472 
    113 H113       22.0404  -34.3585  -39.4020 H         1 UNK         0.3472 
    114 H114       19.4261  -33.7266  -42.7303 H         1 UNK         0.0970 
    115 H115       20.4694  -32.4656  -43.2947 H         1 UNK         0.0970 
    116 H116       20.8178  -30.2622  -42.3116 H         1 UNK         0.0612 
    117 H117       19.8662  -29.5786  -41.0198 H         1 UNK         0.0612 
@<TRIPOS>BOND
     1    1    2 1    
     2    1   62 1    
     3    1   63 1    
     4    1   64 1    
     5    2    3 2    
     6    2    4 am   BACKBONE|DICT|INTERRES
     7    4    5 1    
     8    4   65 1    
     9    5    6 1    
    10    5   25 1    
    11    5   66 1    
    12    6    7 1    
    13    6   67 1    
    14    6   68 1    
    15    7    8 1    
    16    8    9 1    
    17    8   69 1    
    18    8   70 1    
    19    9   10 ar   
    20    9   14 ar   
    21   10   11 ar   
    22   10   71 1    
    23   11   12 ar   
    24   11   61 1    
    25   12   13 ar   
    26   12   72 1    
    27   13   14 ar   
    28   13   15 1    
    29   14   73 1    
    30   15   16 1    
    31   15   74 1    
    32   15   75 1    
    33   16   17 1    
    34   17   18 1    
    35   17   76 1    
    36   17   77 1    
    37   18   19 1    
    38   18   27 1    
    39   18   78 1    
    40   19   20 am   BACKBONE|DICT|INTERRES
    41   19   79 1    
    42   20   21 2    
    43   20   22 1    
    44   22   23 1    
    45   22   24 1    
    46   22   80 1    
    47   23   81 1    
    48   23   82 1    
    49   23   83 1    
    50   24   25 am   BACKBONE|DICT|INTERRES
    51   24   84 1    
    52   25   26 2    
    53   27   28 2    
    54   27   29 am   BACKBONE|DICT|INTERRES
    55   29   30 1    
    56   29   85 1    
    57   30   31 1    
    58   30   32 1    
    59   30   86 1    
    60   31   87 1    
    61   31   88 1    
    62   31   89 1    
    63   32   33 2    
    64   32   34 am   BACKBONE|DICT|INTERRES
    65   34   35 1    
    66   34   90 1    
    67   35   36 1    
    68   35   37 1    
    69   35   91 1    
    70   36   92 1    
    71   36   93 1    
    72   36   94 1    
    73   37   38 2    
    74   37   39 am   BACKBONE|DICT|INTERRES
    75   39   40 1    
    76   39   95 1    
    77   40   41 1    
    78   40   42 1    
    79   40   96 1    
    80   41   97 1    
    81   41   98 1    
    82   41   99 1    
    83   42   43 2    
    84   42   44 am   BACKBONE|DICT|INTERRES
    85   44   45 1    
    86   44  100 1    
    87   45   46 1    
    88   45   47 1    
    89   45  101 1    
    90   46  102 1    
    91   46  103 1    
    92   46  104 1    
    93   47   48 2    
    94   47   49 am   BACKBONE|DICT|INTERRES
    95   49   50 1    
    96   49  105 1    
    97   50   51 1    
    98   50   52 1    
    99   50  106 1    
   100   51  107 1    
   101   51  108 1    
   102   51  109 1    
   103   52   53 2    
   104   52   54 am   BACKBONE|DICT|INTERRES
   105   54   55 1    
   106   54  110 1    
   107   55   56 1    
   108   55   59 1    
   109   55  111 1    
   110   56   57 am   BACKBONE|DICT|INTERRES
   111   56   58 2    
   112   57  112 1    
   113   57  113 1    
   114   59   60 1    
   115   59  114 1    
   116   59  115 1    
   117   60   61 1    
   118   61  116 1    
   119   61  117 1    
@<TRIPOS>SUBSTRUCTURE
     1 UNK         1 GROUP             0       ****    0 ROOT    
