@<TRIPOS>MOLECULE
3R8
117   119    1
SMALL
USER_CHARGES


@<TRIPOS>ATOM
      1 CA         14.0160  -23.3699  -44.0923 C.3       0 UNK        -0.2013 
      2 C          15.3194  -23.7561  -44.7756 C.2       0 UNK         0.4866 
      3 O          16.1575  -22.8899  -45.0254 O.2       0 UNK        -0.5176 
      4 N          15.4857  -25.0468  -45.0887 N.am      1 UNK        -0.4884 
      5 CA         16.6888  -25.6366  -45.6814 C.3       1 UNK         0.0853 
      6 C6         16.3787  -26.9556  -46.4441 C.3       10 UNK        -0.0849 
      7 S7         15.2955  -28.1248  -45.5414 S.3       10 UNK        -0.2776 
      8 C8         15.9635  -29.7348  -46.0609 C.3       10 UNK         0.0316 
      9 C9         17.2358  -30.0998  -45.3097 C.ar      10 UNK        -0.0863 
     10 C10        17.1603  -30.5678  -43.9943 C.ar      10 UNK        -0.1009 
     11 C11        18.3138  -30.9718  -43.3153 C.ar      10 UNK        -0.0712 
     12 C12        19.5539  -30.8819  -43.9570 C.ar      10 UNK        -0.0894 
     13 C13        19.6412  -30.4324  -45.2779 C.ar      10 UNK        -0.0745 
     14 C14        18.4788  -30.0357  -45.9464 C.ar      10 UNK        -0.0972 
     15 C15        20.9721  -30.4646  -46.0170 C.3       10 UNK         0.0209 
     16 S16        21.5666  -28.8090  -46.4825 S.3       10 UNK        -0.2568 
     17 C17        22.4880  -28.2982  -44.9949 C.3       10 UNK        -0.0983 
     18 CA         22.0525  -26.8912  -44.5029 C.3       3 UNK         0.0876 
     19 N          20.6468  -26.8519  -44.0717 N.am      3 UNK        -0.4424 
     20 C          20.1217  -27.4215  -42.9783 C.2       2 UNK         0.4918 
     21 O          20.7953  -28.0408  -42.1561 O.2       2 UNK        -0.4875 
     22 CA         18.6134  -27.2423  -42.7070 C.3       2 UNK         0.0481 
     23 CB         18.3944  -26.2591  -41.5410 C.3       2 UNK        -0.1831 
     24 N          17.7681  -26.8765  -43.8556 N.am      2 UNK        -0.4498 
     25 C          17.7966  -25.7738  -44.6173 C.2       1 UNK         0.5027 
     26 O          18.6501  -24.8922  -44.5109 O.2       1 UNK        -0.4969 
     27 C          23.0057  -26.3158  -43.4287 C.2       3 UNK         0.5005 
     28 O          24.1064  -26.8347  -43.2348 O.2       3 UNK        -0.5279 
     29 N          22.5319  -25.2956  -42.6914 N.am      4 UNK        -0.4463 
     30 CA         23.1642  -24.6763  -41.5149 C.3       4 UNK         0.0283 
     31 CB         24.4116  -23.8726  -41.9393 C.3       4 UNK        -0.1875 
     32 C          23.4763  -25.6698  -40.3711 C.2       4 UNK         0.4949 
     33 O          24.3403  -25.3848  -39.5412 O.2       4 UNK        -0.5039 
     34 N          22.7947  -26.8273  -40.3697 N.am      5 UNK        -0.4663 
     35 CA         23.0337  -28.0153  -39.5447 C.3       5 UNK         0.0242 
     36 CB         22.7521  -27.7265  -38.0554 C.3       5 UNK        -0.1982 
     37 C          24.4136  -28.6706  -39.7772 C.2       5 UNK         0.5017 
     38 O          24.8593  -29.4424  -38.9260 O.2       5 UNK        -0.5012 
     39 N          25.0610  -28.3848  -40.9180 N.am      6 UNK        -0.4439 
     40 CA         26.3809  -28.9117  -41.2781 C.3       6 UNK         0.0297 
     41 CB         27.0843  -27.9107  -42.2096 C.3       6 UNK        -0.2006 
     42 C          26.3252  -30.3044  -41.9318 C.2       6 UNK         0.4892 
     43 O          27.3668  -30.9542  -42.0339 O.2       6 UNK        -0.5089 
     44 N          25.1371  -30.7380  -42.3676 N.am      7 UNK        -0.4243 
     45 CA         24.8783  -32.0375  -42.9806 C.3       7 UNK         0.0196 
     46 CB         24.8899  -31.8893  -44.5117 C.3       7 UNK        -0.2007 
     47 C          23.5197  -32.5459  -42.4916 C.2       7 UNK         0.5020 
     48 O          22.6600  -31.7292  -42.1539 O.2       7 UNK        -0.5147 
     49 N          23.3521  -33.8763  -42.4735 N.am      8 UNK        -0.4734 
     50 CA         22.1633  -34.6292  -42.0450 C.3       8 UNK         0.0238 
     51 CB         21.0191  -34.4806  -43.0717 C.3       8 UNK        -0.1912 
     52 C          21.7375  -34.2968  -40.6017 C.2       8 UNK         0.5038 
     53 O          22.2261  -34.9351  -39.6685 O.2       8 UNK        -0.5046 
     54 N          20.8587  -33.2994  -40.4503 N.am      9 UNK        -0.4200 
     55 CA         20.4671  -32.6877  -39.1722 C.3       9 UNK         0.0839 
     56 C          21.5848  -31.8369  -38.5005 C.2       9 UNK         0.5513 
     57 N          22.6388  -31.4601  -39.2123 N.am      9 UNK        -0.7519 
     58 O          21.4980  -31.5347  -37.3133 O.2       9 UNK        -0.4960 
     59 C59        19.1335  -31.9008  -39.3024 C.3       10 UNK        -0.0876 
     60 S60        19.1274  -30.6713  -40.6585 S.3       10 UNK        -0.2414 
     61 C61        18.2052  -31.5922  -41.9285 C.3       10 UNK         0.0169 
     62 H62        13.4792  -22.6373  -44.6945 H         1 UNK         0.0903 
     63 H63        13.3627  -24.2295  -43.9429 H         1 UNK         0.0903 
     64 H64        14.2205  -22.9265  -43.1182 H         1 UNK         0.0903 
     65 H65        14.7613  -25.7133  -44.8570 H         1 UNK         0.3096 
     66 H66        17.0745  -24.9314  -46.4220 H         1 UNK         0.1121 
     67 H67        17.3046  -27.4505  -46.7430 H         1 UNK         0.0849 
     68 H68        15.8713  -26.7112  -47.3787 H         1 UNK         0.0849 
     69 H69        15.2091  -30.5012  -45.8769 H         1 UNK         0.0865 
     70 H70        16.1305  -29.7328  -47.1393 H         1 UNK         0.0865 
     71 H71        16.1953  -30.6461  -43.5119 H         1 UNK         0.1346 
     72 H72        20.4490  -31.1896  -43.4356 H         1 UNK         0.1412 
     73 H73        18.5439  -29.7046  -46.9740 H         1 UNK         0.1426 
     74 H74        20.8460  -31.0512  -46.9279 H         1 UNK         0.0716 
     75 H75        21.7347  -30.9819  -45.4328 H         1 UNK         0.0716 
     76 H76        23.5459  -28.3091  -45.2637 H         1 UNK         0.0695 
     77 H77        22.3684  -29.0375  -44.2006 H         1 UNK         0.0695 
     78 H78        22.1326  -26.2057  -45.3480 H         1 UNK         0.0983 
     79 H79        20.0261  -26.2746  -44.6275 H         1 UNK         0.3095 
     80 H80        18.2500  -28.2172  -42.3818 H         1 UNK         0.0454 
     81 H81        18.7390  -25.2538  -41.7848 H         1 UNK         0.0851 
     82 H82        18.9376  -26.5818  -40.6515 H         1 UNK         0.0851 
     83 H83        17.3409  -26.1961  -41.2689 H         1 UNK         0.0851 
     84 H84        17.0524  -27.5564  -44.0849 H         1 UNK         0.2976 
     85 H85        21.6084  -24.9521  -42.9190 H         1 UNK         0.3116 
     86 H86        22.4355  -23.9717  -41.1115 H         1 UNK         0.0646 
     87 H87        24.1788  -23.1689  -42.7383 H         1 UNK         0.0847 
     88 H88        25.2124  -24.5250  -42.2893 H         1 UNK         0.0847 
     89 H89        24.8081  -23.2918  -41.1056 H         1 UNK         0.0847 
     90 H90        22.1086  -26.9752  -41.1046 H         1 UNK         0.3040 
     91 H91        22.2989  -28.7504  -39.8781 H         1 UNK         0.1015 
     92 H92        23.4983  -27.0598  -37.6226 H         1 UNK         0.0786 
     93 H93        22.7611  -28.6476  -37.4709 H         1 UNK         0.0786 
     94 H94        21.7717  -27.2704  -37.9190 H         1 UNK         0.0786 
     95 H95        24.6271  -27.7587  -41.5932 H         1 UNK         0.3172 
     96 H96        26.9824  -29.0005  -40.3709 H         1 UNK         0.0595 
     97 H97        26.5727  -27.8227  -43.1687 H         1 UNK         0.0839 
     98 H98        28.1082  -28.2247  -42.4169 H         1 UNK         0.0839 
     99 H99        27.1337  -26.9173  -41.7631 H         1 UNK         0.0839 
    100 H100       24.3120  -30.1782  -42.1954 H         1 UNK         0.2998 
    101 H101       25.6440  -32.7541  -42.6755 H         1 UNK         0.0822 
    102 H102       25.8654  -31.5579  -44.8682 H         1 UNK         0.0787 
    103 H103       24.6705  -32.8387  -45.0018 H         1 UNK         0.0787 
    104 H104       24.1482  -31.1651  -44.8509 H         1 UNK         0.0787 
    105 H105       24.1377  -34.4492  -42.7516 H         1 UNK         0.3055 
    106 H106       22.4503  -35.6824  -42.0360 H         1 UNK         0.1106 
    107 H107       20.7436  -33.4422  -43.2423 H         1 UNK         0.0828 
    108 H108       20.1236  -35.0098  -42.7428 H         1 UNK         0.0828 
    109 H109       21.3042  -34.9029  -44.0353 H         1 UNK         0.0828 
    110 H110       20.6040  -32.7707  -41.2717 H         1 UNK         0.2931 
    111 H111       20.2769  -33.5098  -38.4793 H         1 UNK         0.0412 
    112 H112       22.6634  -31.6543  -40.2074 H         1 UNK         0.3472 
    113 H113       23.3783  -30.9215  -38.7812 H         1 UNK         0.3472 
    114 H114       18.8957  -31.3873  -38.3689 H         1 UNK         0.0970 
    115 H115       18.3130  -32.6035  -39.4546 H         1 UNK         0.0970 
    116 H116       18.5756  -32.6162  -41.9822 H         1 UNK         0.0612 
    117 H117       17.1623  -31.6613  -41.6154 H         1 UNK         0.0612 
@<TRIPOS>BOND
     1    1    2 1    
     2    1   62 1    
     3    1   63 1    
     4    1   64 1    
     5    2    3 2    
     6    2    4 am   BACKBONE|DICT|INTERRES
     7    4    5 1    
     8    4   65 1    
     9    5    6 1    
    10    5   25 1    
    11    5   66 1    
    12    6    7 1    
    13    6   67 1    
    14    6   68 1    
    15    7    8 1    
    16    8    9 1    
    17    8   69 1    
    18    8   70 1    
    19    9   10 ar   
    20    9   14 ar   
    21   10   11 ar   
    22   10   71 1    
    23   11   12 ar   
    24   11   61 1    
    25   12   13 ar   
    26   12   72 1    
    27   13   14 ar   
    28   13   15 1    
    29   14   73 1    
    30   15   16 1    
    31   15   74 1    
    32   15   75 1    
    33   16   17 1    
    34   17   18 1    
    35   17   76 1    
    36   17   77 1    
    37   18   19 1    
    38   18   27 1    
    39   18   78 1    
    40   19   20 am   BACKBONE|DICT|INTERRES
    41   19   79 1    
    42   20   21 2    
    43   20   22 1    
    44   22   23 1    
    45   22   24 1    
    46   22   80 1    
    47   23   81 1    
    48   23   82 1    
    49   23   83 1    
    50   24   25 am   BACKBONE|DICT|INTERRES
    51   24   84 1    
    52   25   26 2    
    53   27   28 2    
    54   27   29 am   BACKBONE|DICT|INTERRES
    55   29   30 1    
    56   29   85 1    
    57   30   31 1    
    58   30   32 1    
    59   30   86 1    
    60   31   87 1    
    61   31   88 1    
    62   31   89 1    
    63   32   33 2    
    64   32   34 am   BACKBONE|DICT|INTERRES
    65   34   35 1    
    66   34   90 1    
    67   35   36 1    
    68   35   37 1    
    69   35   91 1    
    70   36   92 1    
    71   36   93 1    
    72   36   94 1    
    73   37   38 2    
    74   37   39 am   BACKBONE|DICT|INTERRES
    75   39   40 1    
    76   39   95 1    
    77   40   41 1    
    78   40   42 1    
    79   40   96 1    
    80   41   97 1    
    81   41   98 1    
    82   41   99 1    
    83   42   43 2    
    84   42   44 am   BACKBONE|DICT|INTERRES
    85   44   45 1    
    86   44  100 1    
    87   45   46 1    
    88   45   47 1    
    89   45  101 1    
    90   46  102 1    
    91   46  103 1    
    92   46  104 1    
    93   47   48 2    
    94   47   49 am   BACKBONE|DICT|INTERRES
    95   49   50 1    
    96   49  105 1    
    97   50   51 1    
    98   50   52 1    
    99   50  106 1    
   100   51  107 1    
   101   51  108 1    
   102   51  109 1    
   103   52   53 2    
   104   52   54 am   BACKBONE|DICT|INTERRES
   105   54   55 1    
   106   54  110 1    
   107   55   56 1    
   108   55   59 1    
   109   55  111 1    
   110   56   57 am   BACKBONE|DICT|INTERRES
   111   56   58 2    
   112   57  112 1    
   113   57  113 1    
   114   59   60 1    
   115   59  114 1    
   116   59  115 1    
   117   60   61 1    
   118   61  116 1    
   119   61  117 1    
@<TRIPOS>SUBSTRUCTURE
     1 UNK         1 GROUP             0       ****    0 ROOT    
