@<TRIPOS>MOLECULE
3R8
117   119    1
SMALL
USER_CHARGES


@<TRIPOS>ATOM
      1 CA         15.6087  -29.4844  -39.1833 C.3       0 UNK        -0.2013 
      2 C          15.6474  -28.4725  -40.3188 C.2       0 UNK         0.4866 
      3 O          14.9664  -27.4487  -40.2544 O.2       0 UNK        -0.5176 
      4 N          16.4452  -28.7513  -41.3546 N.am      1 UNK        -0.4884 
      5 CA         16.6773  -27.8638  -42.4994 C.3       1 UNK         0.0853 
      6 C6         17.0675  -28.6517  -43.7745 C.3       10 UNK        -0.0849 
      7 S7         15.8204  -29.8827  -44.2863 S.3       10 UNK        -0.2776 
      8 C8         16.2691  -30.1540  -46.0366 C.3       10 UNK         0.0316 
      9 C9         17.7530  -30.4534  -46.2066 C.ar      10 UNK        -0.0863 
     10 C10        18.2987  -31.6249  -45.6756 C.ar      10 UNK        -0.1009 
     11 C11        19.6774  -31.8627  -45.7347 C.ar      10 UNK        -0.0712 
     12 C12        20.4994  -30.9310  -46.3763 C.ar      10 UNK        -0.0894 
     13 C13        19.9645  -29.7679  -46.9388 C.ar      10 UNK        -0.0745 
     14 C14        18.5873  -29.5392  -46.8561 C.ar      10 UNK        -0.0972 
     15 C15        20.8855  -28.7575  -47.6180 C.3       10 UNK         0.0209 
     16 S16        20.6840  -27.0594  -46.9808 S.3       10 UNK        -0.2568 
     17 C17        20.8400  -27.3338  -45.1868 C.3       10 UNK        -0.0983 
     18 CA         21.4590  -26.1222  -44.4372 C.3       3 UNK         0.0876 
     19 N          20.8181  -25.9183  -43.1333 N.am      3 UNK        -0.4424 
     20 C          20.9387  -26.7067  -42.0568 C.2       2 UNK         0.4918 
     21 O          21.7429  -27.6303  -41.9583 O.2       2 UNK        -0.4875 
     22 CA         19.9332  -26.4737  -40.9197 C.3       2 UNK         0.0481 
     23 CB         19.7570  -24.9890  -40.5344 C.3       2 UNK        -0.1831 
     24 N          18.6637  -27.1404  -41.2322 N.am      2 UNK        -0.4498 
     25 C          17.7767  -26.8258  -42.1922 C.2       1 UNK         0.5027 
     26 O          17.8208  -25.7899  -42.8574 O.2       1 UNK        -0.4969 
     27 C          23.0050  -26.1421  -44.3636 C.2       3 UNK         0.5005 
     28 O          23.6528  -27.0005  -44.9693 O.2       3 UNK        -0.5279 
     29 N          23.5616  -25.1803  -43.6090 N.am      4 UNK        -0.4463 
     30 CA         24.9907  -24.9103  -43.4157 C.3       4 UNK         0.0283 
     31 CB         25.5876  -24.2681  -44.6892 C.3       4 UNK        -0.1875 
     32 C          25.7623  -26.1495  -42.9224 C.2       4 UNK         0.4949 
     33 O          25.6122  -26.5281  -41.7604 O.2       4 UNK        -0.5039 
     34 N          26.5543  -26.7659  -43.8109 N.am      5 UNK        -0.4663 
     35 CA         27.3957  -27.9387  -43.5536 C.3       5 UNK         0.0242 
     36 CB         28.2464  -28.2240  -44.8021 C.3       5 UNK        -0.1982 
     37 C          26.6318  -29.2047  -43.1232 C.2       5 UNK         0.5017 
     38 O          27.2445  -30.0870  -42.5208 O.2       5 UNK        -0.5012 
     39 N          25.3229  -29.2761  -43.4107 N.am      6 UNK        -0.4439 
     40 CA         24.4421  -30.3530  -42.9455 C.3       6 UNK         0.0297 
     41 CB         23.1599  -30.3648  -43.7874 C.3       6 UNK        -0.2006 
     42 C          24.1033  -30.2661  -41.4427 C.2       6 UNK         0.4892 
     43 O          23.5954  -31.2464  -40.8953 O.2       6 UNK        -0.5089 
     44 N          24.3816  -29.1155  -40.8076 N.am      7 UNK        -0.4243 
     45 CA         24.2394  -28.7707  -39.3860 C.3       7 UNK         0.0196 
     46 CB         25.1180  -29.6756  -38.5009 C.3       7 UNK        -0.2007 
     47 C          22.7948  -28.7181  -38.8580 C.2       7 UNK         0.5020 
     48 O          22.4558  -27.7765  -38.1402 O.2       7 UNK        -0.5147 
     49 N          21.9751  -29.7141  -39.2022 N.am      8 UNK        -0.4734 
     50 CA         20.5738  -29.8234  -38.8114 C.3       8 UNK         0.0238 
     51 CB         20.4423  -30.4968  -37.4323 C.3       8 UNK        -0.1912 
     52 C          19.7843  -30.5635  -39.8914 C.2       8 UNK         0.5038 
     53 O          18.8653  -29.9825  -40.4680 O.2       8 UNK        -0.5046 
     54 N          20.1491  -31.8294  -40.1374 N.am      9 UNK        -0.4200 
     55 CA         19.4283  -32.7640  -41.0195 C.3       9 UNK         0.0839 
     56 C          17.9912  -33.1284  -40.5208 C.2       9 UNK         0.5513 
     57 N          17.7056  -33.0268  -39.2274 N.am      9 UNK        -0.7519 
     58 O          17.1256  -33.5218  -41.2976 O.2       9 UNK        -0.4960 
     59 C59        19.4867  -32.3341  -42.5147 C.3       10 UNK        -0.0876 
     60 S60        19.4611  -33.7676  -43.6483 S.3       10 UNK        -0.2414 
     61 C61        20.3108  -33.1140  -45.1262 C.3       10 UNK         0.0169 
     62 H62        15.9685  -29.0282  -38.2616 H         1 UNK         0.0903 
     63 H63        14.5877  -29.8277  -39.0198 H         1 UNK         0.0903 
     64 H64        16.2289  -30.3559  -39.3942 H         1 UNK         0.0903 
     65 H65        17.0357  -29.5752  -41.3127 H         1 UNK         0.3096 
     66 H66        15.7603  -27.3089  -42.7108 H         1 UNK         0.1121 
     67 H67        17.2228  -27.9621  -44.6072 H         1 UNK         0.0849 
     68 H68        18.0166  -29.1726  -43.6280 H         1 UNK         0.0849 
     69 H69        15.6840  -30.9860  -46.4311 H         1 UNK         0.0865 
     70 H70        15.9815  -29.2754  -46.6163 H         1 UNK         0.0865 
     71 H71        17.6450  -32.3306  -45.1821 H         1 UNK         0.1346 
     72 H72        21.5640  -31.1111  -46.4343 H         1 UNK         0.1412 
     73 H73        18.1728  -28.6311  -47.2724 H         1 UNK         0.1426 
     74 H74        21.9312  -29.0454  -47.4970 H         1 UNK         0.0716 
     75 H75        20.6861  -28.7596  -48.6903 H         1 UNK         0.0716 
     76 H76        19.8287  -27.5270  -44.8254 H         1 UNK         0.0695 
     77 H77        21.3916  -28.2525  -44.9942 H         1 UNK         0.0695 
     78 H78        21.2134  -25.2215  -45.0024 H         1 UNK         0.0983 
     79 H79        20.0769  -25.2298  -43.1172 H         1 UNK         0.3095 
     80 H80        20.3348  -26.9777  -40.0417 H         1 UNK         0.0454 
     81 H81        19.3472  -24.3801  -41.3393 H         1 UNK         0.0851 
     82 H82        19.0938  -24.8865  -39.6757 H         1 UNK         0.0851 
     83 H83        20.7148  -24.5493  -40.2536 H         1 UNK         0.0851 
     84 H84        18.5517  -28.0562  -40.8070 H         1 UNK         0.2976 
     85 H85        22.9342  -24.5669  -43.1075 H         1 UNK         0.3116 
     86 H86        25.0618  -24.1731  -42.6145 H         1 UNK         0.0646 
     87 H87        26.6490  -24.0500  -44.5621 H         1 UNK         0.0847 
     88 H88        25.0956  -23.3217  -44.9137 H         1 UNK         0.0847 
     89 H89        25.4800  -24.9059  -45.5673 H         1 UNK         0.0847 
     90 H90        26.5693  -26.4028  -44.7532 H         1 UNK         0.3040 
     91 H91        28.0677  -27.6824  -42.7316 H         1 UNK         0.1015 
     92 H92        28.8741  -27.3707  -45.0599 H         1 UNK         0.0786 
     93 H93        27.6254  -28.4601  -45.6673 H         1 UNK         0.0786 
     94 H94        28.9115  -29.0732  -44.6371 H         1 UNK         0.0786 
     95 H95        24.8908  -28.5070  -43.9134 H         1 UNK         0.3172 
     96 H96        24.9550  -31.3032  -43.1085 H         1 UNK         0.0595 
     97 H97        23.3772  -30.3734  -44.8553 H         1 UNK         0.0839 
     98 H98        22.5632  -31.2492  -43.5665 H         1 UNK         0.0839 
     99 H99        22.5412  -29.4962  -43.5727 H         1 UNK         0.0839 
    100 H100       24.7470  -28.3562  -41.3737 H         1 UNK         0.2998 
    101 H101       24.6320  -27.7558  -39.3023 H         1 UNK         0.0822 
    102 H102       26.1606  -29.6464  -38.8178 H         1 UNK         0.0787 
    103 H103       25.0855  -29.3506  -37.4601 H         1 UNK         0.0787 
    104 H104       24.7890  -30.7149  -38.5253 H         1 UNK         0.0787 
    105 H105       22.3455  -30.4211  -39.8355 H         1 UNK         0.3055 
    106 H106       20.1424  -28.8242  -38.7333 H         1 UNK         0.1106 
    107 H107       19.3944  -30.6318  -37.1607 H         1 UNK         0.0828 
    108 H108       20.9203  -31.4764  -37.4051 H         1 UNK         0.0828 
    109 H109       20.8988  -29.8860  -36.6532 H         1 UNK         0.0828 
    110 H110       20.9198  -32.2247  -39.6188 H         1 UNK         0.2931 
    111 H111       19.9930  -33.6924  -40.9267 H         1 UNK         0.0412 
    112 H112       18.4053  -32.7315  -38.5666 H         1 UNK         0.3472 
    113 H113       16.7821  -33.2740  -38.9084 H         1 UNK         0.3472 
    114 H114       20.4035  -31.7757  -42.7057 H         1 UNK         0.0970 
    115 H115       18.6688  -31.6544  -42.7611 H         1 UNK         0.0970 
    116 H116       21.3508  -32.9201  -44.8607 H         1 UNK         0.0612 
    117 H117       20.3280  -33.8953  -45.8868 H         1 UNK         0.0612 
@<TRIPOS>BOND
     1    1    2 1    
     2    1   62 1    
     3    1   63 1    
     4    1   64 1    
     5    2    3 2    
     6    2    4 am   BACKBONE|DICT|INTERRES
     7    4    5 1    
     8    4   65 1    
     9    5    6 1    
    10    5   25 1    
    11    5   66 1    
    12    6    7 1    
    13    6   67 1    
    14    6   68 1    
    15    7    8 1    
    16    8    9 1    
    17    8   69 1    
    18    8   70 1    
    19    9   10 ar   
    20    9   14 ar   
    21   10   11 ar   
    22   10   71 1    
    23   11   12 ar   
    24   11   61 1    
    25   12   13 ar   
    26   12   72 1    
    27   13   14 ar   
    28   13   15 1    
    29   14   73 1    
    30   15   16 1    
    31   15   74 1    
    32   15   75 1    
    33   16   17 1    
    34   17   18 1    
    35   17   76 1    
    36   17   77 1    
    37   18   19 1    
    38   18   27 1    
    39   18   78 1    
    40   19   20 am   BACKBONE|DICT|INTERRES
    41   19   79 1    
    42   20   21 2    
    43   20   22 1    
    44   22   23 1    
    45   22   24 1    
    46   22   80 1    
    47   23   81 1    
    48   23   82 1    
    49   23   83 1    
    50   24   25 am   BACKBONE|DICT|INTERRES
    51   24   84 1    
    52   25   26 2    
    53   27   28 2    
    54   27   29 am   BACKBONE|DICT|INTERRES
    55   29   30 1    
    56   29   85 1    
    57   30   31 1    
    58   30   32 1    
    59   30   86 1    
    60   31   87 1    
    61   31   88 1    
    62   31   89 1    
    63   32   33 2    
    64   32   34 am   BACKBONE|DICT|INTERRES
    65   34   35 1    
    66   34   90 1    
    67   35   36 1    
    68   35   37 1    
    69   35   91 1    
    70   36   92 1    
    71   36   93 1    
    72   36   94 1    
    73   37   38 2    
    74   37   39 am   BACKBONE|DICT|INTERRES
    75   39   40 1    
    76   39   95 1    
    77   40   41 1    
    78   40   42 1    
    79   40   96 1    
    80   41   97 1    
    81   41   98 1    
    82   41   99 1    
    83   42   43 2    
    84   42   44 am   BACKBONE|DICT|INTERRES
    85   44   45 1    
    86   44  100 1    
    87   45   46 1    
    88   45   47 1    
    89   45  101 1    
    90   46  102 1    
    91   46  103 1    
    92   46  104 1    
    93   47   48 2    
    94   47   49 am   BACKBONE|DICT|INTERRES
    95   49   50 1    
    96   49  105 1    
    97   50   51 1    
    98   50   52 1    
    99   50  106 1    
   100   51  107 1    
   101   51  108 1    
   102   51  109 1    
   103   52   53 2    
   104   52   54 am   BACKBONE|DICT|INTERRES
   105   54   55 1    
   106   54  110 1    
   107   55   56 1    
   108   55   59 1    
   109   55  111 1    
   110   56   57 am   BACKBONE|DICT|INTERRES
   111   56   58 2    
   112   57  112 1    
   113   57  113 1    
   114   59   60 1    
   115   59  114 1    
   116   59  115 1    
   117   60   61 1    
   118   61  116 1    
   119   61  117 1    
@<TRIPOS>SUBSTRUCTURE
     1 UNK         1 GROUP             0       ****    0 ROOT    
