@<TRIPOS>MOLECULE
3R8
117   119    1
SMALL
USER_CHARGES


@<TRIPOS>ATOM
      1 CA         15.5454  -24.7522  -48.8981 C.3       0 UNK        -0.2013 
      2 C          16.9500  -24.5372  -48.3542 C.2       0 UNK         0.4866 
      3 O          17.4365  -23.4055  -48.3439 O.2       0 UNK        -0.5176 
      4 N          17.6086  -25.6151  -47.9118 N.am      1 UNK        -0.4884 
      5 CA         18.9338  -25.5931  -47.2834 C.3       1 UNK         0.0853 
      6 C6         19.6481  -26.9624  -47.4277 C.3       10 UNK        -0.0849 
      7 S7         18.7157  -28.3742  -46.7379 S.3       10 UNK        -0.2776 
      8 C8         19.7994  -28.8437  -45.3559 C.3       10 UNK         0.0316 
      9 C9         19.0410  -29.5904  -44.2717 C.ar      10 UNK        -0.0863 
     10 C10        19.3820  -30.9048  -43.9375 C.ar      10 UNK        -0.1009 
     11 C11        18.7327  -31.5571  -42.8851 C.ar      10 UNK        -0.0712 
     12 C12        17.7399  -30.8846  -42.1644 C.ar      10 UNK        -0.0894 
     13 C13        17.3814  -29.5757  -42.5002 C.ar      10 UNK        -0.0745 
     14 C14        18.0251  -28.9411  -43.5649 C.ar      10 UNK        -0.0972 
     15 C15        16.3042  -28.8460  -41.7108 C.3       10 UNK         0.0209 
     16 S16        17.0105  -27.8947  -40.3258 S.3       10 UNK        -0.2568 
     17 C17        17.7030  -26.4347  -41.1756 C.3       10 UNK        -0.0983 
     18 CA         19.2267  -26.5599  -41.4505 C.3       3 UNK         0.0876 
     19 N          19.6781  -25.7722  -42.6097 N.am      3 UNK        -0.4424 
     20 C          19.5662  -24.4479  -42.7804 C.2       2 UNK         0.4918 
     21 O          19.0556  -23.6911  -41.9536 O.2       2 UNK        -0.4875 
     22 CA         20.1631  -23.8485  -44.0663 C.3       2 UNK         0.0481 
     23 CB         21.6502  -23.5242  -43.8453 C.3       2 UNK        -0.1831 
     24 N          20.0192  -24.6443  -45.2941 N.am      2 UNK        -0.4498 
     25 C          18.8633  -25.0748  -45.8249 C.2       1 UNK         0.5027 
     26 O          17.7829  -25.0456  -45.2290 O.2       1 UNK        -0.4969 
     27 C          20.0866  -26.3190  -40.1916 C.2       3 UNK         0.5005 
     28 O          20.6813  -27.2641  -39.6738 O.2       3 UNK        -0.5279 
     29 N          20.2046  -25.0566  -39.7593 N.am      4 UNK        -0.4463 
     30 CA         21.0286  -24.6182  -38.6266 C.3       4 UNK         0.0283 
     31 CB         20.7505  -23.1326  -38.3483 C.3       4 UNK        -0.1875 
     32 C          22.5388  -24.8525  -38.8258 C.2       4 UNK         0.4949 
     33 O          23.2632  -24.9795  -37.8388 O.2       4 UNK        -0.5039 
     34 N          22.9762  -24.9135  -40.0900 N.am      5 UNK        -0.4663 
     35 CA         24.3536  -25.1896  -40.5032 C.3       5 UNK         0.0242 
     36 CB         24.8668  -23.9942  -41.3283 C.3       5 UNK        -0.1982 
     37 C          24.4702  -26.5110  -41.2886 C.2       5 UNK         0.5017 
     38 O          25.4984  -26.7311  -41.9311 O.2       5 UNK        -0.5012 
     39 N          23.4317  -27.3612  -41.2532 N.am      6 UNK        -0.4439 
     40 CA         23.4278  -28.6717  -41.9101 C.3       6 UNK         0.0297 
     41 CB         21.9798  -29.1367  -42.1303 C.3       6 UNK        -0.2006 
     42 C          24.2094  -29.7176  -41.0990 C.2       6 UNK         0.4892 
     43 O          24.4026  -29.5559  -39.8911 O.2       6 UNK        -0.5089 
     44 N          24.6140  -30.7891  -41.7844 N.am      7 UNK        -0.4243 
     45 CA         25.2995  -31.9511  -41.2321 C.3       7 UNK         0.0196 
     46 CB         26.8150  -31.6827  -41.1688 C.3       7 UNK        -0.2007 
     47 C          24.9827  -33.1614  -42.1181 C.2       7 UNK         0.5020 
     48 O          24.5154  -32.9856  -43.2468 O.2       7 UNK        -0.5147 
     49 N          25.2588  -34.3624  -41.5910 N.am      8 UNK        -0.4734 
     50 CA         25.0615  -35.6728  -42.2304 C.3       8 UNK         0.0238 
     51 CB         25.9830  -35.8329  -43.4600 C.3       8 UNK        -0.1912 
     52 C          23.5841  -35.9952  -42.5406 C.2       8 UNK         0.5038 
     53 O          23.2971  -36.6657  -43.5344 O.2       8 UNK        -0.5046 
     54 N          22.6765  -35.5291  -41.6716 N.am      9 UNK        -0.4200 
     55 CA         21.2309  -35.8032  -41.7349 C.3       9 UNK         0.0839 
     56 C          20.8340  -37.2703  -41.3928 C.2       9 UNK         0.5513 
     57 N          21.7047  -38.0792  -40.8002 N.am      9 UNK        -0.7519 
     58 O          19.7116  -37.6814  -41.6751 O.2       9 UNK        -0.4960 
     59 C59        20.4187  -34.8058  -40.8677 C.3       10 UNK        -0.0876 
     60 S60        20.5477  -33.0778  -41.4429 S.3       10 UNK        -0.2414 
     61 C61        19.0911  -32.9919  -42.5314 C.3       10 UNK         0.0169 
     62 H62        14.8261  -24.1771  -48.3156 H         1 UNK         0.0903 
     63 H63        15.4888  -24.4200  -49.9344 H         1 UNK         0.0903 
     64 H64        15.2501  -25.8007  -48.8615 H         1 UNK         0.0903 
     65 H65        17.1518  -26.5167  -47.9077 H         1 UNK         0.3096 
     66 H66        19.5351  -24.8645  -47.8329 H         1 UNK         0.1121 
     67 H67        19.8039  -27.1690  -48.4879 H         1 UNK         0.0849 
     68 H68        20.6519  -26.9229  -47.0014 H         1 UNK         0.0849 
     69 H69        20.6291  -29.4399  -45.7394 H         1 UNK         0.0865 
     70 H70        20.2406  -27.9515  -44.9117 H         1 UNK         0.0865 
     71 H71        20.1636  -31.4176  -44.4816 H         1 UNK         0.1346 
     72 H72        17.2446  -31.3811  -41.3410 H         1 UNK         0.1412 
     73 H73        17.7550  -27.9274  -43.8296 H         1 UNK         0.1426 
     74 H74        15.5905  -29.5669  -41.3091 H         1 UNK         0.0716 
     75 H75        15.7297  -28.1872  -42.3639 H         1 UNK         0.0716 
     76 H76        17.1627  -26.2952  -42.1130 H         1 UNK         0.0695 
     77 H77        17.4796  -25.5466  -40.5818 H         1 UNK         0.0695 
     78 H78        19.4214  -27.5942  -41.7307 H         1 UNK         0.0983 
     79 H79        20.1372  -26.2931  -43.3410 H         1 UNK         0.3095 
     80 H80        19.6409  -22.9062  -44.2442 H         1 UNK         0.0454 
     81 H81        22.2490  -24.4281  -43.7268 H         1 UNK         0.0851 
     82 H82        22.0619  -22.9568  -44.6801 H         1 UNK         0.0851 
     83 H83        21.7921  -22.9178  -42.9492 H         1 UNK         0.0851 
     84 H84        20.8549  -24.7261  -45.8559 H         1 UNK         0.2976 
     85 H85        19.7106  -24.3391  -40.2849 H         1 UNK         0.3116 
     86 H86        20.7221  -25.1952  -37.7516 H         1 UNK         0.0646 
     87 H87        21.3302  -22.7797  -37.4941 H         1 UNK         0.0847 
     88 H88        19.6992  -22.9615  -38.1161 H         1 UNK         0.0847 
     89 H89        21.0128  -22.5057  -39.2015 H         1 UNK         0.0847 
     90 H90        22.2998  -24.7939  -40.8293 H         1 UNK         0.3040 
     91 H91        24.9982  -25.2981  -39.6281 H         1 UNK         0.1015 
     92 H92        24.7883  -23.0632  -40.7666 H         1 UNK         0.0786 
     93 H93        24.3088  -23.8737  -42.2571 H         1 UNK         0.0786 
     94 H94        25.9176  -24.1198  -41.5930 H         1 UNK         0.0786 
     95 H95        22.6634  -27.1704  -40.6208 H         1 UNK         0.3172 
     96 H96        23.9027  -28.5719  -42.8889 H         1 UNK         0.0595 
     97 H97        21.4202  -28.4146  -42.7213 H         1 UNK         0.0839 
     98 H98        21.4527  -29.2918  -41.1884 H         1 UNK         0.0839 
     99 H99        21.9489  -30.0840  -42.6701 H         1 UNK         0.0839 
    100 H100       24.3585  -30.8949  -42.7593 H         1 UNK         0.2998 
    101 H101       24.9170  -32.1524  -40.2289 H         1 UNK         0.0822 
    102 H102       27.0398  -30.8236  -40.5363 H         1 UNK         0.0787 
    103 H103       27.3515  -32.5367  -40.7538 H         1 UNK         0.0787 
    104 H104       27.2290  -31.4858  -42.1587 H         1 UNK         0.0787 
    105 H105       25.6438  -34.3912  -40.6558 H         1 UNK         0.3055 
    106 H106       25.3734  -36.4185  -41.4972 H         1 UNK         0.1106 
    107 H107       25.9514  -36.8539  -43.8427 H         1 UNK         0.0828 
    108 H108       25.6894  -35.1731  -44.2769 H         1 UNK         0.0828 
    109 H109       27.0213  -35.6158  -43.2096 H         1 UNK         0.0828 
    110 H110       22.9937  -34.9745  -40.8911 H         1 UNK         0.2931 
    111 H111       20.9244  -35.6529  -42.7722 H         1 UNK         0.0412 
    112 H112       21.4325  -39.0267  -40.5886 H         1 UNK         0.3472 
    113 H113       22.6263  -37.7537  -40.5572 H         1 UNK         0.3472 
    114 H114       20.7583  -34.8465  -39.8312 H         1 UNK         0.0970 
    115 H115       19.3637  -35.0847  -40.8372 H         1 UNK         0.0970 
    116 H116       19.2886  -33.5631  -43.4398 H         1 UNK         0.0612 
    117 H117       18.2387  -33.4704  -42.0468 H         1 UNK         0.0612 
@<TRIPOS>BOND
     1    1    2 1    
     2    1   62 1    
     3    1   63 1    
     4    1   64 1    
     5    2    3 2    
     6    2    4 am   BACKBONE|DICT|INTERRES
     7    4    5 1    
     8    4   65 1    
     9    5    6 1    
    10    5   25 1    
    11    5   66 1    
    12    6    7 1    
    13    6   67 1    
    14    6   68 1    
    15    7    8 1    
    16    8    9 1    
    17    8   69 1    
    18    8   70 1    
    19    9   10 ar   
    20    9   14 ar   
    21   10   11 ar   
    22   10   71 1    
    23   11   12 ar   
    24   11   61 1    
    25   12   13 ar   
    26   12   72 1    
    27   13   14 ar   
    28   13   15 1    
    29   14   73 1    
    30   15   16 1    
    31   15   74 1    
    32   15   75 1    
    33   16   17 1    
    34   17   18 1    
    35   17   76 1    
    36   17   77 1    
    37   18   19 1    
    38   18   27 1    
    39   18   78 1    
    40   19   20 am   BACKBONE|DICT|INTERRES
    41   19   79 1    
    42   20   21 2    
    43   20   22 1    
    44   22   23 1    
    45   22   24 1    
    46   22   80 1    
    47   23   81 1    
    48   23   82 1    
    49   23   83 1    
    50   24   25 am   BACKBONE|DICT|INTERRES
    51   24   84 1    
    52   25   26 2    
    53   27   28 2    
    54   27   29 am   BACKBONE|DICT|INTERRES
    55   29   30 1    
    56   29   85 1    
    57   30   31 1    
    58   30   32 1    
    59   30   86 1    
    60   31   87 1    
    61   31   88 1    
    62   31   89 1    
    63   32   33 2    
    64   32   34 am   BACKBONE|DICT|INTERRES
    65   34   35 1    
    66   34   90 1    
    67   35   36 1    
    68   35   37 1    
    69   35   91 1    
    70   36   92 1    
    71   36   93 1    
    72   36   94 1    
    73   37   38 2    
    74   37   39 am   BACKBONE|DICT|INTERRES
    75   39   40 1    
    76   39   95 1    
    77   40   41 1    
    78   40   42 1    
    79   40   96 1    
    80   41   97 1    
    81   41   98 1    
    82   41   99 1    
    83   42   43 2    
    84   42   44 am   BACKBONE|DICT|INTERRES
    85   44   45 1    
    86   44  100 1    
    87   45   46 1    
    88   45   47 1    
    89   45  101 1    
    90   46  102 1    
    91   46  103 1    
    92   46  104 1    
    93   47   48 2    
    94   47   49 am   BACKBONE|DICT|INTERRES
    95   49   50 1    
    96   49  105 1    
    97   50   51 1    
    98   50   52 1    
    99   50  106 1    
   100   51  107 1    
   101   51  108 1    
   102   51  109 1    
   103   52   53 2    
   104   52   54 am   BACKBONE|DICT|INTERRES
   105   54   55 1    
   106   54  110 1    
   107   55   56 1    
   108   55   59 1    
   109   55  111 1    
   110   56   57 am   BACKBONE|DICT|INTERRES
   111   56   58 2    
   112   57  112 1    
   113   57  113 1    
   114   59   60 1    
   115   59  114 1    
   116   59  115 1    
   117   60   61 1    
   118   61  116 1    
   119   61  117 1    
@<TRIPOS>SUBSTRUCTURE
     1 UNK         1 GROUP             0       ****    0 ROOT    
