@<TRIPOS>MOLECULE
3R8
117   119    1
SMALL
USER_CHARGES


@<TRIPOS>ATOM
      1 CA         18.4730  -27.4821  -41.2800 C.3       0 UNK        -0.2013 
      2 C          18.2598  -26.9329  -42.6818 C.2       0 UNK         0.4866 
      3 O          19.1848  -26.9688  -43.4919 O.2       0 UNK        -0.5176 
      4 N          17.0577  -26.4119  -42.9654 N.am      1 UNK        -0.4884 
      5 CA         16.6187  -25.8718  -44.2630 C.3       1 UNK         0.0853 
      6 C6         16.3603  -26.9818  -45.3245 C.3       10 UNK        -0.0849 
      7 S7         15.1957  -28.2649  -44.7521 S.3       10 UNK        -0.2776 
      8 C8         15.8737  -29.7579  -45.5510 C.3       10 UNK         0.0316 
      9 C9         17.2529  -30.1291  -45.0213 C.ar      10 UNK        -0.0863 
     10 C10        17.3977  -30.5952  -43.7121 C.ar      10 UNK        -0.1009 
     11 C11        18.6555  -30.9547  -43.2214 C.ar      10 UNK        -0.0712 
     12 C12        19.7784  -30.8325  -44.0460 C.ar      10 UNK        -0.0894 
     13 C13        19.6478  -30.3734  -45.3608 C.ar      10 UNK        -0.0745 
     14 C14        18.3808  -30.0284  -45.8434 C.ar      10 UNK        -0.0972 
     15 C15        20.8670  -30.2982  -46.2737 C.3       10 UNK         0.0209 
     16 S16        21.2152  -28.6103  -46.8664 S.3       10 UNK        -0.2568 
     17 C17        21.8521  -27.8128  -45.3559 C.3       10 UNK        -0.0983 
     18 CA         21.9061  -26.2689  -45.4858 C.3       3 UNK         0.0876 
     19 N          20.6115  -25.6759  -45.8391 N.am      3 UNK        -0.4424 
     20 C          20.4471  -24.4383  -46.3322 C.2       2 UNK         0.4918 
     21 O          21.3820  -23.6751  -46.5768 O.2       2 UNK        -0.4875 
     22 CA         19.0109  -23.9622  -46.6280 C.3       2 UNK         0.0481 
     23 CB         18.7749  -23.8910  -48.1458 C.3       2 UNK        -0.1831 
     24 N          17.9891  -24.8234  -46.0315 N.am      2 UNK        -0.4498 
     25 C          17.5699  -24.7535  -44.7597 C.2       1 UNK         0.5027 
     26 O          17.9199  -23.8660  -43.9779 O.2       1 UNK        -0.4969 
     27 C          22.4575  -25.6197  -44.2033 C.2       3 UNK         0.5005 
     28 O          23.6277  -25.2371  -44.1703 O.2       3 UNK        -0.5279 
     29 N          21.5865  -25.4806  -43.1910 N.am      4 UNK        -0.4463 
     30 CA         21.7097  -24.7224  -41.9348 C.3       4 UNK         0.0283 
     31 CB         21.8404  -23.2165  -42.2305 C.3       4 UNK        -0.1875 
     32 C          22.8057  -25.1745  -40.9485 C.2       4 UNK         0.4949 
     33 O          22.6231  -25.0087  -39.7428 O.2       4 UNK        -0.5039 
     34 N          23.9134  -25.7295  -41.4524 N.am      5 UNK        -0.4663 
     35 CA         25.0925  -26.1521  -40.6887 C.3       5 UNK         0.0242 
     36 CB         26.2439  -26.4160  -41.6738 C.3       5 UNK        -0.1982 
     37 C          24.8721  -27.3814  -39.7877 C.2       5 UNK         0.5017 
     38 O          25.7040  -27.6318  -38.9150 O.2       5 UNK        -0.5012 
     39 N          23.7824  -28.1283  -40.0256 N.am      6 UNK        -0.4439 
     40 CA         23.3864  -29.3657  -39.3394 C.3       6 UNK         0.0297 
     41 CB         23.0344  -29.0954  -37.8611 C.3       6 UNK        -0.2006 
     42 C          24.4108  -30.5046  -39.5211 C.2       6 UNK         0.4892 
     43 O          24.6758  -31.2620  -38.5861 O.2       6 UNK        -0.5089 
     44 N          24.9541  -30.6122  -40.7427 N.am      7 UNK        -0.4243 
     45 CA         25.8461  -31.6938  -41.1774 C.3       7 UNK         0.0196 
     46 CB         26.6095  -31.2321  -42.4301 C.3       7 UNK        -0.2007 
     47 C          25.1017  -33.0168  -41.4519 C.2       7 UNK         0.5020 
     48 O          25.7452  -34.0573  -41.5913 O.2       7 UNK        -0.5147 
     49 N          23.7691  -32.9520  -41.5253 N.am      8 UNK        -0.4734 
     50 CA         22.8408  -34.0705  -41.6419 C.3       8 UNK         0.0238 
     51 CB         22.3417  -34.1565  -43.0967 C.3       8 UNK        -0.1912 
     52 C          21.6836  -33.8379  -40.6570 C.2       8 UNK         0.5038 
     53 O          21.6476  -32.8003  -39.9888 O.2       8 UNK        -0.5046 
     54 N          20.7548  -34.7998  -40.6008 N.am      9 UNK        -0.4200 
     55 CA         19.5540  -34.8033  -39.7422 C.3       9 UNK         0.0839 
     56 C          19.8367  -35.0978  -38.2375 C.2       9 UNK         0.5513 
     57 N          21.0231  -35.5616  -37.8632 N.am      9 UNK        -0.7519 
     58 O          18.9571  -34.9347  -37.3954 O.2       9 UNK        -0.4960 
     59 C59        18.6242  -33.5658  -39.9326 C.3       10 UNK        -0.0876 
     60 S60        18.2266  -33.2047  -41.6783 S.3       10 UNK        -0.2414 
     61 C61        18.7945  -31.4798  -41.8021 C.3       10 UNK         0.0169 
     62 H62        17.5309  -27.6188  -40.7497 H         1 UNK         0.0903 
     63 H63        19.0997  -26.8040  -40.7017 H         1 UNK         0.0903 
     64 H64        18.9748  -28.4475  -41.3319 H         1 UNK         0.0903 
     65 H65        16.3555  -26.3869  -42.2396 H         1 UNK         0.3096 
     66 H66        15.6663  -25.3735  -44.0746 H         1 UNK         0.1121 
     67 H67        15.9363  -26.5564  -46.2359 H         1 UNK         0.0849 
     68 H68        17.3024  -27.4531  -45.6064 H         1 UNK         0.0849 
     69 H69        15.1907  -30.5908  -45.3779 H         1 UNK         0.0865 
     70 H70        15.8984  -29.6060  -46.6313 H         1 UNK         0.0865 
     71 H71        16.5278  -30.6847  -43.0756 H         1 UNK         0.1346 
     72 H72        20.7525  -31.1080  -43.6675 H         1 UNK         0.1412 
     73 H73        18.2779  -29.6803  -46.8623 H         1 UNK         0.1426 
     74 H74        21.7553  -30.6904  -45.7759 H         1 UNK         0.0716 
     75 H75        20.6942  -30.9408  -47.1380 H         1 UNK         0.0716 
     76 H76        22.8490  -28.2117  -45.1591 H         1 UNK         0.0695 
     77 H77        21.2313  -28.1150  -44.5119 H         1 UNK         0.0695 
     78 H78        22.6066  -26.0318  -46.2899 H         1 UNK         0.0983 
     79 H79        19.7990  -26.2309  -45.6086 H         1 UNK         0.3095 
     80 H80        18.9086  -22.9533  -46.2227 H         1 UNK         0.0454 
     81 H81        17.7810  -23.5070  -48.3761 H         1 UNK         0.0851 
     82 H82        18.8766  -24.8687  -48.6184 H         1 UNK         0.0851 
     83 H83        19.4948  -23.2239  -48.6222 H         1 UNK         0.0851 
     84 H84        17.6447  -25.5733  -46.6133 H         1 UNK         0.2976 
     85 H85        20.6765  -25.9207  -43.3298 H         1 UNK         0.3116 
     86 H86        20.7596  -24.8701  -41.4189 H         1 UNK         0.0646 
     87 H87        21.0088  -22.8599  -42.8386 H         1 UNK         0.0847 
     88 H88        21.8398  -22.6346  -41.3078 H         1 UNK         0.0847 
     89 H89        22.7658  -22.9857  -42.7593 H         1 UNK         0.0847 
     90 H90        23.9893  -25.7436  -42.4681 H         1 UNK         0.3040 
     91 H91        25.3808  -25.3263  -40.0345 H         1 UNK         0.1015 
     92 H92        26.0045  -27.2231  -42.3673 H         1 UNK         0.0786 
     93 H93        27.1563  -26.6985  -41.1462 H         1 UNK         0.0786 
     94 H94        26.4744  -25.5270  -42.2614 H         1 UNK         0.0786 
     95 H95        23.1716  -27.8148  -40.7670 H         1 UNK         0.3172 
     96 H96        22.4732  -29.7057  -39.8307 H         1 UNK         0.0595 
     97 H97        22.6076  -29.9841  -37.3943 H         1 UNK         0.0839 
     98 H98        22.2989  -28.2964  -37.7678 H         1 UNK         0.0839 
     99 H99        23.9122  -28.8138  -37.2788 H         1 UNK         0.0839 
    100 H100       24.6938  -29.9331  -41.4429 H         1 UNK         0.2998 
    101 H101       26.5713  -31.8860  -40.3836 H         1 UNK         0.0822 
    102 H102       27.3150  -31.9957  -42.7608 H         1 UNK         0.0787 
    103 H103       25.9349  -31.0298  -43.2630 H         1 UNK         0.0787 
    104 H104       27.1840  -30.3264  -42.2338 H         1 UNK         0.0787 
    105 H105       23.3261  -32.0734  -41.2929 H         1 UNK         0.3055 
    106 H106       23.3385  -35.0028  -41.3651 H         1 UNK         0.1106 
    107 H107       23.1737  -34.2550  -43.7943 H         1 UNK         0.0828 
    108 H108       21.6954  -35.0218  -43.2466 H         1 UNK         0.0828 
    109 H109       21.7716  -33.2719  -43.3808 H         1 UNK         0.0828 
    110 H110       20.8669  -35.6176  -41.1820 H         1 UNK         0.2931 
    111 H111       18.9844  -35.6696  -40.0806 H         1 UNK         0.0412 
    112 H112       21.7520  -35.7128  -38.5416 H         1 UNK         0.3472 
    113 H113       21.1908  -35.7589  -36.8889 H         1 UNK         0.3472 
    114 H114       17.6776  -33.7270  -39.4139 H         1 UNK         0.0970 
    115 H115       19.0663  -32.6851  -39.4639 H         1 UNK         0.0970 
    116 H116       18.2094  -30.8592  -41.1218 H         1 UNK         0.0612 
    117 H117       19.8319  -31.4109  -41.4727 H         1 UNK         0.0612 
@<TRIPOS>BOND
     1    1    2 1    
     2    1   62 1    
     3    1   63 1    
     4    1   64 1    
     5    2    3 2    
     6    2    4 am   BACKBONE|DICT|INTERRES
     7    4    5 1    
     8    4   65 1    
     9    5    6 1    
    10    5   25 1    
    11    5   66 1    
    12    6    7 1    
    13    6   67 1    
    14    6   68 1    
    15    7    8 1    
    16    8    9 1    
    17    8   69 1    
    18    8   70 1    
    19    9   10 ar   
    20    9   14 ar   
    21   10   11 ar   
    22   10   71 1    
    23   11   12 ar   
    24   11   61 1    
    25   12   13 ar   
    26   12   72 1    
    27   13   14 ar   
    28   13   15 1    
    29   14   73 1    
    30   15   16 1    
    31   15   74 1    
    32   15   75 1    
    33   16   17 1    
    34   17   18 1    
    35   17   76 1    
    36   17   77 1    
    37   18   19 1    
    38   18   27 1    
    39   18   78 1    
    40   19   20 am   BACKBONE|DICT|INTERRES
    41   19   79 1    
    42   20   21 2    
    43   20   22 1    
    44   22   23 1    
    45   22   24 1    
    46   22   80 1    
    47   23   81 1    
    48   23   82 1    
    49   23   83 1    
    50   24   25 am   BACKBONE|DICT|INTERRES
    51   24   84 1    
    52   25   26 2    
    53   27   28 2    
    54   27   29 am   BACKBONE|DICT|INTERRES
    55   29   30 1    
    56   29   85 1    
    57   30   31 1    
    58   30   32 1    
    59   30   86 1    
    60   31   87 1    
    61   31   88 1    
    62   31   89 1    
    63   32   33 2    
    64   32   34 am   BACKBONE|DICT|INTERRES
    65   34   35 1    
    66   34   90 1    
    67   35   36 1    
    68   35   37 1    
    69   35   91 1    
    70   36   92 1    
    71   36   93 1    
    72   36   94 1    
    73   37   38 2    
    74   37   39 am   BACKBONE|DICT|INTERRES
    75   39   40 1    
    76   39   95 1    
    77   40   41 1    
    78   40   42 1    
    79   40   96 1    
    80   41   97 1    
    81   41   98 1    
    82   41   99 1    
    83   42   43 2    
    84   42   44 am   BACKBONE|DICT|INTERRES
    85   44   45 1    
    86   44  100 1    
    87   45   46 1    
    88   45   47 1    
    89   45  101 1    
    90   46  102 1    
    91   46  103 1    
    92   46  104 1    
    93   47   48 2    
    94   47   49 am   BACKBONE|DICT|INTERRES
    95   49   50 1    
    96   49  105 1    
    97   50   51 1    
    98   50   52 1    
    99   50  106 1    
   100   51  107 1    
   101   51  108 1    
   102   51  109 1    
   103   52   53 2    
   104   52   54 am   BACKBONE|DICT|INTERRES
   105   54   55 1    
   106   54  110 1    
   107   55   56 1    
   108   55   59 1    
   109   55  111 1    
   110   56   57 am   BACKBONE|DICT|INTERRES
   111   56   58 2    
   112   57  112 1    
   113   57  113 1    
   114   59   60 1    
   115   59  114 1    
   116   59  115 1    
   117   60   61 1    
   118   61  116 1    
   119   61  117 1    
@<TRIPOS>SUBSTRUCTURE
     1 UNK         1 GROUP             0       ****    0 ROOT    
