@<TRIPOS>MOLECULE
3R8
117   119    1
SMALL
USER_CHARGES


@<TRIPOS>ATOM
      1 CA         15.6056  -27.3482  -41.1913 C.3       0 UNK        -0.2013 
      2 C          15.5606  -26.3553  -42.3430 C.2       0 UNK         0.4866 
      3 O          14.9981  -25.2700  -42.1974 O.2       0 UNK        -0.5176 
      4 N          16.1510  -26.7248  -43.4865 N.am      1 UNK        -0.4884 
      5 CA         16.2888  -25.8801  -44.6771 C.3       1 UNK         0.0853 
      6 C6         16.6836  -26.6688  -45.9541 C.3       10 UNK        -0.0849 
      7 S7         15.4483  -27.8998  -46.4976 S.3       10 UNK        -0.2776 
      8 C8         15.6350  -29.3141  -45.3510 C.3       10 UNK         0.0316 
      9 C9         17.0764  -29.6658  -44.9933 C.ar      10 UNK        -0.0863 
     10 C10        17.4545  -29.7747  -43.6514 C.ar      10 UNK        -0.1009 
     11 C11        18.7589  -30.1361  -43.3022 C.ar      10 UNK        -0.0712 
     12 C12        19.6956  -30.3839  -44.3101 C.ar      10 UNK        -0.0894 
     13 C13        19.3285  -30.2912  -45.6563 C.ar      10 UNK        -0.0745 
     14 C14        18.0186  -29.9336  -45.9912 C.ar      10 UNK        -0.0972 
     15 C15        20.3275  -30.6206  -46.7552 C.3       10 UNK         0.0209 
     16 S16        21.1181  -29.1280  -47.4310 S.3       10 UNK        -0.2568 
     17 C17        22.4115  -28.7843  -46.1916 C.3       10 UNK        -0.0983 
     18 CA         22.2742  -27.3685  -45.5816 C.3       3 UNK         0.0876 
     19 N          21.0345  -27.2148  -44.8187 N.am      3 UNK        -0.4424 
     20 C          20.5127  -26.0403  -44.4499 C.2       2 UNK         0.4918 
     21 O          21.0198  -24.9473  -44.7150 O.2       2 UNK        -0.4875 
     22 CA         19.2065  -26.0969  -43.6485 C.3       2 UNK         0.0481 
     23 CB         19.5083  -26.2180  -42.1481 C.3       2 UNK        -0.1831 
     24 N          18.4599  -24.8610  -43.8947 N.am      2 UNK        -0.4498 
     25 C          17.2437  -24.6851  -44.4380 C.2       1 UNK         0.5027 
     26 O          16.8496  -23.5596  -44.7407 O.2       1 UNK        -0.4969 
     27 C          23.4939  -27.0209  -44.7053 C.2       3 UNK         0.5005 
     28 O          23.9142  -27.8513  -43.8949 O.2       3 UNK        -0.5279 
     29 N          24.0316  -25.8047  -44.8855 N.am      4 UNK        -0.4463 
     30 CA         25.2279  -25.2533  -44.2391 C.3       4 UNK         0.0283 
     31 CB         26.4981  -25.9187  -44.8182 C.3       4 UNK        -0.1875 
     32 C          25.1368  -25.3072  -42.7013 C.2       4 UNK         0.4949 
     33 O          24.3461  -24.5656  -42.1181 O.2       4 UNK        -0.5039 
     34 N          25.9279  -26.1901  -42.0787 N.am      5 UNK        -0.4663 
     35 CA         25.9592  -26.4344  -40.6346 C.3       5 UNK         0.0242 
     36 CB         27.2963  -27.1115  -40.2852 C.3       5 UNK        -0.1982 
     37 C          24.7762  -27.2743  -40.1119 C.2       5 UNK         0.5017 
     38 O          24.6860  -27.4645  -38.8986 O.2       5 UNK        -0.5012 
     39 N          23.9182  -27.7811  -41.0138 N.am      6 UNK        -0.4439 
     40 CA         22.7840  -28.6794  -40.7587 C.3       6 UNK         0.0297 
     41 CB         21.7572  -28.0415  -39.7972 C.3       6 UNK        -0.2006 
     42 C          23.2337  -30.0789  -40.2988 C.2       6 UNK         0.4892 
     43 O          22.5120  -30.7391  -39.5503 O.2       6 UNK        -0.5089 
     44 N          24.4093  -30.5202  -40.7712 N.am      7 UNK        -0.4243 
     45 CA         25.0716  -31.7735  -40.3886 C.3       7 UNK         0.0196 
     46 CB         26.4551  -31.8333  -41.0560 C.3       7 UNK        -0.2007 
     47 C          24.2673  -33.0494  -40.6986 C.2       7 UNK         0.5020 
     48 O          24.4525  -34.0576  -40.0173 O.2       7 UNK        -0.5147 
     49 N          23.3794  -32.9828  -41.6999 N.am      8 UNK        -0.4734 
     50 CA         22.4367  -34.0518  -42.0415 C.3       8 UNK         0.0238 
     51 CB         21.8852  -33.8044  -43.4554 C.3       8 UNK        -0.1912 
     52 C          21.2784  -34.1896  -41.0343 C.2       8 UNK         0.5038 
     53 O          20.6763  -35.2624  -40.9689 O.2       8 UNK        -0.5046 
     54 N          20.9811  -33.1166  -40.2902 N.am      9 UNK        -0.4200 
     55 CA         19.9122  -33.0516  -39.2838 C.3       9 UNK         0.0839 
     56 C          20.4677  -33.1710  -37.8413 C.2       9 UNK         0.5513 
     57 N          21.6231  -32.5924  -37.5385 N.am      9 UNK        -0.7519 
     58 O          19.8461  -33.8014  -36.9900 O.2       9 UNK        -0.4960 
     59 C59        19.0614  -31.7641  -39.4342 C.3       10 UNK        -0.0876 
     60 S60        18.2452  -31.6679  -41.0631 S.3       10 UNK        -0.2414 
     61 C61        19.1415  -30.2863  -41.8368 C.3       10 UNK         0.0169 
     62 H62        16.5345  -27.9175  -41.1903 H         1 UNK         0.0903 
     63 H63        15.5374  -26.8265  -40.2368 H         1 UNK         0.0903 
     64 H64        14.7697  -28.0440  -41.2587 H         1 UNK         0.0903 
     65 H65        16.5919  -27.6298  -43.5523 H         1 UNK         0.3096 
     66 H66        15.3034  -25.4472  -44.8661 H         1 UNK         0.1121 
     67 H67        16.7943  -25.9711  -46.7868 H         1 UNK         0.0849 
     68 H68        17.6560  -27.1489  -45.8660 H         1 UNK         0.0849 
     69 H69        15.0514  -29.1079  -44.4528 H         1 UNK         0.0865 
     70 H70        15.1697  -30.1889  -45.8071 H         1 UNK         0.0865 
     71 H71        16.7251  -29.6206  -42.8686 H         1 UNK         0.1346 
     72 H72        20.7034  -30.6734  -44.0484 H         1 UNK         0.1412 
     73 H73        17.7289  -29.8693  -47.0315 H         1 UNK         0.1426 
     74 H74        19.8128  -31.1368  -47.5671 H         1 UNK         0.0716 
     75 H75        21.0877  -31.3158  -46.3953 H         1 UNK         0.0716 
     76 H76        23.3742  -28.8883  -46.6960 H         1 UNK         0.0695 
     77 H77        22.3993  -29.5462  -45.4106 H         1 UNK         0.0695 
     78 H78        22.2457  -26.6601  -46.4131 H         1 UNK         0.0983 
     79 H79        20.5552  -28.0705  -44.5798 H         1 UNK         0.3095 
     80 H80        18.6599  -26.9835  -43.9573 H         1 UNK         0.0454 
     81 H81        20.0244  -27.1540  -41.9373 H         1 UNK         0.0851 
     82 H82        18.5953  -26.2105  -41.5537 H         1 UNK         0.0851 
     83 H83        20.1435  -25.4047  -41.7941 H         1 UNK         0.0851 
     84 H84        19.0356  -24.0350  -43.8046 H         1 UNK         0.2976 
     85 H85        23.5457  -25.1670  -45.5024 H         1 UNK         0.3116 
     86 H86        25.2639  -24.1950  -44.5025 H         1 UNK         0.0646 
     87 H87        27.4019  -25.5068  -44.3667 H         1 UNK         0.0847 
     88 H88        26.5095  -26.9986  -44.6664 H         1 UNK         0.0847 
     89 H89        26.5737  -25.7417  -45.8911 H         1 UNK         0.0847 
     90 H90        26.5258  -26.7721  -42.6478 H         1 UNK         0.3040 
     91 H91        25.9169  -25.4717  -40.1202 H         1 UNK         0.1015 
     92 H92        27.3899  -27.2650  -39.2091 H         1 UNK         0.0786 
     93 H93        28.1442  -26.5004  -40.5954 H         1 UNK         0.0786 
     94 H94        27.3921  -28.0879  -40.7620 H         1 UNK         0.0786 
     95 H95        24.0938  -27.5902  -41.9985 H         1 UNK         0.3172 
     96 H96        22.2914  -28.8169  -41.7222 H         1 UNK         0.0595 
     97 H97        22.1168  -28.0331  -38.7678 H         1 UNK         0.0839 
     98 H98        20.8198  -28.5975  -39.8008 H         1 UNK         0.0839 
     99 H99        21.5315  -27.0128  -40.0756 H         1 UNK         0.0839 
    100 H100       24.9189  -29.9143  -41.3978 H         1 UNK         0.2998 
    101 H101       25.2154  -31.7442  -39.3064 H         1 UNK         0.0822 
    102 H102       26.9880  -32.7415  -40.7702 H         1 UNK         0.0787 
    103 H103       26.3788  -31.8290  -42.1441 H         1 UNK         0.0787 
    104 H104       27.0772  -30.9889  -40.7581 H         1 UNK         0.0787 
    105 H105       23.3109  -32.1211  -42.2211 H         1 UNK         0.3055 
    106 H106       22.9787  -35.0005  -42.0457 H         1 UNK         0.1106 
    107 H107       22.6862  -33.7354  -44.1916 H         1 UNK         0.0828 
    108 H108       21.2320  -34.6213  -43.7656 H         1 UNK         0.0828 
    109 H109       21.2986  -32.8874  -43.5045 H         1 UNK         0.0828 
    110 H110       21.5779  -32.2998  -40.3418 H         1 UNK         0.2931 
    111 H111       19.2350  -33.8964  -39.4253 H         1 UNK         0.0412 
    112 H112       22.0917  -32.0028  -38.2204 H         1 UNK         0.3472 
    113 H113       21.9898  -32.6735  -36.6038 H         1 UNK         0.3472 
    114 H114       18.2785  -31.7367  -38.6737 H         1 UNK         0.0970 
    115 H115       19.6727  -30.8749  -39.2690 H         1 UNK         0.0970 
    116 H116       20.2146  -30.4539  -41.7336 H         1 UNK         0.0612 
    117 H117       18.9114  -29.3635  -41.3030 H         1 UNK         0.0612 
@<TRIPOS>BOND
     1    1    2 1    
     2    1   62 1    
     3    1   63 1    
     4    1   64 1    
     5    2    3 2    
     6    2    4 am   BACKBONE|DICT|INTERRES
     7    4    5 1    
     8    4   65 1    
     9    5    6 1    
    10    5   25 1    
    11    5   66 1    
    12    6    7 1    
    13    6   67 1    
    14    6   68 1    
    15    7    8 1    
    16    8    9 1    
    17    8   69 1    
    18    8   70 1    
    19    9   10 ar   
    20    9   14 ar   
    21   10   11 ar   
    22   10   71 1    
    23   11   12 ar   
    24   11   61 1    
    25   12   13 ar   
    26   12   72 1    
    27   13   14 ar   
    28   13   15 1    
    29   14   73 1    
    30   15   16 1    
    31   15   74 1    
    32   15   75 1    
    33   16   17 1    
    34   17   18 1    
    35   17   76 1    
    36   17   77 1    
    37   18   19 1    
    38   18   27 1    
    39   18   78 1    
    40   19   20 am   BACKBONE|DICT|INTERRES
    41   19   79 1    
    42   20   21 2    
    43   20   22 1    
    44   22   23 1    
    45   22   24 1    
    46   22   80 1    
    47   23   81 1    
    48   23   82 1    
    49   23   83 1    
    50   24   25 am   BACKBONE|DICT|INTERRES
    51   24   84 1    
    52   25   26 2    
    53   27   28 2    
    54   27   29 am   BACKBONE|DICT|INTERRES
    55   29   30 1    
    56   29   85 1    
    57   30   31 1    
    58   30   32 1    
    59   30   86 1    
    60   31   87 1    
    61   31   88 1    
    62   31   89 1    
    63   32   33 2    
    64   32   34 am   BACKBONE|DICT|INTERRES
    65   34   35 1    
    66   34   90 1    
    67   35   36 1    
    68   35   37 1    
    69   35   91 1    
    70   36   92 1    
    71   36   93 1    
    72   36   94 1    
    73   37   38 2    
    74   37   39 am   BACKBONE|DICT|INTERRES
    75   39   40 1    
    76   39   95 1    
    77   40   41 1    
    78   40   42 1    
    79   40   96 1    
    80   41   97 1    
    81   41   98 1    
    82   41   99 1    
    83   42   43 2    
    84   42   44 am   BACKBONE|DICT|INTERRES
    85   44   45 1    
    86   44  100 1    
    87   45   46 1    
    88   45   47 1    
    89   45  101 1    
    90   46  102 1    
    91   46  103 1    
    92   46  104 1    
    93   47   48 2    
    94   47   49 am   BACKBONE|DICT|INTERRES
    95   49   50 1    
    96   49  105 1    
    97   50   51 1    
    98   50   52 1    
    99   50  106 1    
   100   51  107 1    
   101   51  108 1    
   102   51  109 1    
   103   52   53 2    
   104   52   54 am   BACKBONE|DICT|INTERRES
   105   54   55 1    
   106   54  110 1    
   107   55   56 1    
   108   55   59 1    
   109   55  111 1    
   110   56   57 am   BACKBONE|DICT|INTERRES
   111   56   58 2    
   112   57  112 1    
   113   57  113 1    
   114   59   60 1    
   115   59  114 1    
   116   59  115 1    
   117   60   61 1    
   118   61  116 1    
   119   61  117 1    
@<TRIPOS>SUBSTRUCTURE
     1 UNK         1 GROUP             0       ****    0 ROOT    
