@<TRIPOS>MOLECULE
3R8
117   119    1
SMALL
USER_CHARGES


@<TRIPOS>ATOM
      1 CA         18.2136  -26.9944  -50.2472 C.3       0 UNK        -0.2013 
      2 C          18.2407  -27.2587  -48.7497 C.2       0 UNK         0.4866 
      3 O          19.2499  -27.7345  -48.2278 O.2       0 UNK        -0.5176 
      4 N          17.1458  -26.9435  -48.0463 N.am      1 UNK        -0.4884 
      5 CA         16.9690  -27.1420  -46.6007 C.3       1 UNK         0.0853 
      6 C6         15.4729  -27.3093  -46.2279 C.3       10 UNK        -0.0849 
      7 S7         14.8342  -28.9033  -46.8495 S.3       10 UNK        -0.2776 
      8 C8         14.5681  -29.8590  -45.3144 C.3       10 UNK         0.0316 
      9 C9         15.7550  -29.8271  -44.3547 C.ar      10 UNK        -0.0863 
     10 C10        17.0161  -30.2771  -44.7575 C.ar      10 UNK        -0.1009 
     11 C11        18.0998  -30.2332  -43.8755 C.ar      10 UNK        -0.0712 
     12 C12        17.9091  -29.7649  -42.5721 C.ar      10 UNK        -0.0894 
     13 C13        16.6507  -29.3220  -42.1485 C.ar      10 UNK        -0.0745 
     14 C14        15.5821  -29.3536  -43.0500 C.ar      10 UNK        -0.0972 
     15 C15        16.3991  -28.8468  -40.7168 C.3       10 UNK         0.0209 
     16 S16        17.7982  -27.9769  -39.9281 S.3       10 UNK        -0.2568 
     17 C17        17.9785  -26.5012  -40.9861 C.3       10 UNK        -0.0983 
     18 CA         19.3979  -26.4078  -41.6095 C.3       3 UNK         0.0876 
     19 N          19.3575  -25.7103  -42.8985 N.am      3 UNK        -0.4424 
     20 C          20.2412  -25.8479  -43.8935 C.2       2 UNK         0.4918 
     21 O          21.2449  -26.5602  -43.8237 O.2       2 UNK        -0.4875 
     22 CA         19.9134  -25.1040  -45.1972 C.3       2 UNK         0.0481 
     23 CB         21.1722  -24.8065  -46.0309 C.3       2 UNK        -0.1831 
     24 N          18.9988  -25.9209  -45.9890 N.am      2 UNK        -0.4498 
     25 C          17.6825  -26.0462  -45.7803 C.2       1 UNK         0.5027 
     26 O          17.0541  -25.3495  -44.9803 O.2       1 UNK        -0.4969 
     27 C          20.4648  -25.8145  -40.6550 C.2       3 UNK         0.5005 
     28 O          20.1493  -25.3973  -39.5382 O.2       3 UNK        -0.5279 
     29 N          21.7165  -25.7677  -41.1241 N.am      4 UNK        -0.4463 
     30 CA         22.8982  -25.3918  -40.3518 C.3       4 UNK         0.0283 
     31 CB         23.9960  -24.9353  -41.3275 C.3       4 UNK        -0.1875 
     32 C          23.3930  -26.5825  -39.5181 C.2       4 UNK         0.4949 
     33 O          23.1498  -27.7332  -39.8847 O.2       4 UNK        -0.5039 
     34 N          24.1478  -26.2954  -38.4498 N.am      5 UNK        -0.4663 
     35 CA         24.7693  -27.3050  -37.5793 C.3       5 UNK         0.0242 
     36 CB         25.3875  -26.6055  -36.3577 C.3       5 UNK        -0.1982 
     37 C          25.8212  -28.1831  -38.2877 C.2       5 UNK         0.5017 
     38 O          26.0874  -29.2951  -37.8319 O.2       5 UNK        -0.5012 
     39 N          26.3880  -27.6701  -39.3877 N.am      6 UNK        -0.4439 
     40 CA         27.3434  -28.3609  -40.2532 C.3       6 UNK         0.0297 
     41 CB         28.2044  -27.3059  -40.9696 C.3       6 UNK        -0.2006 
     42 C          26.6861  -29.3058  -41.2802 C.2       6 UNK         0.4892 
     43 O          27.4183  -30.0316  -41.9552 O.2       6 UNK        -0.5089 
     44 N          25.3504  -29.2764  -41.4209 N.am      7 UNK        -0.4243 
     45 CA         24.6105  -30.1193  -42.3656 C.3       7 UNK         0.0196 
     46 CB         23.1763  -29.5855  -42.5223 C.3       7 UNK        -0.2007 
     47 C          24.5880  -31.5944  -41.9299 C.2       7 UNK         0.5020 
     48 O          24.6238  -31.8899  -40.7338 O.2       7 UNK        -0.5147 
     49 N          24.4913  -32.4948  -42.9162 N.am      8 UNK        -0.4734 
     50 CA         24.4272  -33.9473  -42.7111 C.3       8 UNK         0.0238 
     51 CB         24.8262  -34.6524  -44.0186 C.3       8 UNK        -0.1912 
     52 C          23.0520  -34.4487  -42.2292 C.2       8 UNK         0.5038 
     53 O          22.9619  -35.5868  -41.7663 O.2       8 UNK        -0.5046 
     54 N          22.0141  -33.6142  -42.3708 N.am      9 UNK        -0.4200 
     55 CA         20.6277  -33.8837  -41.9644 C.3       9 UNK         0.0839 
     56 C          20.4817  -34.1386  -40.4391 C.2       9 UNK         0.5513 
     57 N          19.6417  -35.0862  -40.0460 N.am      9 UNK        -0.7519 
     58 O          21.0827  -33.4540  -39.6143 O.2       9 UNK        -0.4960 
     59 C59        19.6807  -32.7404  -42.4080 C.3       10 UNK        -0.0876 
     60 S60        19.6781  -32.4871  -44.2162 S.3       10 UNK        -0.2414 
     61 C61        19.4790  -30.6821  -44.3348 C.3       10 UNK         0.0169 
     62 H62        18.3771  -27.9227  -50.7940 H         1 UNK         0.0903 
     63 H63        17.2616  -26.5738  -50.5705 H         1 UNK         0.0903 
     64 H64        19.0038  -26.2950  -50.5189 H         1 UNK         0.0903 
     65 H65        16.3531  -26.5400  -48.5256 H         1 UNK         0.3096 
     66 H66        17.4765  -28.0685  -46.3254 H         1 UNK         0.1121 
     67 H67        14.8761  -26.4963  -46.6447 H         1 UNK         0.0849 
     68 H68        15.3217  -27.2637  -45.1481 H         1 UNK         0.0849 
     69 H69        13.6685  -29.4800  -44.8269 H         1 UNK         0.0865 
     70 H70        14.3548  -30.8958  -45.5779 H         1 UNK         0.0865 
     71 H71        17.1569  -30.6483  -45.7637 H         1 UNK         0.1346 
     72 H72        18.7431  -29.7508  -41.8855 H         1 UNK         0.1412 
     73 H73        14.6055  -29.0172  -42.7287 H         1 UNK         0.1426 
     74 H74        16.1484  -29.7163  -40.1080 H         1 UNK         0.0716 
     75 H75        15.5296  -28.1883  -40.6840 H         1 UNK         0.0716 
     76 H76        17.7222  -25.6073  -40.4147 H         1 UNK         0.0695 
     77 H77        17.2282  -26.5611  -41.7765 H         1 UNK         0.0695 
     78 H78        19.7277  -27.4270  -41.8244 H         1 UNK         0.0983 
     79 H79        18.5515  -25.1214  -43.0598 H         1 UNK         0.3095 
     80 H80        19.4371  -24.1528  -44.9503 H         1 UNK         0.0454 
     81 H81        20.9271  -24.2362  -46.9269 H         1 UNK         0.0851 
     82 H82        21.6785  -25.7202  -46.3455 H         1 UNK         0.0851 
     83 H83        21.8889  -24.2175  -45.4572 H         1 UNK         0.0851 
     84 H84        19.4160  -26.5421  -46.6769 H         1 UNK         0.2976 
     85 H85        21.8762  -26.1462  -42.0536 H         1 UNK         0.3116 
     86 H86        22.6472  -24.5652  -39.6836 H         1 UNK         0.0646 
     87 H87        24.3001  -25.7391  -42.0000 H         1 UNK         0.0847 
     88 H88        23.6579  -24.0990  -41.9399 H         1 UNK         0.0847 
     89 H89        24.8860  -24.6013  -40.7929 H         1 UNK         0.0847 
     90 H90        24.3124  -25.3268  -38.2121 H         1 UNK         0.3040 
     91 H91        23.9797  -27.9742  -37.2294 H         1 UNK         0.1015 
     92 H92        25.8332  -27.3316  -35.6761 H         1 UNK         0.0786 
     93 H93        24.6358  -26.0542  -35.7924 H         1 UNK         0.0786 
     94 H94        26.1728  -25.9059  -36.6468 H         1 UNK         0.0786 
     95 H95        26.1055  -26.7434  -39.6704 H         1 UNK         0.3172 
     96 H96        28.0032  -28.9693  -39.6309 H         1 UNK         0.0595 
     97 H97        27.6049  -26.6680  -41.6204 H         1 UNK         0.0839 
     98 H98        28.9667  -27.7783  -41.5909 H         1 UNK         0.0839 
     99 H99        28.7249  -26.6660  -40.2567 H         1 UNK         0.0839 
    100 H100       24.7939  -28.7042  -40.7962 H         1 UNK         0.2998 
    101 H101       25.1095  -30.0493  -43.3348 H         1 UNK         0.0822 
    102 H102       23.1691  -28.5279  -42.7875 H         1 UNK         0.0787 
    103 H103       22.5984  -29.7044  -41.6047 H         1 UNK         0.0787 
    104 H104       22.6469  -30.1186  -43.3121 H         1 UNK         0.0787 
    105 H105       24.4649  -32.1716  -43.8735 H         1 UNK         0.3055 
    106 H106       25.1530  -34.2201  -41.9411 H         1 UNK         0.1106 
    107 H107       24.1365  -34.4195  -44.8310 H         1 UNK         0.0828 
    108 H108       25.8293  -34.3660  -44.3350 H         1 UNK         0.0828 
    109 H109       24.8267  -35.7363  -43.8939 H         1 UNK         0.0828 
    110 H110       22.1912  -32.7026  -42.7618 H         1 UNK         0.2931 
    111 H111       20.3227  -34.7932  -42.4864 H         1 UNK         0.0412 
    112 H112       19.1360  -35.6457  -40.7158 H         1 UNK         0.3472 
    113 H113       19.5196  -35.2552  -39.0594 H         1 UNK         0.3472 
    114 H114       18.6532  -32.9494  -42.1031 H         1 UNK         0.0970 
    115 H115       19.9640  -31.8126  -41.9084 H         1 UNK         0.0970 
    116 H116       19.6344  -30.3788  -45.3713 H         1 UNK         0.0612 
    117 H117       20.2571  -30.1848  -43.7544 H         1 UNK         0.0612 
@<TRIPOS>BOND
     1    1    2 1    
     2    1   62 1    
     3    1   63 1    
     4    1   64 1    
     5    2    3 2    
     6    2    4 am   BACKBONE|DICT|INTERRES
     7    4    5 1    
     8    4   65 1    
     9    5    6 1    
    10    5   25 1    
    11    5   66 1    
    12    6    7 1    
    13    6   67 1    
    14    6   68 1    
    15    7    8 1    
    16    8    9 1    
    17    8   69 1    
    18    8   70 1    
    19    9   10 ar   
    20    9   14 ar   
    21   10   11 ar   
    22   10   71 1    
    23   11   12 ar   
    24   11   61 1    
    25   12   13 ar   
    26   12   72 1    
    27   13   14 ar   
    28   13   15 1    
    29   14   73 1    
    30   15   16 1    
    31   15   74 1    
    32   15   75 1    
    33   16   17 1    
    34   17   18 1    
    35   17   76 1    
    36   17   77 1    
    37   18   19 1    
    38   18   27 1    
    39   18   78 1    
    40   19   20 am   BACKBONE|DICT|INTERRES
    41   19   79 1    
    42   20   21 2    
    43   20   22 1    
    44   22   23 1    
    45   22   24 1    
    46   22   80 1    
    47   23   81 1    
    48   23   82 1    
    49   23   83 1    
    50   24   25 am   BACKBONE|DICT|INTERRES
    51   24   84 1    
    52   25   26 2    
    53   27   28 2    
    54   27   29 am   BACKBONE|DICT|INTERRES
    55   29   30 1    
    56   29   85 1    
    57   30   31 1    
    58   30   32 1    
    59   30   86 1    
    60   31   87 1    
    61   31   88 1    
    62   31   89 1    
    63   32   33 2    
    64   32   34 am   BACKBONE|DICT|INTERRES
    65   34   35 1    
    66   34   90 1    
    67   35   36 1    
    68   35   37 1    
    69   35   91 1    
    70   36   92 1    
    71   36   93 1    
    72   36   94 1    
    73   37   38 2    
    74   37   39 am   BACKBONE|DICT|INTERRES
    75   39   40 1    
    76   39   95 1    
    77   40   41 1    
    78   40   42 1    
    79   40   96 1    
    80   41   97 1    
    81   41   98 1    
    82   41   99 1    
    83   42   43 2    
    84   42   44 am   BACKBONE|DICT|INTERRES
    85   44   45 1    
    86   44  100 1    
    87   45   46 1    
    88   45   47 1    
    89   45  101 1    
    90   46  102 1    
    91   46  103 1    
    92   46  104 1    
    93   47   48 2    
    94   47   49 am   BACKBONE|DICT|INTERRES
    95   49   50 1    
    96   49  105 1    
    97   50   51 1    
    98   50   52 1    
    99   50  106 1    
   100   51  107 1    
   101   51  108 1    
   102   51  109 1    
   103   52   53 2    
   104   52   54 am   BACKBONE|DICT|INTERRES
   105   54   55 1    
   106   54  110 1    
   107   55   56 1    
   108   55   59 1    
   109   55  111 1    
   110   56   57 am   BACKBONE|DICT|INTERRES
   111   56   58 2    
   112   57  112 1    
   113   57  113 1    
   114   59   60 1    
   115   59  114 1    
   116   59  115 1    
   117   60   61 1    
   118   61  116 1    
   119   61  117 1    
@<TRIPOS>SUBSTRUCTURE
     1 UNK         1 GROUP             0       ****    0 ROOT    
