@<TRIPOS>MOLECULE
3R8
117   119    1
SMALL
USER_CHARGES


@<TRIPOS>ATOM
      1 CA         15.3526  -23.4270  -48.5711 C.3       0 UNK        -0.2013 
      2 C          16.3466  -24.5013  -48.1555 C.2       0 UNK         0.4866 
      3 O          17.2034  -24.8847  -48.9531 O.2       0 UNK        -0.5176 
      4 N          16.2338  -24.9970  -46.9174 N.am      1 UNK        -0.4884 
      5 CA         17.1313  -25.9994  -46.3353 C.3       1 UNK         0.0853 
      6 C6         16.5755  -26.5696  -45.0071 C.3       10 UNK        -0.0849 
      7 S7         15.0454  -27.5412  -45.1969 S.3       10 UNK        -0.2776 
      8 C8         15.6848  -29.2580  -45.2095 C.3       10 UNK         0.0316 
      9 C9         16.4813  -29.7063  -43.9775 C.ar      10 UNK        -0.0863 
     10 C10        17.2788  -30.8499  -44.0870 C.ar      10 UNK        -0.1009 
     11 C11        18.0416  -31.3041  -43.0070 C.ar      10 UNK        -0.0712 
     12 C12        18.0115  -30.5995  -41.8002 C.ar      10 UNK        -0.0894 
     13 C13        17.2149  -29.4571  -41.6674 C.ar      10 UNK        -0.0745 
     14 C14        16.4407  -29.0285  -42.7508 C.ar      10 UNK        -0.0972 
     15 C15        17.1552  -28.7015  -40.3452 C.3       10 UNK         0.0209 
     16 S16        18.7761  -28.0715  -39.7991 S.3       10 UNK        -0.2568 
     17 C17        19.1736  -26.7932  -41.0434 C.3       10 UNK        -0.0983 
     18 CA         20.6502  -26.8862  -41.5285 C.3       3 UNK         0.0876 
     19 N          20.8472  -26.3240  -42.8633 N.am      3 UNK        -0.4424 
     20 C          20.5362  -26.9468  -44.0012 C.2       2 UNK         0.4918 
     21 O          20.0545  -28.0793  -44.0545 O.2       2 UNK        -0.4875 
     22 CA         20.7634  -26.1735  -45.3095 C.3       2 UNK         0.0481 
     23 CB         21.9386  -26.7624  -46.1063 C.3       2 UNK        -0.1831 
     24 N          19.5325  -26.3098  -46.0826 N.am      2 UNK        -0.4498 
     25 C          18.5319  -25.4224  -46.0510 C.2       1 UNK         0.5027 
     26 O          18.6586  -24.2462  -45.6990 O.2       1 UNK        -0.4969 
     27 C          21.6854  -26.2527  -40.5766 C.2       3 UNK         0.5005 
     28 O          22.7134  -25.7550  -41.0465 O.2       3 UNK        -0.5279 
     29 N          21.4242  -26.3034  -39.2622 N.am      4 UNK        -0.4463 
     30 CA         22.2938  -25.8648  -38.1635 C.3       4 UNK         0.0283 
     31 CB         22.4574  -24.3277  -38.1628 C.3       4 UNK        -0.1875 
     32 C          23.6227  -26.6408  -38.1823 C.2       4 UNK         0.4949 
     33 O          23.6293  -27.8215  -37.8365 O.2       4 UNK        -0.5039 
     34 N          24.7079  -26.0027  -38.6396 N.am      5 UNK        -0.4663 
     35 CA         26.0064  -26.6434  -38.8742 C.3       5 UNK         0.0242 
     36 CB         27.0557  -25.5609  -39.1737 C.3       5 UNK        -0.1982 
     37 C          25.9762  -27.6919  -40.0043 C.2       5 UNK         0.5017 
     38 O          26.7949  -28.6109  -39.9911 O.2       5 UNK        -0.5012 
     39 N          25.0314  -27.5472  -40.9440 N.am      6 UNK        -0.4439 
     40 CA         24.8151  -28.4463  -42.0784 C.3       6 UNK         0.0297 
     41 CB         24.6129  -27.5951  -43.3448 C.3       6 UNK        -0.2006 
     42 C          23.6340  -29.4115  -41.8540 C.2       6 UNK         0.4892 
     43 O          23.1716  -30.0126  -42.8222 O.2       6 UNK        -0.5089 
     44 N          23.1578  -29.5563  -40.6050 N.am      7 UNK        -0.4243 
     45 CA         22.0353  -30.4321  -40.2342 C.3       7 UNK         0.0196 
     46 CB         21.6252  -30.1542  -38.7803 C.3       7 UNK        -0.2007 
     47 C          22.3131  -31.9344  -40.4174 C.2       7 UNK         0.5020 
     48 O          21.3656  -32.7143  -40.5200 O.2       7 UNK        -0.5147 
     49 N          23.5935  -32.3252  -40.4648 N.am      8 UNK        -0.4734 
     50 CA         24.0543  -33.6867  -40.7456 C.3       8 UNK         0.0238 
     51 CB         25.4811  -33.8519  -40.1887 C.3       8 UNK        -0.1912 
     52 C          23.9611  -34.0092  -42.2511 C.2       8 UNK         0.5038 
     53 O          24.9860  -34.2351  -42.8981 O.2       8 UNK        -0.5046 
     54 N          22.7327  -33.9875  -42.7816 N.am      9 UNK        -0.4200 
     55 CA         22.3900  -34.2742  -44.1809 C.3       9 UNK         0.0839 
     56 C          22.7819  -35.7135  -44.6152 C.2       9 UNK         0.5513 
     57 N          23.2379  -35.8870  -45.8481 N.am      9 UNK        -0.7519 
     58 O          22.6302  -36.6745  -43.8632 O.2       9 UNK        -0.4960 
     59 C59        20.8854  -34.0237  -44.4591 C.3       10 UNK        -0.0876 
     60 S60        20.3676  -32.3012  -44.1402 S.3       10 UNK        -0.2414 
     61 C61        18.8685  -32.5740  -43.1456 C.3       10 UNK         0.0169 
     62 H62        14.7865  -23.7561  -49.4421 H         1 UNK         0.0903 
     63 H63        14.6452  -23.1955  -47.7750 H         1 UNK         0.0903 
     64 H64        15.8796  -22.5100  -48.8335 H         1 UNK         0.0903 
     65 H65        15.5166  -24.6429  -46.3007 H         1 UNK         0.3096 
     66 H66        17.2359  -26.8151  -47.0547 H         1 UNK         0.1121 
     67 H67        17.3254  -27.1949  -44.5205 H         1 UNK         0.0849 
     68 H68        16.3730  -25.7611  -44.3015 H         1 UNK         0.0849 
     69 H69        14.8388  -29.9352  -45.3343 H         1 UNK         0.0865 
     70 H70        16.3042  -29.3772  -46.0999 H         1 UNK         0.0865 
     71 H71        17.3113  -31.3940  -45.0213 H         1 UNK         0.1346 
     72 H72        18.6017  -30.9424  -40.9611 H         1 UNK         0.1412 
     73 H73        15.8144  -28.1558  -42.6343 H         1 UNK         0.1426 
     74 H74        16.4555  -27.8660  -40.4009 H         1 UNK         0.0716 
     75 H75        16.7674  -29.3731  -39.5781 H         1 UNK         0.0716 
     76 H76        18.9450  -25.8045  -40.6414 H         1 UNK         0.0695 
     77 H77        18.4970  -26.9286  -41.8882 H         1 UNK         0.0695 
     78 H78        20.9216  -27.9413  -41.5921 H         1 UNK         0.0983 
     79 H79        21.3088  -25.4239  -42.8810 H         1 UNK         0.3095 
     80 H80        20.9754  -25.1241  -45.0933 H         1 UNK         0.0454 
     81 H81        21.8198  -27.8333  -46.2771 H         1 UNK         0.0851 
     82 H82        22.8793  -26.6187  -45.5753 H         1 UNK         0.0851 
     83 H83        22.0401  -26.2780  -47.0775 H         1 UNK         0.0851 
     84 H84        19.3120  -27.2612  -46.3441 H         1 UNK         0.2976 
     85 H85        20.5645  -26.7619  -38.9837 H         1 UNK         0.3116 
     86 H86        21.7901  -26.1422  -37.2361 H         1 UNK         0.0646 
     87 H87        22.8939  -23.9486  -39.0871 H         1 UNK         0.0847 
     88 H88        23.0930  -24.0016  -37.3383 H         1 UNK         0.0847 
     89 H89        21.4933  -23.8359  -38.0341 H         1 UNK         0.0847 
     90 H90        24.6098  -25.0421  -38.9364 H         1 UNK         0.3040 
     91 H91        26.2977  -27.1624  -37.9581 H         1 UNK         0.1015 
     92 H92        26.8089  -24.9969  -40.0742 H         1 UNK         0.0786 
     93 H93        28.0408  -26.0042  -39.3266 H         1 UNK         0.0786 
     94 H94        27.1452  -24.8550  -38.3477 H         1 UNK         0.0786 
     95 H95        24.3783  -26.7707  -40.8635 H         1 UNK         0.3172 
     96 H96        25.6997  -29.0665  -42.2356 H         1 UNK         0.0595 
     97 H97        24.5075  -28.2224  -44.2310 H         1 UNK         0.0839 
     98 H98        25.4628  -26.9352  -43.5187 H         1 UNK         0.0839 
     99 H99        23.7187  -26.9765  -43.2732 H         1 UNK         0.0839 
    100 H100       23.5940  -29.0377  -39.8530 H         1 UNK         0.2998 
    101 H101       21.1911  -30.1876  -40.8824 H         1 UNK         0.0822 
    102 H102       20.7594  -30.7544  -38.4967 H         1 UNK         0.0787 
    103 H103       22.4299  -30.3892  -38.0825 H         1 UNK         0.0787 
    104 H104       21.3519  -29.1108  -38.6337 H         1 UNK         0.0787 
    105 H105       24.3056  -31.6132  -40.3939 H         1 UNK         0.3055 
    106 H106       23.4084  -34.3960  -40.2225 H         1 UNK         0.1106 
    107 H107       25.8514  -34.8639  -40.3586 H         1 UNK         0.0828 
    108 H108       26.1835  -33.1639  -40.6611 H         1 UNK         0.0828 
    109 H109       25.5103  -33.6754  -39.1133 H         1 UNK         0.0828 
    110 H110       21.9627  -33.7327  -42.1732 H         1 UNK         0.2931 
    111 H111       22.9651  -33.5731  -44.7894 H         1 UNK         0.0412 
    112 H112       23.3554  -35.1057  -46.4750 H         1 UNK         0.3472 
    113 H113       23.4817  -36.8160  -46.1553 H         1 UNK         0.3472 
    114 H114       20.6509  -34.2428  -45.5027 H         1 UNK         0.0970 
    115 H115       20.2771  -34.7089  -43.8654 H         1 UNK         0.0970 
    116 H116       19.1530  -32.9605  -42.1659 H         1 UNK         0.0612 
    117 H117       18.2558  -33.3439  -43.6170 H         1 UNK         0.0612 
@<TRIPOS>BOND
     1    1    2 1    
     2    1   62 1    
     3    1   63 1    
     4    1   64 1    
     5    2    3 2    
     6    2    4 am   BACKBONE|DICT|INTERRES
     7    4    5 1    
     8    4   65 1    
     9    5    6 1    
    10    5   25 1    
    11    5   66 1    
    12    6    7 1    
    13    6   67 1    
    14    6   68 1    
    15    7    8 1    
    16    8    9 1    
    17    8   69 1    
    18    8   70 1    
    19    9   10 ar   
    20    9   14 ar   
    21   10   11 ar   
    22   10   71 1    
    23   11   12 ar   
    24   11   61 1    
    25   12   13 ar   
    26   12   72 1    
    27   13   14 ar   
    28   13   15 1    
    29   14   73 1    
    30   15   16 1    
    31   15   74 1    
    32   15   75 1    
    33   16   17 1    
    34   17   18 1    
    35   17   76 1    
    36   17   77 1    
    37   18   19 1    
    38   18   27 1    
    39   18   78 1    
    40   19   20 am   BACKBONE|DICT|INTERRES
    41   19   79 1    
    42   20   21 2    
    43   20   22 1    
    44   22   23 1    
    45   22   24 1    
    46   22   80 1    
    47   23   81 1    
    48   23   82 1    
    49   23   83 1    
    50   24   25 am   BACKBONE|DICT|INTERRES
    51   24   84 1    
    52   25   26 2    
    53   27   28 2    
    54   27   29 am   BACKBONE|DICT|INTERRES
    55   29   30 1    
    56   29   85 1    
    57   30   31 1    
    58   30   32 1    
    59   30   86 1    
    60   31   87 1    
    61   31   88 1    
    62   31   89 1    
    63   32   33 2    
    64   32   34 am   BACKBONE|DICT|INTERRES
    65   34   35 1    
    66   34   90 1    
    67   35   36 1    
    68   35   37 1    
    69   35   91 1    
    70   36   92 1    
    71   36   93 1    
    72   36   94 1    
    73   37   38 2    
    74   37   39 am   BACKBONE|DICT|INTERRES
    75   39   40 1    
    76   39   95 1    
    77   40   41 1    
    78   40   42 1    
    79   40   96 1    
    80   41   97 1    
    81   41   98 1    
    82   41   99 1    
    83   42   43 2    
    84   42   44 am   BACKBONE|DICT|INTERRES
    85   44   45 1    
    86   44  100 1    
    87   45   46 1    
    88   45   47 1    
    89   45  101 1    
    90   46  102 1    
    91   46  103 1    
    92   46  104 1    
    93   47   48 2    
    94   47   49 am   BACKBONE|DICT|INTERRES
    95   49   50 1    
    96   49  105 1    
    97   50   51 1    
    98   50   52 1    
    99   50  106 1    
   100   51  107 1    
   101   51  108 1    
   102   51  109 1    
   103   52   53 2    
   104   52   54 am   BACKBONE|DICT|INTERRES
   105   54   55 1    
   106   54  110 1    
   107   55   56 1    
   108   55   59 1    
   109   55  111 1    
   110   56   57 am   BACKBONE|DICT|INTERRES
   111   56   58 2    
   112   57  112 1    
   113   57  113 1    
   114   59   60 1    
   115   59  114 1    
   116   59  115 1    
   117   60   61 1    
   118   61  116 1    
   119   61  117 1    
@<TRIPOS>SUBSTRUCTURE
     1 UNK         1 GROUP             0       ****    0 ROOT    
