@<TRIPOS>MOLECULE
3R8
117   119    1
SMALL
USER_CHARGES


@<TRIPOS>ATOM
      1 CA         19.6793  -24.5401  -39.0389 C.3       0 UNK        -0.2013 
      2 C          18.8989  -24.6630  -40.3392 C.2       0 UNK         0.4866 
      3 O          18.0374  -23.8291  -40.6206 O.2       0 UNK        -0.5176 
      4 N          19.1928  -25.6997  -41.1306 N.am      1 UNK        -0.4884 
      5 CA         18.6115  -25.9442  -42.4532 C.3       1 UNK         0.0853 
      6 C6         18.8510  -27.4034  -42.9157 C.3       10 UNK        -0.0849 
      7 S7         18.1518  -28.6415  -41.7706 S.3       10 UNK        -0.2776 
      8 C8         17.3226  -29.7974  -42.9113 C.3       10 UNK         0.0316 
      9 C9         18.3071  -30.4686  -43.8601 C.ar      10 UNK        -0.0863 
     10 C10        19.2193  -31.4112  -43.3756 C.ar      10 UNK        -0.1009 
     11 C11        20.1398  -32.0174  -44.2361 C.ar      10 UNK        -0.0712 
     12 C12        20.1448  -31.6692  -45.5903 C.ar      10 UNK        -0.0894 
     13 C13        19.2419  -30.7242  -46.0875 C.ar      10 UNK        -0.0745 
     14 C14        18.3143  -30.1397  -45.2194 C.ar      10 UNK        -0.0972 
     15 C15        19.2809  -30.3324  -47.5610 C.3       10 UNK         0.0209 
     16 S16        19.5252  -28.5422  -47.8227 S.3       10 UNK        -0.2568 
     17 C17        21.0967  -28.2391  -46.9422 C.3       10 UNK        -0.0983 
     18 CA         21.4725  -26.7331  -46.8638 C.3       3 UNK         0.0876 
     19 N          20.3656  -25.9388  -46.3184 N.am      3 UNK        -0.4424 
     20 C          20.1539  -24.6266  -46.4815 C.2       2 UNK         0.4918 
     21 O          20.9061  -23.8907  -47.1203 O.2       2 UNK        -0.4875 
     22 CA         18.9182  -24.0254  -45.7820 C.3       2 UNK         0.0481 
     23 CB         17.7558  -23.8923  -46.7781 C.3       2 UNK        -0.1831 
     24 N          18.4713  -24.7939  -44.6129 N.am      2 UNK        -0.4498 
     25 C          19.1955  -24.9705  -43.4978 C.2       1 UNK         0.5027 
     26 O          20.3062  -24.4601  -43.3232 O.2       1 UNK        -0.4969 
     27 C          22.7930  -26.5027  -46.0835 C.2       3 UNK         0.5005 
     28 O          23.4684  -27.4693  -45.7269 O.2       3 UNK        -0.5279 
     29 N          23.1334  -25.2301  -45.8240 N.am      4 UNK        -0.4463 
     30 CA         24.2931  -24.7432  -45.0650 C.3       4 UNK         0.0283 
     31 CB         25.6065  -25.0405  -45.8197 C.3       4 UNK        -0.1875 
     32 C          24.3054  -25.2576  -43.6119 C.2       4 UNK         0.4949 
     33 O          25.2649  -25.9062  -43.1895 O.2       4 UNK        -0.5039 
     34 N          23.2157  -24.9800  -42.8809 N.am      5 UNK        -0.4663 
     35 CA         22.9171  -25.3577  -41.4906 C.3       5 UNK         0.0242 
     36 CB         23.9928  -24.8719  -40.4995 C.3       5 UNK        -0.1982 
     37 C          22.6135  -26.8532  -41.3121 C.2       5 UNK         0.5017 
     38 O          21.6009  -27.1829  -40.6957 O.2       5 UNK        -0.5012 
     39 N          23.4753  -27.7185  -41.8608 N.am      6 UNK        -0.4439 
     40 CA         23.3661  -29.1758  -42.0353 C.3       6 UNK         0.0297 
     41 CB         22.1979  -29.4996  -42.9780 C.3       6 UNK        -0.2006 
     42 C          23.2810  -30.0424  -40.7592 C.2       6 UNK         0.4892 
     43 O          23.6114  -31.2275  -40.8318 O.2       6 UNK        -0.5089 
     44 N          22.8627  -29.4580  -39.6297 N.am      7 UNK        -0.4243 
     45 CA         22.6714  -30.0753  -38.3145 C.3       7 UNK         0.0196 
     46 CB         24.0180  -30.5640  -37.7299 C.3       7 UNK        -0.2007 
     47 C          21.5555  -31.1407  -38.3310 C.2       7 UNK         0.5020 
     48 O          20.5271  -30.9326  -38.9762 O.2       7 UNK        -0.5147 
     49 N          21.7482  -32.2403  -37.5901 N.am      8 UNK        -0.4734 
     50 CA         20.7566  -33.3035  -37.3878 C.3       8 UNK         0.0238 
     51 CB         21.1874  -34.1620  -36.1863 C.3       8 UNK        -0.1912 
     52 C          20.5036  -34.1941  -38.6186 C.2       8 UNK         0.5038 
     53 O          19.4917  -34.8959  -38.6417 O.2       8 UNK        -0.5046 
     54 N          21.4152  -34.1678  -39.6011 N.am      9 UNK        -0.4200 
     55 CA         21.3775  -34.9804  -40.8294 C.3       9 UNK         0.0839 
     56 C          21.6267  -36.5055  -40.6079 C.2       9 UNK         0.5513 
     57 N          22.1972  -36.9205  -39.4827 N.am      9 UNK        -0.7519 
     58 O          21.3260  -37.3266  -41.4704 O.2       9 UNK        -0.4960 
     59 C59        20.1250  -34.6691  -41.7066 C.3       10 UNK        -0.0876 
     60 S60        20.4993  -34.6751  -43.4922 S.3       10 UNK        -0.2414 
     61 C61        21.1734  -32.9993  -43.7012 C.3       10 UNK         0.0169 
     62 H62        18.9951  -24.5066  -38.1915 H         1 UNK         0.0903 
     63 H63        20.3589  -25.3796  -38.8917 H         1 UNK         0.0903 
     64 H64        20.2677  -23.6230  -39.0400 H         1 UNK         0.0903 
     65 H65        19.9339  -26.3437  -40.8627 H         1 UNK         0.3096 
     66 H66        17.5354  -25.7673  -42.3886 H         1 UNK         0.1121 
     67 H67        18.4174  -27.5608  -43.9042 H         1 UNK         0.0849 
     68 H68        19.9187  -27.6024  -43.0199 H         1 UNK         0.0849 
     69 H69        16.8100  -30.5630  -42.3270 H         1 UNK         0.0865 
     70 H70        16.5459  -29.2659  -43.4635 H         1 UNK         0.0865 
     71 H71        19.2263  -31.6487  -42.3212 H         1 UNK         0.1346 
     72 H72        20.8664  -32.1238  -46.2552 H         1 UNK         0.1412 
     73 H73        17.6142  -29.4103  -45.6032 H         1 UNK         0.1426 
     74 H74        18.3430  -30.6317  -48.0305 H         1 UNK         0.0716 
     75 H75        20.0722  -30.8705  -48.0854 H         1 UNK         0.0716 
     76 H76        21.8817  -28.8055  -47.4468 H         1 UNK         0.0695 
     77 H77        21.0134  -28.6548  -45.9369 H         1 UNK         0.0695 
     78 H78        21.6578  -26.3894  -47.8839 H         1 UNK         0.0983 
     79 H79        19.6871  -26.4594  -45.7858 H         1 UNK         0.3095 
     80 H80        19.1904  -23.0249  -45.4394 H         1 UNK         0.0454 
     81 H81        18.0511  -23.2989  -47.6448 H         1 UNK         0.0851 
     82 H82        16.8985  -23.3938  -46.3256 H         1 UNK         0.0851 
     83 H83        17.4252  -24.8640  -47.1475 H         1 UNK         0.0851 
     84 H84        17.5656  -25.2361  -44.6860 H         1 UNK         0.2976 
     85 H85        22.5022  -24.5157  -46.1764 H         1 UNK         0.3116 
     86 H86        24.1895  -23.6587  -45.0059 H         1 UNK         0.0646 
     87 H87        25.7963  -26.1112  -45.9020 H         1 UNK         0.0847 
     88 H88        25.5887  -24.6249  -46.8270 H         1 UNK         0.0847 
     89 H89        26.4601  -24.6002  -45.3030 H         1 UNK         0.0847 
     90 H90        22.4419  -24.5170  -43.3471 H         1 UNK         0.3040 
     91 H91        21.9979  -24.8252  -41.2427 H         1 UNK         0.1015 
     92 H92        23.6799  -25.0553  -39.4707 H         1 UNK         0.0786 
     93 H93        24.1665  -23.8004  -40.5984 H         1 UNK         0.0786 
     94 H94        24.9466  -25.3808  -40.6398 H         1 UNK         0.0786 
     95 H95        24.2786  -27.2917  -42.3180 H         1 UNK         0.3172 
     96 H96        24.2871  -29.4644  -42.5439 H         1 UNK         0.0595 
     97 H97        21.2397  -29.4770  -42.4576 H         1 UNK         0.0839 
     98 H98        22.3240  -30.4936  -43.4006 H         1 UNK         0.0839 
     99 H99        22.1454  -28.8044  -43.8141 H         1 UNK         0.0839 
    100 H100       22.4905  -28.5183  -39.7335 H         1 UNK         0.2998 
    101 H101       22.3058  -29.2776  -37.6664 H         1 UNK         0.0822 
    102 H102       23.9193  -30.8429  -36.6801 H         1 UNK         0.0787 
    103 H103       24.7710  -29.7770  -37.7748 H         1 UNK         0.0787 
    104 H104       24.4123  -31.4261  -38.2692 H         1 UNK         0.0787 
    105 H105       22.6225  -32.3332  -37.0926 H         1 UNK         0.3055 
    106 H106       19.8025  -32.8305  -37.1432 H         1 UNK         0.1106 
    107 H107       21.2707  -33.5630  -35.2792 H         1 UNK         0.0828 
    108 H108       20.4577  -34.9477  -35.9844 H         1 UNK         0.0828 
    109 H109       22.1485  -34.6476  -36.3588 H         1 UNK         0.0828 
    110 H110       22.2128  -33.5568  -39.4974 H         1 UNK         0.2931 
    111 H111       22.2586  -34.6437  -41.3767 H         1 UNK         0.0412 
    112 H112       22.4635  -36.2615  -38.7691 H         1 UNK         0.3472 
    113 H113       22.3635  -37.9058  -39.3483 H         1 UNK         0.3472 
    114 H114       19.3195  -35.3784  -41.5073 H         1 UNK         0.0970 
    115 H115       19.7111  -33.6932  -41.4538 H         1 UNK         0.0970 
    116 H116       22.0242  -33.0546  -44.3820 H         1 UNK         0.0612 
    117 H117       21.5749  -32.6381  -42.7530 H         1 UNK         0.0612 
@<TRIPOS>BOND
     1    1    2 1    
     2    1   62 1    
     3    1   63 1    
     4    1   64 1    
     5    2    3 2    
     6    2    4 am   BACKBONE|DICT|INTERRES
     7    4    5 1    
     8    4   65 1    
     9    5    6 1    
    10    5   25 1    
    11    5   66 1    
    12    6    7 1    
    13    6   67 1    
    14    6   68 1    
    15    7    8 1    
    16    8    9 1    
    17    8   69 1    
    18    8   70 1    
    19    9   10 ar   
    20    9   14 ar   
    21   10   11 ar   
    22   10   71 1    
    23   11   12 ar   
    24   11   61 1    
    25   12   13 ar   
    26   12   72 1    
    27   13   14 ar   
    28   13   15 1    
    29   14   73 1    
    30   15   16 1    
    31   15   74 1    
    32   15   75 1    
    33   16   17 1    
    34   17   18 1    
    35   17   76 1    
    36   17   77 1    
    37   18   19 1    
    38   18   27 1    
    39   18   78 1    
    40   19   20 am   BACKBONE|DICT|INTERRES
    41   19   79 1    
    42   20   21 2    
    43   20   22 1    
    44   22   23 1    
    45   22   24 1    
    46   22   80 1    
    47   23   81 1    
    48   23   82 1    
    49   23   83 1    
    50   24   25 am   BACKBONE|DICT|INTERRES
    51   24   84 1    
    52   25   26 2    
    53   27   28 2    
    54   27   29 am   BACKBONE|DICT|INTERRES
    55   29   30 1    
    56   29   85 1    
    57   30   31 1    
    58   30   32 1    
    59   30   86 1    
    60   31   87 1    
    61   31   88 1    
    62   31   89 1    
    63   32   33 2    
    64   32   34 am   BACKBONE|DICT|INTERRES
    65   34   35 1    
    66   34   90 1    
    67   35   36 1    
    68   35   37 1    
    69   35   91 1    
    70   36   92 1    
    71   36   93 1    
    72   36   94 1    
    73   37   38 2    
    74   37   39 am   BACKBONE|DICT|INTERRES
    75   39   40 1    
    76   39   95 1    
    77   40   41 1    
    78   40   42 1    
    79   40   96 1    
    80   41   97 1    
    81   41   98 1    
    82   41   99 1    
    83   42   43 2    
    84   42   44 am   BACKBONE|DICT|INTERRES
    85   44   45 1    
    86   44  100 1    
    87   45   46 1    
    88   45   47 1    
    89   45  101 1    
    90   46  102 1    
    91   46  103 1    
    92   46  104 1    
    93   47   48 2    
    94   47   49 am   BACKBONE|DICT|INTERRES
    95   49   50 1    
    96   49  105 1    
    97   50   51 1    
    98   50   52 1    
    99   50  106 1    
   100   51  107 1    
   101   51  108 1    
   102   51  109 1    
   103   52   53 2    
   104   52   54 am   BACKBONE|DICT|INTERRES
   105   54   55 1    
   106   54  110 1    
   107   55   56 1    
   108   55   59 1    
   109   55  111 1    
   110   56   57 am   BACKBONE|DICT|INTERRES
   111   56   58 2    
   112   57  112 1    
   113   57  113 1    
   114   59   60 1    
   115   59  114 1    
   116   59  115 1    
   117   60   61 1    
   118   61  116 1    
   119   61  117 1    
@<TRIPOS>SUBSTRUCTURE
     1 UNK         1 GROUP             0       ****    0 ROOT    
