@<TRIPOS>MOLECULE
3R8
117   119    1
SMALL
USER_CHARGES


@<TRIPOS>ATOM
      1 CA         13.4370  -22.8334  -43.8412 C.3       0 UNK        -0.2013 
      2 C          14.4354  -23.8851  -44.3012 C.2       0 UNK         0.4866 
      3 O          14.5004  -24.1881  -45.4930 O.2       0 UNK        -0.5176 
      4 N          15.2094  -24.4506  -43.3660 N.am      1 UNK        -0.4884 
      5 CA         16.2677  -25.4265  -43.6371 C.3       1 UNK         0.0853 
      6 C6         16.6419  -26.2002  -42.3485 C.3       10 UNK        -0.0849 
      7 S7         17.8177  -27.5623  -42.6311 S.3       10 UNK        -0.2776 
      8 C8         16.7028  -28.9143  -43.1402 C.3       10 UNK         0.0316 
      9 C9         17.4856  -30.1435  -43.5843 C.ar      10 UNK        -0.0863 
     10 C10        17.1947  -31.4052  -43.0601 C.ar      10 UNK        -0.1009 
     11 C11        17.9218  -32.5280  -43.4676 C.ar      10 UNK        -0.0712 
     12 C12        18.9773  -32.3721  -44.3742 C.ar      10 UNK        -0.0894 
     13 C13        19.2891  -31.1133  -44.9039 C.ar      10 UNK        -0.0745 
     14 C14        18.5030  -30.0169  -44.5323 C.ar      10 UNK        -0.0972 
     15 C15        20.4906  -30.9852  -45.8477 C.3       10 UNK         0.0209 
     16 S16        20.9372  -29.2906  -46.3889 S.3       10 UNK        -0.2568 
     17 C17        21.5300  -28.5071  -44.8460 C.3       10 UNK        -0.0983 
     18 CA         21.6874  -26.9718  -44.9887 C.3       3 UNK         0.0876 
     19 N          20.4247  -26.3135  -45.3412 N.am      3 UNK        -0.4424 
     20 C          20.3409  -25.1258  -45.9540 C.2       2 UNK         0.4918 
     21 O          21.3229  -24.4600  -46.2862 O.2       2 UNK        -0.4875 
     22 CA         18.9376  -24.5937  -46.2940 C.3       2 UNK         0.0481 
     23 CB         18.6281  -24.8426  -47.7795 C.3       2 UNK        -0.1831 
     24 N          17.8691  -25.1850  -45.4840 N.am      2 UNK        -0.4498 
     25 C          17.4760  -24.7193  -44.2902 C.2       1 UNK         0.5027 
     26 O          18.0032  -23.7642  -43.7142 O.2       1 UNK        -0.4969 
     27 C          22.2832  -26.3432  -43.7107 C.2       3 UNK         0.5005 
     28 O          21.5413  -25.8408  -42.8617 O.2       3 UNK        -0.5279 
     29 N          23.6178  -26.3820  -43.6034 N.am      4 UNK        -0.4463 
     30 CA         24.3895  -25.8751  -42.4642 C.3       4 UNK         0.0283 
     31 CB         25.8612  -25.7403  -42.8968 C.3       4 UNK        -0.1875 
     32 C          24.2692  -26.7726  -41.2178 C.2       4 UNK         0.4949 
     33 O          23.7177  -27.8721  -41.2921 O.2       4 UNK        -0.5039 
     34 N          24.8312  -26.3054  -40.0937 N.am      5 UNK        -0.4663 
     35 CA         24.9513  -27.0626  -38.8418 C.3       5 UNK         0.0242 
     36 CB         25.6567  -26.1954  -37.7871 C.3       5 UNK        -0.1982 
     37 C          25.7073  -28.3887  -39.0467 C.2       5 UNK         0.5017 
     38 O          26.7172  -28.4062  -39.7544 O.2       5 UNK        -0.5012 
     39 N          25.1722  -29.4744  -38.4717 N.am      6 UNK        -0.4439 
     40 CA         25.5630  -30.8848  -38.6353 C.3       6 UNK         0.0297 
     41 CB         27.0288  -31.1356  -38.2298 C.3       6 UNK        -0.2006 
     42 C          25.2588  -31.4675  -40.0307 C.2       6 UNK         0.4892 
     43 O          24.7930  -32.6054  -40.1081 O.2       6 UNK        -0.5089 
     44 N          25.4828  -30.6849  -41.0971 N.am      7 UNK        -0.4243 
     45 CA         25.1496  -31.0189  -42.4866 C.3       7 UNK         0.0196 
     46 CB         25.6944  -29.9329  -43.4272 C.3       7 UNK        -0.2007 
     47 C          23.6418  -31.2249  -42.7113 C.2       7 UNK         0.5020 
     48 O          23.2630  -32.0644  -43.5286 O.2       7 UNK        -0.5147 
     49 N          22.8092  -30.5023  -41.9492 N.am      8 UNK        -0.4734 
     50 CA         21.3584  -30.6711  -41.8314 C.3       8 UNK         0.0238 
     51 CB         20.7663  -29.4271  -41.1427 C.3       8 UNK        -0.1912 
     52 C          20.9649  -31.9808  -41.1163 C.2       8 UNK         0.5038 
     53 O          20.3084  -31.9359  -40.0742 O.2       8 UNK        -0.5046 
     54 N          21.3976  -33.1089  -41.6954 N.am      9 UNK        -0.4200 
     55 CA         21.1710  -34.5024  -41.2848 C.3       9 UNK         0.0839 
     56 C          21.4435  -34.8316  -39.7856 C.2       9 UNK         0.5513 
     57 N          22.4622  -34.2406  -39.1720 N.am      9 UNK        -0.7519 
     58 O          20.7600  -35.6523  -39.1780 O.2       9 UNK        -0.4960 
     59 C59        19.8659  -35.1086  -41.8785 C.3       10 UNK        -0.0876 
     60 S60        18.3017  -34.3178  -41.3588 S.3       10 UNK        -0.2414 
     61 C61        17.5277  -33.9078  -42.9559 C.3       10 UNK         0.0169 
     62 H62        13.4789  -22.6739  -42.7639 H         1 UNK         0.0903 
     63 H63        13.6410  -21.8826  -44.3329 H         1 UNK         0.0903 
     64 H64        12.4237  -23.1399  -44.0991 H         1 UNK         0.0903 
     65 H65        15.1355  -24.1382  -42.4079 H         1 UNK         0.3096 
     66 H66        15.8641  -26.1488  -44.3501 H         1 UNK         0.1121 
     67 H67        17.0779  -25.5237  -41.6107 H         1 UNK         0.0849 
     68 H68        15.7447  -26.6111  -41.8824 H         1 UNK         0.0849 
     69 H69        16.0372  -29.1569  -42.3102 H         1 UNK         0.0865 
     70 H70        16.0708  -28.5839  -43.9652 H         1 UNK         0.0865 
     71 H71        16.3921  -31.5202  -42.3442 H         1 UNK         0.1346 
     72 H72        19.5567  -33.2352  -44.6722 H         1 UNK         0.1412 
     73 H73        18.6958  -29.0394  -44.9463 H         1 UNK         0.1426 
     74 H74        21.3650  -31.4336  -45.3745 H         1 UNK         0.0716 
     75 H75        20.2875  -31.5782  -46.7403 H         1 UNK         0.0716 
     76 H76        22.4816  -28.9706  -44.5796 H         1 UNK         0.0695 
     77 H77        20.8413  -28.7324  -44.0339 H         1 UNK         0.0695 
     78 H78        22.3940  -26.7897  -45.8021 H         1 UNK         0.0983 
     79 H79        19.5777  -26.7704  -45.0424 H         1 UNK         0.3095 
     80 H80        18.9494  -23.5133  -46.1339 H         1 UNK         0.0454 
     81 H81        17.6656  -24.4155  -48.0617 H         1 UNK         0.0851 
     82 H82        18.6074  -25.9071  -48.0168 H         1 UNK         0.0851 
     83 H83        19.3833  -24.3823  -48.4183 H         1 UNK         0.0851 
     84 H84        17.3675  -25.9584  -45.8970 H         1 UNK         0.2976 
     85 H85        24.1487  -26.8359  -44.3321 H         1 UNK         0.3116 
     86 H86        24.0082  -24.8853  -42.2043 H         1 UNK         0.0646 
     87 H87        25.9604  -25.1054  -43.7775 H         1 UNK         0.0847 
     88 H88        26.4682  -25.2883  -42.1115 H         1 UNK         0.0847 
     89 H89        26.3058  -26.7087  -43.1293 H         1 UNK         0.0847 
     90 H90        25.2867  -25.4047  -40.1188 H         1 UNK         0.3040 
     91 H91        23.9388  -27.2810  -38.4951 H         1 UNK         0.1015 
     92 H92        26.6674  -25.9261  -38.0974 H         1 UNK         0.0786 
     93 H93        25.7385  -26.7253  -36.8369 H         1 UNK         0.0786 
     94 H94        25.1063  -25.2740  -37.5960 H         1 UNK         0.0786 
     95 H95        24.3319  -29.3388  -37.9257 H         1 UNK         0.3172 
     96 H96        24.9380  -31.4365  -37.9311 H         1 UNK         0.0595 
     97 H97        27.7333  -30.6625  -38.9142 H         1 UNK         0.0839 
     98 H98        27.2512  -32.2035  -38.2302 H         1 UNK         0.0839 
     99 H99        27.2329  -30.7628  -37.2262 H         1 UNK         0.0839 
    100 H100       25.8790  -29.7667  -40.9230 H         1 UNK         0.2998 
    101 H101       25.6473  -31.9611  -42.7250 H         1 UNK         0.0822 
    102 H102       26.7720  -29.8122  -43.3146 H         1 UNK         0.0787 
    103 H103       25.5032  -30.1902  -44.4700 H         1 UNK         0.0787 
    104 H104       25.2263  -28.9673  -43.2400 H         1 UNK         0.0787 
    105 H105       23.2167  -29.7570  -41.3910 H         1 UNK         0.3055 
    106 H106       20.9437  -30.7287  -42.8357 H         1 UNK         0.1106 
    107 H107       21.0006  -28.5131  -41.6878 H         1 UNK         0.0828 
    108 H108       19.6792  -29.4965  -41.0844 H         1 UNK         0.0828 
    109 H109       21.1441  -29.3113  -40.1264 H         1 UNK         0.0828 
    110 H110       21.9973  -32.9882  -42.5070 H         1 UNK         0.2931 
    111 H111       21.9749  -35.0408  -41.7884 H         1 UNK         0.0412 
    112 H112       23.0786  -33.6040  -39.6653 H         1 UNK         0.3472 
    113 H113       22.6446  -34.4611  -38.2062 H         1 UNK         0.3472 
    114 H114       19.8012  -36.1703  -41.6341 H         1 UNK         0.0970 
    115 H115       19.9351  -35.0772  -42.9661 H         1 UNK         0.0970 
    116 H116       16.4450  -33.9447  -42.8262 H         1 UNK         0.0612 
    117 H117       17.7596  -34.6744  -43.6967 H         1 UNK         0.0612 
@<TRIPOS>BOND
     1    1    2 1    
     2    1   62 1    
     3    1   63 1    
     4    1   64 1    
     5    2    3 2    
     6    2    4 am   BACKBONE|DICT|INTERRES
     7    4    5 1    
     8    4   65 1    
     9    5    6 1    
    10    5   25 1    
    11    5   66 1    
    12    6    7 1    
    13    6   67 1    
    14    6   68 1    
    15    7    8 1    
    16    8    9 1    
    17    8   69 1    
    18    8   70 1    
    19    9   10 ar   
    20    9   14 ar   
    21   10   11 ar   
    22   10   71 1    
    23   11   12 ar   
    24   11   61 1    
    25   12   13 ar   
    26   12   72 1    
    27   13   14 ar   
    28   13   15 1    
    29   14   73 1    
    30   15   16 1    
    31   15   74 1    
    32   15   75 1    
    33   16   17 1    
    34   17   18 1    
    35   17   76 1    
    36   17   77 1    
    37   18   19 1    
    38   18   27 1    
    39   18   78 1    
    40   19   20 am   BACKBONE|DICT|INTERRES
    41   19   79 1    
    42   20   21 2    
    43   20   22 1    
    44   22   23 1    
    45   22   24 1    
    46   22   80 1    
    47   23   81 1    
    48   23   82 1    
    49   23   83 1    
    50   24   25 am   BACKBONE|DICT|INTERRES
    51   24   84 1    
    52   25   26 2    
    53   27   28 2    
    54   27   29 am   BACKBONE|DICT|INTERRES
    55   29   30 1    
    56   29   85 1    
    57   30   31 1    
    58   30   32 1    
    59   30   86 1    
    60   31   87 1    
    61   31   88 1    
    62   31   89 1    
    63   32   33 2    
    64   32   34 am   BACKBONE|DICT|INTERRES
    65   34   35 1    
    66   34   90 1    
    67   35   36 1    
    68   35   37 1    
    69   35   91 1    
    70   36   92 1    
    71   36   93 1    
    72   36   94 1    
    73   37   38 2    
    74   37   39 am   BACKBONE|DICT|INTERRES
    75   39   40 1    
    76   39   95 1    
    77   40   41 1    
    78   40   42 1    
    79   40   96 1    
    80   41   97 1    
    81   41   98 1    
    82   41   99 1    
    83   42   43 2    
    84   42   44 am   BACKBONE|DICT|INTERRES
    85   44   45 1    
    86   44  100 1    
    87   45   46 1    
    88   45   47 1    
    89   45  101 1    
    90   46  102 1    
    91   46  103 1    
    92   46  104 1    
    93   47   48 2    
    94   47   49 am   BACKBONE|DICT|INTERRES
    95   49   50 1    
    96   49  105 1    
    97   50   51 1    
    98   50   52 1    
    99   50  106 1    
   100   51  107 1    
   101   51  108 1    
   102   51  109 1    
   103   52   53 2    
   104   52   54 am   BACKBONE|DICT|INTERRES
   105   54   55 1    
   106   54  110 1    
   107   55   56 1    
   108   55   59 1    
   109   55  111 1    
   110   56   57 am   BACKBONE|DICT|INTERRES
   111   56   58 2    
   112   57  112 1    
   113   57  113 1    
   114   59   60 1    
   115   59  114 1    
   116   59  115 1    
   117   60   61 1    
   118   61  116 1    
   119   61  117 1    
@<TRIPOS>SUBSTRUCTURE
     1 UNK         1 GROUP             0       ****    0 ROOT    
