@<TRIPOS>MOLECULE
3R8
117   119    1
SMALL
USER_CHARGES


@<TRIPOS>ATOM
      1 CA         15.7483  -28.2157  -48.5540 C.3       0 UNK        -0.2013 
      2 C          17.2355  -28.5333  -48.5160 C.2       0 UNK         0.4866 
      3 O          17.7045  -29.3672  -49.2909 O.2       0 UNK        -0.5176 
      4 N          17.9791  -27.8741  -47.6229 N.am      1 UNK        -0.4884 
      5 CA         19.4257  -28.0007  -47.4496 C.3       1 UNK         0.0853 
      6 C6         19.8490  -29.3581  -46.8021 C.3       10 UNK        -0.0849 
      7 S7         19.7860  -29.4402  -44.9786 S.3       10 UNK        -0.2776 
      8 C8         18.0384  -29.8387  -44.6913 C.3       10 UNK         0.0316 
      9 C9         17.6915  -29.5581  -43.2421 C.ar      10 UNK        -0.0863 
     10 C10        17.8212  -30.5572  -42.2740 C.ar      10 UNK        -0.1009 
     11 C11        17.5543  -30.2831  -40.9257 C.ar      10 UNK        -0.0712 
     12 C12        17.1410  -28.9959  -40.5650 C.ar      10 UNK        -0.0894 
     13 C13        17.0003  -27.9923  -41.5284 C.ar      10 UNK        -0.0745 
     14 C14        17.2717  -28.2809  -42.8667 C.ar      10 UNK        -0.0972 
     15 C15        16.5648  -26.5937  -41.1230 C.3       10 UNK         0.0209 
     16 S16        17.9599  -25.6282  -40.4677 S.3       10 UNK        -0.2568 
     17 C17        18.9678  -25.3192  -41.9627 C.3       10 UNK        -0.0983 
     18 CA         20.1581  -26.3092  -42.1491 C.3       3 UNK         0.0876 
     19 N          20.6463  -26.3496  -43.5345 N.am      3 UNK        -0.4424 
     20 C          21.2354  -25.3366  -44.1905 C.2       2 UNK         0.4918 
     21 O          21.3305  -24.1909  -43.7479 O.2       2 UNK        -0.4875 
     22 CA         21.8490  -25.6437  -45.5715 C.3       2 UNK         0.0481 
     23 CB         23.3455  -25.9594  -45.4126 C.3       2 UNK        -0.1831 
     24 N          21.2008  -26.7381  -46.3016 N.am      2 UNK        -0.4498 
     25 C          19.9314  -26.7289  -46.7330 C.2       1 UNK         0.5027 
     26 O          19.1660  -25.7720  -46.5758 O.2       1 UNK        -0.4969 
     27 C          21.3393  -26.1062  -41.1672 C.2       3 UNK         0.5005 
     28 O          22.4474  -26.5604  -41.4584 O.2       3 UNK        -0.5279 
     29 N          21.0883  -25.4642  -40.0156 N.am      4 UNK        -0.4463 
     30 CA         22.0524  -25.0777  -38.9729 C.3       4 UNK         0.0283 
     31 CB         22.9553  -23.9371  -39.4887 C.3       4 UNK        -0.1875 
     32 C          22.8689  -26.2541  -38.3952 C.2       4 UNK         0.4949 
     33 O          24.0189  -26.0622  -37.9972 O.2       4 UNK        -0.5039 
     34 N          22.2595  -27.4503  -38.3770 N.am      5 UNK        -0.4663 
     35 CA         22.8592  -28.7441  -38.0220 C.3       5 UNK         0.0242 
     36 CB         23.2012  -28.8011  -36.5175 C.3       5 UNK        -0.1982 
     37 C          24.0475  -29.1333  -38.9294 C.2       5 UNK         0.5017 
     38 O          25.0041  -29.7498  -38.4557 O.2       5 UNK        -0.5012 
     39 N          23.9557  -28.7735  -40.2151 N.am      6 UNK        -0.4439 
     40 CA         24.8868  -29.1331  -41.2795 C.3       6 UNK         0.0297 
     41 CB         25.6600  -27.8697  -41.7032 C.3       6 UNK        -0.2006 
     42 C          24.1088  -29.7431  -42.4582 C.2       6 UNK         0.4892 
     43 O          22.8787  -29.8506  -42.4074 O.2       6 UNK        -0.5089 
     44 N          24.8568  -30.1359  -43.5001 N.am      7 UNK        -0.4243 
     45 CA         24.3937  -30.7655  -44.7405 C.3       7 UNK         0.0196 
     46 CB         23.5682  -29.7760  -45.5922 C.3       7 UNK        -0.2007 
     47 C          23.6921  -32.1080  -44.4680 C.2       7 UNK         0.5020 
     48 O          24.3807  -33.0917  -44.1948 O.2       7 UNK        -0.5147 
     49 N          22.3554  -32.1392  -44.5509 N.am      8 UNK        -0.4734 
     50 CA         21.5473  -33.3366  -44.2994 C.3       8 UNK         0.0238 
     51 CB         20.1589  -33.1534  -44.9310 C.3       8 UNK        -0.1912 
     52 C          21.4106  -33.6824  -42.8053 C.2       8 UNK         0.5038 
     53 O          21.0987  -34.8328  -42.4933 O.2       8 UNK        -0.5046 
     54 N          21.6319  -32.6996  -41.9245 N.am      9 UNK        -0.4200 
     55 CA         21.5730  -32.8325  -40.4624 C.3       9 UNK         0.0839 
     56 C          22.9590  -32.5559  -39.8172 C.2       9 UNK         0.5513 
     57 N          23.0437  -32.5485  -38.4934 N.am      9 UNK        -0.7519 
     58 O          23.9718  -32.3878  -40.4920 O.2       9 UNK        -0.4960 
     59 C59        20.4252  -31.9618  -39.8758 C.3       10 UNK        -0.0876 
     60 S60        18.8018  -32.7275  -40.1991 S.3       10 UNK        -0.2414 
     61 C61        17.6568  -31.3532  -39.8383 C.3       10 UNK         0.0169 
     62 H62        15.1675  -29.1169  -48.3592 H         1 UNK         0.0903 
     63 H63        15.4719  -27.4676  -47.8111 H         1 UNK         0.0903 
     64 H64        15.4703  -27.8366  -49.5370 H         1 UNK         0.0903 
     65 H65        17.5755  -27.1342  -47.0601 H         1 UNK         0.3096 
     66 H66        19.8642  -27.9609  -48.4495 H         1 UNK         0.1121 
     67 H67        19.2657  -30.1838  -47.2121 H         1 UNK         0.0849 
     68 H68        20.8761  -29.5804  -47.0926 H         1 UNK         0.0849 
     69 H69        17.4028  -29.2391  -45.3427 H         1 UNK         0.0865 
     70 H70        17.8422  -30.8807  -44.9460 H         1 UNK         0.0865 
     71 H71        18.1388  -31.5442  -42.5779 H         1 UNK         0.1346 
     72 H72        16.9270  -28.7706  -39.5289 H         1 UNK         0.1412 
     73 H73        17.1794  -27.5050  -43.6146 H         1 UNK         0.1426 
     74 H74        15.7920  -26.6612  -40.3559 H         1 UNK         0.0716 
     75 H75        16.1125  -26.0654  -41.9640 H         1 UNK         0.0716 
     76 H76        19.3232  -24.2876  -41.9328 H         1 UNK         0.0695 
     77 H77        18.3089  -25.3692  -42.8307 H         1 UNK         0.0695 
     78 H78        19.7929  -27.3175  -41.9502 H         1 UNK         0.0983 
     79 H79        20.6395  -27.2612  -43.9715 H         1 UNK         0.3095 
     80 H80        21.7547  -24.7428  -46.1813 H         1 UNK         0.0454 
     81 H81        23.5084  -26.8299  -44.7756 H         1 UNK         0.0851 
     82 H82        23.8706  -25.1225  -44.9500 H         1 UNK         0.0851 
     83 H83        23.8225  -26.1462  -46.3747 H         1 UNK         0.0851 
     84 H84        21.7587  -27.5633  -46.4621 H         1 UNK         0.2976 
     85 H85        20.1284  -25.1798  -39.8555 H         1 UNK         0.3116 
     86 H86        21.4636  -24.6841  -38.1433 H         1 UNK         0.0646 
     87 H87        23.6147  -24.2780  -40.2880 H         1 UNK         0.0847 
     88 H88        23.5864  -23.5419  -38.6918 H         1 UNK         0.0847 
     89 H89        22.3651  -23.1056  -39.8736 H         1 UNK         0.0847 
     90 H90        21.3108  -27.4864  -38.7230 H         1 UNK         0.3040 
     91 H91        22.0919  -29.4973  -38.2080 H         1 UNK         0.1015 
     92 H92        22.3394  -28.5387  -35.9040 H         1 UNK         0.0786 
     93 H93        24.0159  -28.1236  -36.2606 H         1 UNK         0.0786 
     94 H94        23.5107  -29.8055  -36.2257 H         1 UNK         0.0786 
     95 H95        23.1512  -28.2401  -40.5319 H         1 UNK         0.3172 
     96 H96        25.5928  -29.8876  -40.9267 H         1 UNK         0.0595 
     97 H97        25.0001  -27.1269  -42.1535 H         1 UNK         0.0839 
     98 H98        26.4381  -28.0999  -42.4312 H         1 UNK         0.0839 
     99 H99        26.1496  -27.4025  -40.8485 H         1 UNK         0.0839 
    100 H100       25.8594  -30.0425  -43.4181 H         1 UNK         0.2998 
    101 H101       25.2893  -31.0102  -45.3141 H         1 UNK         0.0822 
    102 H102       24.1859  -28.9377  -45.9132 H         1 UNK         0.0787 
    103 H103       23.1902  -30.2559  -46.4958 H         1 UNK         0.0787 
    104 H104       22.7191  -29.3680  -45.0458 H         1 UNK         0.0787 
    105 H105       21.8591  -31.2770  -44.7320 H         1 UNK         0.3055 
    106 H106       22.0320  -34.1860  -44.7864 H         1 UNK         0.1106 
    107 H107       19.5774  -34.0739  -44.8645 H         1 UNK         0.0828 
    108 H108       19.5918  -32.3774  -44.4196 H         1 UNK         0.0828 
    109 H109       20.2268  -32.8866  -45.9857 H         1 UNK         0.0828 
    110 H110       21.9620  -31.8030  -42.2651 H         1 UNK         0.2931 
    111 H111       21.3704  -33.8734  -40.2036 H         1 UNK         0.0412 
    112 H112       23.9429  -32.3733  -38.0718 H         1 UNK         0.3472 
    113 H113       22.2462  -32.7464  -37.9102 H         1 UNK         0.3472 
    114 H114       20.5103  -31.8452  -38.7949 H         1 UNK         0.0970 
    115 H115       20.4518  -30.9542  -40.2959 H         1 UNK         0.0970 
    116 H116       17.9490  -30.9001  -38.8896 H         1 UNK         0.0612 
    117 H117       16.6621  -31.7735  -39.6857 H         1 UNK         0.0612 
@<TRIPOS>BOND
     1    1    2 1    
     2    1   62 1    
     3    1   63 1    
     4    1   64 1    
     5    2    3 2    
     6    2    4 am   BACKBONE|DICT|INTERRES
     7    4    5 1    
     8    4   65 1    
     9    5    6 1    
    10    5   25 1    
    11    5   66 1    
    12    6    7 1    
    13    6   67 1    
    14    6   68 1    
    15    7    8 1    
    16    8    9 1    
    17    8   69 1    
    18    8   70 1    
    19    9   10 ar   
    20    9   14 ar   
    21   10   11 ar   
    22   10   71 1    
    23   11   12 ar   
    24   11   61 1    
    25   12   13 ar   
    26   12   72 1    
    27   13   14 ar   
    28   13   15 1    
    29   14   73 1    
    30   15   16 1    
    31   15   74 1    
    32   15   75 1    
    33   16   17 1    
    34   17   18 1    
    35   17   76 1    
    36   17   77 1    
    37   18   19 1    
    38   18   27 1    
    39   18   78 1    
    40   19   20 am   BACKBONE|DICT|INTERRES
    41   19   79 1    
    42   20   21 2    
    43   20   22 1    
    44   22   23 1    
    45   22   24 1    
    46   22   80 1    
    47   23   81 1    
    48   23   82 1    
    49   23   83 1    
    50   24   25 am   BACKBONE|DICT|INTERRES
    51   24   84 1    
    52   25   26 2    
    53   27   28 2    
    54   27   29 am   BACKBONE|DICT|INTERRES
    55   29   30 1    
    56   29   85 1    
    57   30   31 1    
    58   30   32 1    
    59   30   86 1    
    60   31   87 1    
    61   31   88 1    
    62   31   89 1    
    63   32   33 2    
    64   32   34 am   BACKBONE|DICT|INTERRES
    65   34   35 1    
    66   34   90 1    
    67   35   36 1    
    68   35   37 1    
    69   35   91 1    
    70   36   92 1    
    71   36   93 1    
    72   36   94 1    
    73   37   38 2    
    74   37   39 am   BACKBONE|DICT|INTERRES
    75   39   40 1    
    76   39   95 1    
    77   40   41 1    
    78   40   42 1    
    79   40   96 1    
    80   41   97 1    
    81   41   98 1    
    82   41   99 1    
    83   42   43 2    
    84   42   44 am   BACKBONE|DICT|INTERRES
    85   44   45 1    
    86   44  100 1    
    87   45   46 1    
    88   45   47 1    
    89   45  101 1    
    90   46  102 1    
    91   46  103 1    
    92   46  104 1    
    93   47   48 2    
    94   47   49 am   BACKBONE|DICT|INTERRES
    95   49   50 1    
    96   49  105 1    
    97   50   51 1    
    98   50   52 1    
    99   50  106 1    
   100   51  107 1    
   101   51  108 1    
   102   51  109 1    
   103   52   53 2    
   104   52   54 am   BACKBONE|DICT|INTERRES
   105   54   55 1    
   106   54  110 1    
   107   55   56 1    
   108   55   59 1    
   109   55  111 1    
   110   56   57 am   BACKBONE|DICT|INTERRES
   111   56   58 2    
   112   57  112 1    
   113   57  113 1    
   114   59   60 1    
   115   59  114 1    
   116   59  115 1    
   117   60   61 1    
   118   61  116 1    
   119   61  117 1    
@<TRIPOS>SUBSTRUCTURE
     1 UNK         1 GROUP             0       ****    0 ROOT    
