@<TRIPOS>MOLECULE
3R8
117   119    1
SMALL
USER_CHARGES


@<TRIPOS>ATOM
      1 CA         15.0830  -25.2615  -49.4931 C.3       0 UNK        -0.2013 
      2 C          15.8230  -25.6991  -48.2385 C.2       0 UNK         0.4866 
      3 O          16.8839  -26.3166  -48.3344 O.2       0 UNK        -0.5176 
      4 N          15.2856  -25.3720  -47.0561 N.am      1 UNK        -0.4884 
      5 CA         15.8412  -25.7078  -45.7381 C.3       1 UNK         0.0853 
      6 C6         14.7068  -25.8260  -44.6841 C.3       10 UNK        -0.0849 
      7 S7         15.1596  -26.8238  -43.2233 S.3       10 UNK        -0.2776 
      8 C8         14.8289  -28.5282  -43.7817 C.3       10 UNK         0.0316 
      9 C9         16.1044  -29.3540  -43.7266 C.ar      10 UNK        -0.0863 
     10 C10        16.4859  -29.9796  -42.5337 C.ar      10 UNK        -0.1009 
     11 C11        17.6955  -30.6769  -42.4572 C.ar      10 UNK        -0.0712 
     12 C12        18.5152  -30.7587  -43.5842 C.ar      10 UNK        -0.0894 
     13 C13        18.1578  -30.1133  -44.7691 C.ar      10 UNK        -0.0745 
     14 C14        16.9360  -29.4405  -44.8478 C.ar      10 UNK        -0.0972 
     15 C15        19.1514  -30.0438  -45.9171 C.3       10 UNK         0.0209 
     16 S16        19.9350  -28.3965  -46.0279 S.3       10 UNK        -0.2568 
     17 C17        20.3277  -28.0054  -44.2815 C.3       10 UNK        -0.0983 
     18 CA         21.0044  -26.6256  -44.0900 C.3       3 UNK         0.0876 
     19 N          20.1468  -25.5483  -44.5858 N.am      3 UNK        -0.4424 
     20 C          20.3540  -24.8114  -45.6796 C.2       2 UNK         0.4918 
     21 O          21.3518  -24.9046  -46.3971 O.2       2 UNK        -0.4875 
     22 CA         19.2146  -23.8465  -46.0495 C.3       2 UNK         0.0481 
     23 CB         19.5002  -23.0519  -47.3373 C.3       2 UNK        -0.1831 
     24 N          17.9825  -24.6150  -46.2312 N.am      2 UNK        -0.4498 
     25 C          16.9909  -24.7476  -45.3416 C.2       1 UNK         0.5027 
     26 O          16.9670  -24.1475  -44.2659 O.2       1 UNK        -0.4969 
     27 C          21.3171  -26.3570  -42.6026 C.2       3 UNK         0.5005 
     28 O          20.7676  -25.4157  -42.0202 O.2       3 UNK        -0.5279 
     29 N          22.1929  -27.1749  -42.0040 N.am      4 UNK        -0.4463 
     30 CA         22.6267  -27.0456  -40.6132 C.3       4 UNK         0.0283 
     31 CB         23.8359  -26.0929  -40.5396 C.3       4 UNK        -0.1875 
     32 C          22.9714  -28.4182  -40.0235 C.2       4 UNK         0.4949 
     33 O          23.1238  -29.3958  -40.7635 O.2       4 UNK        -0.5039 
     34 N          23.1114  -28.4529  -38.6920 N.am      5 UNK        -0.4663 
     35 CA         23.5746  -29.6095  -37.9234 C.3       5 UNK         0.0242 
     36 CB         23.4140  -29.3239  -36.4225 C.3       5 UNK        -0.1982 
     37 C          25.0287  -29.9691  -38.2572 C.2       5 UNK         0.5017 
     38 O          25.8403  -29.0687  -38.4825 O.2       5 UNK        -0.5012 
     39 N          25.3161  -31.2761  -38.3180 N.am      6 UNK        -0.4439 
     40 CA         26.5774  -31.9208  -38.7164 C.3       6 UNK         0.0297 
     41 CB         27.7628  -31.4747  -37.8377 C.3       6 UNK        -0.2006 
     42 C          26.9032  -31.7828  -40.2161 C.2       6 UNK         0.4892 
     43 O          27.4231  -32.7335  -40.8012 O.2       6 UNK        -0.5089 
     44 N          26.5664  -30.6342  -40.8197 N.am      7 UNK        -0.4243 
     45 CA         26.6135  -30.3865  -42.2613 C.3       7 UNK         0.0196 
     46 CB         26.3672  -28.8936  -42.5342 C.3       7 UNK        -0.2007 
     47 C          25.6011  -31.2526  -43.0293 C.2       7 UNK         0.5020 
     48 O          25.9344  -31.7612  -44.1002 O.2       7 UNK        -0.5147 
     49 N          24.4005  -31.4243  -42.4600 N.am      8 UNK        -0.4734 
     50 CA         23.3578  -32.3044  -42.9830 C.3       8 UNK         0.0238 
     51 CB         22.4555  -31.5415  -43.9667 C.3       8 UNK        -0.1912 
     52 C          22.5334  -32.9327  -41.8540 C.2       8 UNK         0.5038 
     53 O          22.3545  -34.1514  -41.8605 O.2       8 UNK        -0.5046 
     54 N          22.0259  -32.1084  -40.9255 N.am      9 UNK        -0.4200 
     55 CA         21.1368  -32.5601  -39.8409 C.3       9 UNK         0.0839 
     56 C          21.9030  -33.3177  -38.7232 C.2       9 UNK         0.5513 
     57 N          21.2518  -34.2567  -38.0516 N.am      9 UNK        -0.7519 
     58 O          23.0624  -33.0298  -38.4284 O.2       9 UNK        -0.4960 
     59 C59        20.2578  -31.4231  -39.2430 C.3       10 UNK        -0.0876 
     60 S60        19.5441  -30.2896  -40.4789 S.3       10 UNK        -0.2414 
     61 C61        18.1735  -31.2815  -41.1483 C.3       10 UNK         0.0169 
     62 H62        14.8251  -26.1305  -50.0978 H         1 UNK         0.0903 
     63 H63        14.1631  -24.7261  -49.2590 H         1 UNK         0.0903 
     64 H64        15.7149  -24.6054  -50.0914 H         1 UNK         0.0903 
     65 H65        14.4347  -24.8265  -47.0411 H         1 UNK         0.3096 
     66 H66        16.3030  -26.6923  -45.8240 H         1 UNK         0.1121 
     67 H67        14.3844  -24.8384  -44.3486 H         1 UNK         0.0849 
     68 H68        13.8204  -26.2797  -45.1306 H         1 UNK         0.0849 
     69 H69        14.0661  -28.9733  -43.1409 H         1 UNK         0.0865 
     70 H70        14.4187  -28.5362  -44.7926 H         1 UNK         0.0865 
     71 H71        15.8603  -29.8897  -41.6560 H         1 UNK         0.1346 
     72 H72        19.4681  -31.2635  -43.5101 H         1 UNK         0.1412 
     73 H73        16.6673  -28.9364  -45.7653 H         1 UNK         0.1426 
     74 H74        18.6455  -30.2648  -46.8580 H         1 UNK         0.0716 
     75 H75        19.9301  -30.7990  -45.8006 H         1 UNK         0.0716 
     76 H76        20.9611  -28.8014  -43.8961 H         1 UNK         0.0695 
     77 H77        19.4055  -28.0345  -43.6981 H         1 UNK         0.0695 
     78 H78        21.9580  -26.6203  -44.6227 H         1 UNK         0.0983 
     79 H79        19.3412  -25.3451  -44.0099 H         1 UNK         0.3095 
     80 H80        19.1050  -23.1329  -45.2305 H         1 UNK         0.0454 
     81 H81        20.4081  -22.4561  -47.2355 H         1 UNK         0.0851 
     82 H82        18.6862  -22.3641  -47.5660 H         1 UNK         0.0851 
     83 H83        19.6342  -23.7091  -48.1975 H         1 UNK         0.0851 
     84 H84        17.9190  -25.1762  -47.0762 H         1 UNK         0.2976 
     85 H85        22.5624  -27.9824  -42.4892 H         1 UNK         0.3116 
     86 H86        21.8094  -26.6369  -40.0146 H         1 UNK         0.0646 
     87 H87        24.1866  -25.9707  -39.5141 H         1 UNK         0.0847 
     88 H88        23.5810  -25.0998  -40.9099 H         1 UNK         0.0847 
     89 H89        24.6765  -26.4623  -41.1277 H         1 UNK         0.0847 
     90 H90        22.9946  -27.5938  -38.1746 H         1 UNK         0.3040 
     91 H91        22.9474  -30.4575  -38.1860 H         1 UNK         0.1015 
     92 H92        23.7262  -30.1828  -35.8264 H         1 UNK         0.0786 
     93 H93        22.3749  -29.1148  -36.1666 H         1 UNK         0.0786 
     94 H94        24.0176  -28.4717  -36.1071 H         1 UNK         0.0786 
     95 H95        24.5427  -31.9281  -38.1867 H         1 UNK         0.3172 
     96 H96        26.4211  -32.9851  -38.5326 H         1 UNK         0.0595 
     97 H97        28.0246  -30.4287  -37.9986 H         1 UNK         0.0839 
     98 H98        28.6523  -32.0652  -38.0618 H         1 UNK         0.0839 
     99 H99        27.5441  -31.6078  -36.7781 H         1 UNK         0.0839 
    100 H100       26.1959  -29.8941  -40.2320 H         1 UNK         0.2998 
    101 H101       27.6144  -30.6434  -42.6155 H         1 UNK         0.0822 
    102 H102       27.1043  -28.2698  -42.0283 H         1 UNK         0.0787 
    103 H103       26.4357  -28.6767  -43.6011 H         1 UNK         0.0787 
    104 H104       25.3771  -28.5808  -42.2014 H         1 UNK         0.0787 
    105 H105       24.1898  -30.9250  -41.6021 H         1 UNK         0.3055 
    106 H106       23.8289  -33.1301  -43.5227 H         1 UNK         0.1106 
    107 H107       23.0265  -31.1266  -44.7974 H         1 UNK         0.0828 
    108 H108       21.6957  -32.1997  -44.3906 H         1 UNK         0.0828 
    109 H109       21.9413  -30.7226  -43.4676 H         1 UNK         0.0828 
    110 H110       22.2291  -31.1147  -40.9589 H         1 UNK         0.2931 
    111 H111       20.4464  -33.2773  -40.2899 H         1 UNK         0.0412 
    112 H112       20.2988  -34.4976  -38.2770 H         1 UNK         0.3472 
    113 H113       21.7293  -34.7471  -37.3113 H         1 UNK         0.3472 
    114 H114       19.4445  -31.8493  -38.6529 H         1 UNK         0.0970 
    115 H115       20.8262  -30.8086  -38.5470 H         1 UNK         0.0970 
    116 H116       17.3659  -31.3303  -40.4163 H         1 UNK         0.0612 
    117 H117       18.5045  -32.3053  -41.3260 H         1 UNK         0.0612 
@<TRIPOS>BOND
     1    1    2 1    
     2    1   62 1    
     3    1   63 1    
     4    1   64 1    
     5    2    3 2    
     6    2    4 am   BACKBONE|DICT|INTERRES
     7    4    5 1    
     8    4   65 1    
     9    5    6 1    
    10    5   25 1    
    11    5   66 1    
    12    6    7 1    
    13    6   67 1    
    14    6   68 1    
    15    7    8 1    
    16    8    9 1    
    17    8   69 1    
    18    8   70 1    
    19    9   10 ar   
    20    9   14 ar   
    21   10   11 ar   
    22   10   71 1    
    23   11   12 ar   
    24   11   61 1    
    25   12   13 ar   
    26   12   72 1    
    27   13   14 ar   
    28   13   15 1    
    29   14   73 1    
    30   15   16 1    
    31   15   74 1    
    32   15   75 1    
    33   16   17 1    
    34   17   18 1    
    35   17   76 1    
    36   17   77 1    
    37   18   19 1    
    38   18   27 1    
    39   18   78 1    
    40   19   20 am   BACKBONE|DICT|INTERRES
    41   19   79 1    
    42   20   21 2    
    43   20   22 1    
    44   22   23 1    
    45   22   24 1    
    46   22   80 1    
    47   23   81 1    
    48   23   82 1    
    49   23   83 1    
    50   24   25 am   BACKBONE|DICT|INTERRES
    51   24   84 1    
    52   25   26 2    
    53   27   28 2    
    54   27   29 am   BACKBONE|DICT|INTERRES
    55   29   30 1    
    56   29   85 1    
    57   30   31 1    
    58   30   32 1    
    59   30   86 1    
    60   31   87 1    
    61   31   88 1    
    62   31   89 1    
    63   32   33 2    
    64   32   34 am   BACKBONE|DICT|INTERRES
    65   34   35 1    
    66   34   90 1    
    67   35   36 1    
    68   35   37 1    
    69   35   91 1    
    70   36   92 1    
    71   36   93 1    
    72   36   94 1    
    73   37   38 2    
    74   37   39 am   BACKBONE|DICT|INTERRES
    75   39   40 1    
    76   39   95 1    
    77   40   41 1    
    78   40   42 1    
    79   40   96 1    
    80   41   97 1    
    81   41   98 1    
    82   41   99 1    
    83   42   43 2    
    84   42   44 am   BACKBONE|DICT|INTERRES
    85   44   45 1    
    86   44  100 1    
    87   45   46 1    
    88   45   47 1    
    89   45  101 1    
    90   46  102 1    
    91   46  103 1    
    92   46  104 1    
    93   47   48 2    
    94   47   49 am   BACKBONE|DICT|INTERRES
    95   49   50 1    
    96   49  105 1    
    97   50   51 1    
    98   50   52 1    
    99   50  106 1    
   100   51  107 1    
   101   51  108 1    
   102   51  109 1    
   103   52   53 2    
   104   52   54 am   BACKBONE|DICT|INTERRES
   105   54   55 1    
   106   54  110 1    
   107   55   56 1    
   108   55   59 1    
   109   55  111 1    
   110   56   57 am   BACKBONE|DICT|INTERRES
   111   56   58 2    
   112   57  112 1    
   113   57  113 1    
   114   59   60 1    
   115   59  114 1    
   116   59  115 1    
   117   60   61 1    
   118   61  116 1    
   119   61  117 1    
@<TRIPOS>SUBSTRUCTURE
     1 UNK         1 GROUP             0       ****    0 ROOT    
