@<TRIPOS>MOLECULE
3R8
117   119    1
SMALL
USER_CHARGES


@<TRIPOS>ATOM
      1 CA         17.7060  -22.2462  -43.3358 C.3       0 UNK        -0.2013 
      2 C          17.0540  -23.4473  -42.6543 C.2       0 UNK         0.4866 
      3 O          16.4410  -23.2788  -41.6019 O.2       0 UNK        -0.5176 
      4 N          17.1323  -24.6668  -43.2064 N.am      1 UNK        -0.4884 
      5 CA         17.8631  -25.0696  -44.4159 C.3       1 UNK         0.0853 
      6 C6         17.5828  -26.5511  -44.7737 C.3       10 UNK        -0.0849 
      7 S7         15.8152  -26.9722  -44.9856 S.3       10 UNK        -0.2776 
      8 C8         15.6035  -28.4599  -43.9263 C.3       10 UNK         0.0316 
      9 C9         16.7102  -29.5096  -44.0597 C.ar      10 UNK        -0.0863 
     10 C10        17.1454  -30.2105  -42.9281 C.ar      10 UNK        -0.1009 
     11 C11        18.2413  -31.0774  -43.0024 C.ar      10 UNK        -0.0712 
     12 C12        18.8899  -31.2625  -44.2256 C.ar      10 UNK        -0.0894 
     13 C13        18.4431  -30.5969  -45.3681 C.ar      10 UNK        -0.0745 
     14 C14        17.3382  -29.7482  -45.2861 C.ar      10 UNK        -0.0972 
     15 C15        19.1775  -30.7402  -46.6869 C.3       10 UNK         0.0209 
     16 S16        20.1906  -29.2643  -47.0123 S.3       10 UNK        -0.2568 
     17 C17        21.6639  -29.5664  -45.9718 C.3       10 UNK        -0.0983 
     18 CA         21.9981  -28.4698  -44.9197 C.3       3 UNK         0.0876 
     19 N          21.6280  -27.1202  -45.3518 N.am      3 UNK        -0.4424 
     20 C          22.2110  -25.9943  -44.9225 C.2       2 UNK         0.4918 
     21 O          23.1578  -25.9745  -44.1372 O.2       2 UNK        -0.4875 
     22 CA         21.5779  -24.6726  -45.3965 C.3       2 UNK         0.0481 
     23 CB         22.0694  -24.3100  -46.8062 C.3       2 UNK        -0.1831 
     24 N          20.1085  -24.7103  -45.3721 N.am      2 UNK        -0.4498 
     25 C          19.3889  -24.8879  -44.2549 C.2       1 UNK         0.5027 
     26 O          19.9015  -24.9918  -43.1383 O.2       1 UNK        -0.4969 
     27 C          21.5331  -28.8037  -43.4816 C.2       3 UNK         0.5005 
     28 O          22.1177  -29.6988  -42.8689 O.2       3 UNK        -0.5279 
     29 N          20.5649  -28.0537  -42.9266 N.am      4 UNK        -0.4463 
     30 CA         20.2187  -28.1065  -41.5001 C.3       4 UNK         0.0283 
     31 CB         18.8256  -27.5138  -41.2277 C.3       4 UNK        -0.1875 
     32 C          21.2716  -27.3778  -40.6563 C.2       4 UNK         0.4949 
     33 O          21.6996  -27.9142  -39.6364 O.2       4 UNK        -0.5039 
     34 N          21.7048  -26.1942  -41.1169 N.am      5 UNK        -0.4663 
     35 CA         22.7797  -25.4053  -40.5046 C.3       5 UNK         0.0242 
     36 CB         22.8644  -24.0308  -41.1873 C.3       5 UNK        -0.1982 
     37 C          24.1407  -26.1252  -40.5325 C.2       5 UNK         0.5017 
     38 O          24.8900  -26.0400  -39.5595 O.2       5 UNK        -0.5012 
     39 N          24.4093  -26.8611  -41.6210 N.am      6 UNK        -0.4439 
     40 CA         25.5599  -27.7601  -41.7663 C.3       6 UNK         0.0297 
     41 CB         25.7680  -28.0766  -43.2559 C.3       6 UNK        -0.2006 
     42 C          25.4362  -29.0706  -40.9592 C.2       6 UNK         0.4892 
     43 O          26.4274  -29.7944  -40.8584 O.2       6 UNK        -0.5089 
     44 N          24.2424  -29.3552  -40.4147 N.am      7 UNK        -0.4243 
     45 CA         23.8704  -30.5315  -39.6216 C.3       7 UNK         0.0196 
     46 CB         24.6250  -30.5481  -38.2751 C.3       7 UNK        -0.2007 
     47 C          23.9905  -31.8548  -40.3999 C.2       7 UNK         0.5020 
     48 O          24.4417  -32.8580  -39.8438 O.2       7 UNK        -0.5147 
     49 N          23.5509  -31.8552  -41.6675 N.am      8 UNK        -0.4734 
     50 CA         23.5723  -33.0271  -42.5548 C.3       8 UNK         0.0238 
     51 CB         23.2022  -32.5921  -43.9805 C.3       8 UNK        -0.1912 
     52 C          22.6514  -34.1722  -42.0928 C.2       8 UNK         0.5038 
     53 O          22.9065  -35.3273  -42.4353 O.2       8 UNK        -0.5046 
     54 N          21.6171  -33.8303  -41.3150 N.am      9 UNK        -0.4200 
     55 CA         20.7121  -34.7720  -40.6403 C.3       9 UNK         0.0839 
     56 C          21.3292  -35.4501  -39.3802 C.2       9 UNK         0.5513 
     57 N          22.5146  -35.0685  -38.9161 N.am      9 UNK        -0.7519 
     58 O          20.7179  -36.3519  -38.8129 O.2       9 UNK        -0.4960 
     59 C59        19.3453  -34.1136  -40.3092 C.3       10 UNK        -0.0876 
     60 S60        18.4488  -33.5593  -41.7997 S.3       10 UNK        -0.2414 
     61 C61        18.7704  -31.7703  -41.7566 C.3       10 UNK         0.0169 
     62 H62        17.5788  -22.2698  -44.4169 H         1 UNK         0.0903 
     63 H63        17.2567  -21.3200  -42.9777 H         1 UNK         0.0903 
     64 H64        18.7704  -22.2091  -43.1052 H         1 UNK         0.0903 
     65 H65        16.6660  -25.4253  -42.7316 H         1 UNK         0.3096 
     66 H66        17.5209  -24.4452  -45.2433 H         1 UNK         0.1121 
     67 H67        18.0109  -27.2010  -44.0123 H         1 UNK         0.0849 
     68 H68        18.0846  -26.8190  -45.7058 H         1 UNK         0.0849 
     69 H69        14.6470  -28.9271  -44.1637 H         1 UNK         0.0865 
     70 H70        15.5322  -28.1255  -42.8901 H         1 UNK         0.0865 
     71 H71        16.6608  -30.0457  -41.9754 H         1 UNK         0.1346 
     72 H72        19.7510  -31.9136  -44.2801 H         1 UNK         0.1412 
     73 H73        17.0104  -29.2236  -46.1730 H         1 UNK         0.1426 
     74 H74        18.4529  -30.8569  -47.4941 H         1 UNK         0.0716 
     75 H75        19.7996  -31.6365  -46.7016 H         1 UNK         0.0716 
     76 H76        22.5031  -29.6458  -46.6645 H         1 UNK         0.0695 
     77 H77        21.5950  -30.5508  -45.5097 H         1 UNK         0.0695 
     78 H78        23.0863  -28.4723  -44.8468 H         1 UNK         0.0983 
     79 H79        20.8706  -27.0678  -46.0180 H         1 UNK         0.3095 
     80 H80        21.9034  -23.8863  -44.7119 H         1 UNK         0.0454 
     81 H81        21.7537  -25.0426  -47.5500 H         1 UNK         0.0851 
     82 H82        23.1590  -24.2632  -46.8381 H         1 UNK         0.0851 
     83 H83        21.6974  -23.3337  -47.1172 H         1 UNK         0.0851 
     84 H84        19.6368  -24.6347  -46.2628 H         1 UNK         0.2976 
     85 H85        20.1742  -27.2950  -43.4633 H         1 UNK         0.3116 
     86 H86        20.1993  -29.1530  -41.1893 H         1 UNK         0.0646 
     87 H87        18.0596  -27.9719  -41.8452 H         1 UNK         0.0847 
     88 H88        18.7885  -26.4381  -41.3922 H         1 UNK         0.0847 
     89 H89        18.5382  -27.6823  -40.1892 H         1 UNK         0.0847 
     90 H90        21.2512  -25.7948  -41.9334 H         1 UNK         0.3040 
     91 H91        22.5164  -25.2487  -39.4561 H         1 UNK         0.1015 
     92 H92        23.6242  -23.4074  -40.7142 H         1 UNK         0.0786 
     93 H93        21.9168  -23.4958  -41.1193 H         1 UNK         0.0786 
     94 H94        23.1239  -24.1153  -42.2426 H         1 UNK         0.0786 
     95 H95        23.7797  -26.7831  -42.4139 H         1 UNK         0.3172 
     96 H96        26.4460  -27.2343  -41.4048 H         1 UNK         0.0595 
     97 H97        24.9788  -28.7207  -43.6412 H         1 UNK         0.0839 
     98 H98        26.7120  -28.6006  -43.4114 H         1 UNK         0.0839 
     99 H99        25.7971  -27.1706  -43.8619 H         1 UNK         0.0839 
    100 H100       23.4936  -28.6872  -40.5499 H         1 UNK         0.2998 
    101 H101       22.8092  -30.4173  -39.3962 H         1 UNK         0.0822 
    102 H102       24.4968  -29.6079  -37.7388 H         1 UNK         0.0787 
    103 H103       24.2523  -31.3429  -37.6277 H         1 UNK         0.0787 
    104 H104       25.6940  -30.7148  -38.4110 H         1 UNK         0.0787 
    105 H105       23.1498  -31.0001  -42.0527 H         1 UNK         0.3055 
    106 H106       24.5931  -33.4157  -42.5659 H         1 UNK         0.1106 
    107 H107       22.1709  -32.2442  -44.0302 H         1 UNK         0.0828 
    108 H108       23.3000  -33.4227  -44.6808 H         1 UNK         0.0828 
    109 H109       23.8482  -31.7887  -44.3350 H         1 UNK         0.0828 
    110 H110       21.5038  -32.8555  -41.0858 H         1 UNK         0.2931 
    111 H111       20.5138  -35.5869  -41.3395 H         1 UNK         0.0412 
    112 H112       22.8900  -35.5284  -38.1016 H         1 UNK         0.3472 
    113 H113       23.0525  -34.3394  -39.3692 H         1 UNK         0.3472 
    114 H114       18.6956  -34.8262  -39.7972 H         1 UNK         0.0970 
    115 H115       19.4743  -33.2794  -39.6171 H         1 UNK         0.0970 
    116 H116       19.8440  -31.5927  -41.6840 H         1 UNK         0.0612 
    117 H117       18.3223  -31.3451  -40.8572 H         1 UNK         0.0612 
@<TRIPOS>BOND
     1    1    2 1    
     2    1   62 1    
     3    1   63 1    
     4    1   64 1    
     5    2    3 2    
     6    2    4 am   BACKBONE|DICT|INTERRES
     7    4    5 1    
     8    4   65 1    
     9    5    6 1    
    10    5   25 1    
    11    5   66 1    
    12    6    7 1    
    13    6   67 1    
    14    6   68 1    
    15    7    8 1    
    16    8    9 1    
    17    8   69 1    
    18    8   70 1    
    19    9   10 ar   
    20    9   14 ar   
    21   10   11 ar   
    22   10   71 1    
    23   11   12 ar   
    24   11   61 1    
    25   12   13 ar   
    26   12   72 1    
    27   13   14 ar   
    28   13   15 1    
    29   14   73 1    
    30   15   16 1    
    31   15   74 1    
    32   15   75 1    
    33   16   17 1    
    34   17   18 1    
    35   17   76 1    
    36   17   77 1    
    37   18   19 1    
    38   18   27 1    
    39   18   78 1    
    40   19   20 am   BACKBONE|DICT|INTERRES
    41   19   79 1    
    42   20   21 2    
    43   20   22 1    
    44   22   23 1    
    45   22   24 1    
    46   22   80 1    
    47   23   81 1    
    48   23   82 1    
    49   23   83 1    
    50   24   25 am   BACKBONE|DICT|INTERRES
    51   24   84 1    
    52   25   26 2    
    53   27   28 2    
    54   27   29 am   BACKBONE|DICT|INTERRES
    55   29   30 1    
    56   29   85 1    
    57   30   31 1    
    58   30   32 1    
    59   30   86 1    
    60   31   87 1    
    61   31   88 1    
    62   31   89 1    
    63   32   33 2    
    64   32   34 am   BACKBONE|DICT|INTERRES
    65   34   35 1    
    66   34   90 1    
    67   35   36 1    
    68   35   37 1    
    69   35   91 1    
    70   36   92 1    
    71   36   93 1    
    72   36   94 1    
    73   37   38 2    
    74   37   39 am   BACKBONE|DICT|INTERRES
    75   39   40 1    
    76   39   95 1    
    77   40   41 1    
    78   40   42 1    
    79   40   96 1    
    80   41   97 1    
    81   41   98 1    
    82   41   99 1    
    83   42   43 2    
    84   42   44 am   BACKBONE|DICT|INTERRES
    85   44   45 1    
    86   44  100 1    
    87   45   46 1    
    88   45   47 1    
    89   45  101 1    
    90   46  102 1    
    91   46  103 1    
    92   46  104 1    
    93   47   48 2    
    94   47   49 am   BACKBONE|DICT|INTERRES
    95   49   50 1    
    96   49  105 1    
    97   50   51 1    
    98   50   52 1    
    99   50  106 1    
   100   51  107 1    
   101   51  108 1    
   102   51  109 1    
   103   52   53 2    
   104   52   54 am   BACKBONE|DICT|INTERRES
   105   54   55 1    
   106   54  110 1    
   107   55   56 1    
   108   55   59 1    
   109   55  111 1    
   110   56   57 am   BACKBONE|DICT|INTERRES
   111   56   58 2    
   112   57  112 1    
   113   57  113 1    
   114   59   60 1    
   115   59  114 1    
   116   59  115 1    
   117   60   61 1    
   118   61  116 1    
   119   61  117 1    
@<TRIPOS>SUBSTRUCTURE
     1 UNK         1 GROUP             0       ****    0 ROOT    
