@<TRIPOS>MOLECULE
3R8
117   119    1
SMALL
USER_CHARGES


@<TRIPOS>ATOM
      1 CA         13.4647  -29.3626  -41.7563 C.3       0 UNK        -0.2013 
      2 C          14.1910  -28.0262  -41.7579 C.2       0 UNK         0.4866 
      3 O          13.6153  -27.0172  -41.3495 O.2       0 UNK        -0.5176 
      4 N          15.4460  -28.0070  -42.2138 N.am      1 UNK        -0.4884 
      5 CA         16.3219  -26.8393  -42.2536 C.3       1 UNK         0.0853 
      6 C6         15.9679  -25.8693  -43.4229 C.3       10 UNK        -0.0849 
      7 S7         16.7379  -26.1545  -45.0607 S.3       10 UNK        -0.2776 
      8 C8         15.8017  -27.5694  -45.7363 C.3       10 UNK         0.0316 
      9 C9         16.5442  -28.8890  -45.5512 C.ar      10 UNK        -0.0863 
     10 C10        15.9581  -29.9421  -44.8385 C.ar      10 UNK        -0.1009 
     11 C11        16.6601  -31.1339  -44.6313 C.ar      10 UNK        -0.0712 
     12 C12        17.9274  -31.2907  -45.1940 C.ar      10 UNK        -0.0894 
     13 C13        18.5351  -30.2438  -45.8905 C.ar      10 UNK        -0.0745 
     14 C14        17.8315  -29.0508  -46.0801 C.ar      10 UNK        -0.0972 
     15 C15        19.9681  -30.3942  -46.3843 C.3       10 UNK         0.0209 
     16 S16        21.0783  -30.8274  -45.0034 S.3       10 UNK        -0.2568 
     17 C17        22.4630  -29.6626  -45.1952 C.3       10 UNK        -0.0983 
     18 CA         22.1499  -28.1865  -44.8186 C.3       3 UNK         0.0876 
     19 N          21.3963  -28.0533  -43.5636 N.am      3 UNK        -0.4424 
     20 C          20.7207  -26.9512  -43.2136 C.2       2 UNK         0.4918 
     21 O          20.5697  -25.9728  -43.9504 O.2       2 UNK        -0.4875 
     22 CA         20.1454  -26.9061  -41.7876 C.3       2 UNK         0.0481 
     23 CB         20.9248  -25.9033  -40.9223 C.3       2 UNK        -0.1831 
     24 N          18.7279  -26.5379  -41.8011 N.am      2 UNK        -0.4498 
     25 C          17.7701  -27.3605  -42.2448 C.2       1 UNK         0.5027 
     26 O          17.9962  -28.5067  -42.6285 O.2       1 UNK        -0.4969 
     27 C          23.4605  -27.3657  -44.7599 C.2       3 UNK         0.5005 
     28 O          23.8002  -26.8056  -43.7141 O.2       3 UNK        -0.5279 
     29 N          24.2341  -27.3739  -45.8571 N.am      4 UNK        -0.4463 
     30 CA         25.5709  -26.7639  -45.9511 C.3       4 UNK         0.0283 
     31 CB         26.0997  -26.9197  -47.3861 C.3       4 UNK        -0.1875 
     32 C          26.5989  -27.3144  -44.9379 C.2       4 UNK         0.4949 
     33 O          27.5525  -26.6125  -44.6027 O.2       4 UNK        -0.5039 
     34 N          26.3694  -28.5403  -44.4454 N.am      5 UNK        -0.4663 
     35 CA         27.1188  -29.1752  -43.3572 C.3       5 UNK         0.0242 
     36 CB         26.8691  -30.6923  -43.4105 C.3       5 UNK        -0.1982 
     37 C          26.7792  -28.6241  -41.9557 C.2       5 UNK         0.5017 
     38 O          27.4508  -29.0036  -40.9956 O.2       5 UNK        -0.5012 
     39 N          25.7414  -27.7792  -41.8437 N.am      6 UNK        -0.4439 
     40 CA         25.2086  -27.1076  -40.6496 C.3       6 UNK         0.0297 
     41 CB         26.2676  -26.2158  -39.9727 C.3       6 UNK        -0.2006 
     42 C          24.5301  -28.0409  -39.6320 C.2       6 UNK         0.4892 
     43 O          23.4296  -27.7307  -39.1767 O.2       6 UNK        -0.5089 
     44 N          25.1882  -29.1525  -39.2840 N.am      7 UNK        -0.4243 
     45 CA         24.6929  -30.1500  -38.3333 C.3       7 UNK         0.0196 
     46 CB         25.8694  -31.0127  -37.8488 C.3       7 UNK        -0.2007 
     47 C          23.5813  -31.0375  -38.9172 C.2       7 UNK         0.5020 
     48 O          22.6961  -31.4643  -38.1748 O.2       7 UNK        -0.5147 
     49 N          23.6519  -31.3166  -40.2257 N.am      8 UNK        -0.4734 
     50 CA         22.6997  -32.1629  -40.9459 C.3       8 UNK         0.0238 
     51 CB         23.2664  -32.5031  -42.3328 C.3       8 UNK        -0.1912 
     52 C          21.3227  -31.4890  -41.0607 C.2       8 UNK         0.5038 
     53 O          21.2396  -30.3826  -41.5996 O.2       8 UNK        -0.5046 
     54 N          20.2918  -32.1745  -40.5436 N.am      9 UNK        -0.4200 
     55 CA         18.8785  -31.7557  -40.5164 C.3       9 UNK         0.0839 
     56 C          18.5895  -30.4639  -39.6798 C.2       9 UNK         0.5513 
     57 N          19.5216  -29.9846  -38.8629 N.am      9 UNK        -0.7519 
     58 O          17.4896  -29.9197  -39.7079 O.2       9 UNK        -0.4960 
     59 C59        18.2583  -31.7713  -41.9442 C.3       10 UNK        -0.0876 
     60 S60        16.4366  -31.9587  -41.9841 S.3       10 UNK        -0.2414 
     61 C61        16.0902  -32.2402  -43.7555 C.3       10 UNK         0.0169 
     62 H62        13.1779  -29.6317  -40.7406 H         1 UNK         0.0903 
     63 H63        12.5612  -29.3002  -42.3612 H         1 UNK         0.0903 
     64 H64        14.0835  -30.1644  -42.1544 H         1 UNK         0.0903 
     65 H65        15.9261  -28.8594  -42.4871 H         1 UNK         0.3096 
     66 H66        16.1793  -26.3047  -41.3114 H         1 UNK         0.1121 
     67 H67        14.8870  -25.7987  -43.5521 H         1 UNK         0.0849 
     68 H68        16.2727  -24.8644  -43.1273 H         1 UNK         0.0849 
     69 H69        15.6451  -27.4072  -46.8035 H         1 UNK         0.0865 
     70 H70        14.8095  -27.6065  -45.2842 H         1 UNK         0.0865 
     71 H71        14.9710  -29.8234  -44.4154 H         1 UNK         0.1346 
     72 H72        18.4751  -32.2086  -45.0307 H         1 UNK         0.1412 
     73 H73        18.2959  -28.2308  -46.6105 H         1 UNK         0.1426 
     74 H74        20.3076  -29.4775  -46.8674 H         1 UNK         0.0716 
     75 H75        20.0114  -31.1797  -47.1396 H         1 UNK         0.0716 
     76 H76        22.8134  -29.7331  -46.2263 H         1 UNK         0.0695 
     77 H77        23.2770  -30.0436  -44.5774 H         1 UNK         0.0695 
     78 H78        21.5390  -27.7572  -45.6153 H         1 UNK         0.0983 
     79 H79        21.4366  -28.8386  -42.9198 H         1 UNK         0.3095 
     80 H80        20.2440  -27.8926  -41.3294 H         1 UNK         0.0454 
     81 H81        20.5829  -25.9203  -39.8875 H         1 UNK         0.0851 
     82 H82        20.8292  -24.8834  -41.2964 H         1 UNK         0.0851 
     83 H83        21.9874  -26.1467  -40.9146 H         1 UNK         0.0851 
     84 H84        18.4957  -25.5917  -41.5372 H         1 UNK         0.2976 
     85 H85        23.9021  -27.8495  -46.6845 H         1 UNK         0.3116 
     86 H86        25.4570  -25.6978  -45.7436 H         1 UNK         0.0646 
     87 H87        27.0786  -26.4502  -47.4943 H         1 UNK         0.0847 
     88 H88        25.4360  -26.4458  -48.1095 H         1 UNK         0.0847 
     89 H89        26.2103  -27.9684  -47.6652 H         1 UNK         0.0847 
     90 H90        25.5754  -29.0494  -44.8035 H         1 UNK         0.3040 
     91 H91        28.1840  -28.9958  -43.5201 H         1 UNK         0.1015 
     92 H92        27.1734  -31.1109  -44.3701 H         1 UNK         0.0786 
     93 H93        25.8177  -30.9349  -43.2566 H         1 UNK         0.0786 
     94 H94        27.4398  -31.2124  -42.6396 H         1 UNK         0.0786 
     95 H95        25.2258  -27.5511  -42.6912 H         1 UNK         0.3172 
     96 H96        24.4288  -26.4438  -41.0254 H         1 UNK         0.0595 
     97 H97        27.0868  -26.7976  -39.5493 H         1 UNK         0.0839 
     98 H98        25.8259  -25.6413  -39.1574 H         1 UNK         0.0839 
     99 H99        26.6929  -25.5021  -40.6783 H         1 UNK         0.0839 
    100 H100       26.0991  -29.3090  -39.7083 H         1 UNK         0.2998 
    101 H101       24.2766  -29.6258  -37.4701 H         1 UNK         0.0822 
    102 H102       26.3444  -31.5481  -38.6721 H         1 UNK         0.0787 
    103 H103       26.6314  -30.4050  -37.3603 H         1 UNK         0.0787 
    104 H104       25.5356  -31.7567  -37.1240 H         1 UNK         0.0787 
    105 H105       24.3886  -30.8901  -40.7664 H         1 UNK         0.3055 
    106 H106       22.5942  -33.0970  -40.3891 H         1 UNK         0.1106 
    107 H107       23.4459  -31.6051  -42.9213 H         1 UNK         0.0828 
    108 H108       24.2061  -33.0504  -42.2576 H         1 UNK         0.0828 
    109 H109       22.5712  -33.1260  -42.8974 H         1 UNK         0.0828 
    110 H110       20.4819  -33.0554  -40.0881 H         1 UNK         0.2931 
    111 H111       18.3854  -32.5497  -39.9545 H         1 UNK         0.0412 
    112 H112       20.4277  -30.4250  -38.8041 H         1 UNK         0.3472 
    113 H113       19.3187  -29.1671  -38.3106 H         1 UNK         0.3472 
    114 H114       18.5594  -30.8808  -42.4929 H         1 UNK         0.0970 
    115 H115       18.6702  -32.6093  -42.5081 H         1 UNK         0.0970 
    116 H116       16.4984  -33.2083  -44.0499 H         1 UNK         0.0612 
    117 H117       15.0109  -32.3063  -43.8990 H         1 UNK         0.0612 
@<TRIPOS>BOND
     1    1    2 1    
     2    1   62 1    
     3    1   63 1    
     4    1   64 1    
     5    2    3 2    
     6    2    4 am   BACKBONE|DICT|INTERRES
     7    4    5 1    
     8    4   65 1    
     9    5    6 1    
    10    5   25 1    
    11    5   66 1    
    12    6    7 1    
    13    6   67 1    
    14    6   68 1    
    15    7    8 1    
    16    8    9 1    
    17    8   69 1    
    18    8   70 1    
    19    9   10 ar   
    20    9   14 ar   
    21   10   11 ar   
    22   10   71 1    
    23   11   12 ar   
    24   11   61 1    
    25   12   13 ar   
    26   12   72 1    
    27   13   14 ar   
    28   13   15 1    
    29   14   73 1    
    30   15   16 1    
    31   15   74 1    
    32   15   75 1    
    33   16   17 1    
    34   17   18 1    
    35   17   76 1    
    36   17   77 1    
    37   18   19 1    
    38   18   27 1    
    39   18   78 1    
    40   19   20 am   BACKBONE|DICT|INTERRES
    41   19   79 1    
    42   20   21 2    
    43   20   22 1    
    44   22   23 1    
    45   22   24 1    
    46   22   80 1    
    47   23   81 1    
    48   23   82 1    
    49   23   83 1    
    50   24   25 am   BACKBONE|DICT|INTERRES
    51   24   84 1    
    52   25   26 2    
    53   27   28 2    
    54   27   29 am   BACKBONE|DICT|INTERRES
    55   29   30 1    
    56   29   85 1    
    57   30   31 1    
    58   30   32 1    
    59   30   86 1    
    60   31   87 1    
    61   31   88 1    
    62   31   89 1    
    63   32   33 2    
    64   32   34 am   BACKBONE|DICT|INTERRES
    65   34   35 1    
    66   34   90 1    
    67   35   36 1    
    68   35   37 1    
    69   35   91 1    
    70   36   92 1    
    71   36   93 1    
    72   36   94 1    
    73   37   38 2    
    74   37   39 am   BACKBONE|DICT|INTERRES
    75   39   40 1    
    76   39   95 1    
    77   40   41 1    
    78   40   42 1    
    79   40   96 1    
    80   41   97 1    
    81   41   98 1    
    82   41   99 1    
    83   42   43 2    
    84   42   44 am   BACKBONE|DICT|INTERRES
    85   44   45 1    
    86   44  100 1    
    87   45   46 1    
    88   45   47 1    
    89   45  101 1    
    90   46  102 1    
    91   46  103 1    
    92   46  104 1    
    93   47   48 2    
    94   47   49 am   BACKBONE|DICT|INTERRES
    95   49   50 1    
    96   49  105 1    
    97   50   51 1    
    98   50   52 1    
    99   50  106 1    
   100   51  107 1    
   101   51  108 1    
   102   51  109 1    
   103   52   53 2    
   104   52   54 am   BACKBONE|DICT|INTERRES
   105   54   55 1    
   106   54  110 1    
   107   55   56 1    
   108   55   59 1    
   109   55  111 1    
   110   56   57 am   BACKBONE|DICT|INTERRES
   111   56   58 2    
   112   57  112 1    
   113   57  113 1    
   114   59   60 1    
   115   59  114 1    
   116   59  115 1    
   117   60   61 1    
   118   61  116 1    
   119   61  117 1    
@<TRIPOS>SUBSTRUCTURE
     1 UNK         1 GROUP             0       ****    0 ROOT    
