@<TRIPOS>MOLECULE
3R8
117   119    1
SMALL
USER_CHARGES


@<TRIPOS>ATOM
      1 CA         16.5046  -25.2738  -48.5392 C.3       0 UNK        -0.2013 
      2 C          17.9603  -25.0974  -48.1342 C.2       0 UNK         0.4866 
      3 O          18.8108  -24.8560  -48.9911 O.2       0 UNK        -0.5176 
      4 N          18.2528  -25.2142  -46.8359 N.am      1 UNK        -0.4884 
      5 CA         19.5760  -25.0511  -46.2361 C.3       1 UNK         0.0853 
      6 C6         20.5271  -26.2528  -46.5381 C.3       10 UNK        -0.0849 
      7 S7         20.3694  -27.7132  -45.4502 S.3       10 UNK        -0.2776 
      8 C8         18.9872  -28.6158  -46.2141 C.3       10 UNK         0.0316 
      9 C9         18.4554  -29.6574  -45.2438 C.ar      10 UNK        -0.0863 
     10 C10        18.8144  -31.0026  -45.3716 C.ar      10 UNK        -0.1009 
     11 C11        18.3850  -31.9525  -44.4379 C.ar      10 UNK        -0.0712 
     12 C12        17.5760  -31.5333  -43.3724 C.ar      10 UNK        -0.0894 
     13 C13        17.2233  -30.1895  -43.2264 C.ar      10 UNK        -0.0745 
     14 C14        17.6400  -29.2601  -44.1813 C.ar      10 UNK        -0.0972 
     15 C15        16.4370  -29.7419  -42.0049 C.3       10 UNK         0.0209 
     16 S16        17.5448  -29.4811  -40.5793 S.3       10 UNK        -0.2568 
     17 C17        18.2865  -27.8567  -40.9585 C.3       10 UNK        -0.0983 
     18 CA         19.6690  -27.9398  -41.6695 C.3       3 UNK         0.0876 
     19 N          20.0199  -26.6667  -42.3045 N.am      3 UNK        -0.4424 
     20 C          20.3061  -25.5091  -41.6883 C.2       2 UNK         0.4918 
     21 O          20.4256  -25.4036  -40.4664 O.2       2 UNK        -0.4875 
     22 CA         20.4898  -24.2485  -42.5653 C.3       2 UNK         0.0481 
     23 CB         21.7692  -23.4832  -42.1865 C.3       2 UNK        -0.1831 
     24 N          20.4795  -24.5032  -44.0132 N.am      2 UNK        -0.4498 
     25 C          19.3765  -24.7418  -44.7374 C.2       1 UNK         0.5027 
     26 O          18.2396  -24.7632  -44.2546 O.2       1 UNK        -0.4969 
     27 C          20.8405  -28.4551  -40.8124 C.2       3 UNK         0.5005 
     28 O          21.8927  -28.7712  -41.3739 O.2       3 UNK        -0.5279 
     29 N          20.6724  -28.4814  -39.4832 N.am      4 UNK        -0.4463 
     30 CA         21.6788  -28.8770  -38.4930 C.3       4 UNK         0.0283 
     31 CB         21.0863  -28.7192  -37.0840 C.3       4 UNK        -0.1875 
     32 C          23.0130  -28.1118  -38.5965 C.2       4 UNK         0.4949 
     33 O          24.0536  -28.6720  -38.2541 O.2       4 UNK        -0.5039 
     34 N          22.9598  -26.8619  -39.0766 N.am      5 UNK        -0.4663 
     35 CA         24.1193  -25.9902  -39.2706 C.3       5 UNK         0.0242 
     36 CB         23.7099  -24.5534  -38.9034 C.3       5 UNK        -0.1982 
     37 C          24.7118  -26.0534  -40.6933 C.2       5 UNK         0.5017 
     38 O          25.6835  -25.3409  -40.9499 O.2       5 UNK        -0.5012 
     39 N          24.1390  -26.8670  -41.5931 N.am      6 UNK        -0.4439 
     40 CA         24.5900  -27.0236  -42.9775 C.3       6 UNK         0.0297 
     41 CB         23.6287  -26.2927  -43.9355 C.3       6 UNK        -0.2006 
     42 C          24.7530  -28.5121  -43.3062 C.2       6 UNK         0.4892 
     43 O          25.8422  -29.0537  -43.1150 O.2       6 UNK        -0.5089 
     44 N          23.6805  -29.1406  -43.8066 N.am      7 UNK        -0.4243 
     45 CA         23.6421  -30.5414  -44.2340 C.3       7 UNK         0.0196 
     46 CB         22.3240  -30.7950  -44.9820 C.3       7 UNK        -0.2007 
     47 C          23.7942  -31.5581  -43.0908 C.2       7 UNK         0.5020 
     48 O          24.1454  -32.7070  -43.3621 O.2       7 UNK        -0.5147 
     49 N          23.4851  -31.1452  -41.8529 N.am      8 UNK        -0.4734 
     50 CA         23.4601  -31.9201  -40.6035 C.3       8 UNK         0.0238 
     51 CB         24.8112  -32.5982  -40.3010 C.3       8 UNK        -0.1912 
     52 C          22.2912  -32.9169  -40.5380 C.2       8 UNK         0.5038 
     53 O          21.5700  -32.9313  -39.5406 O.2       8 UNK        -0.5046 
     54 N          22.1048  -33.6934  -41.6127 N.am      9 UNK        -0.4200 
     55 CA         20.9883  -34.6214  -41.8453 C.3       9 UNK         0.0839 
     56 C          20.9631  -35.8690  -40.9089 C.2       9 UNK         0.5513 
     57 N          22.0681  -36.2270  -40.2654 N.am      9 UNK        -0.7519 
     58 O          19.9431  -36.5408  -40.7795 O.2       9 UNK        -0.4960 
     59 C59        19.6282  -33.8677  -41.9336 C.3       10 UNK        -0.0876 
     60 S60        18.5204  -34.5404  -43.2202 S.3       10 UNK        -0.2414 
     61 C61        18.8393  -33.4048  -44.6193 C.3       10 UNK         0.0169 
     62 H62        16.4097  -26.0962  -49.2478 H         1 UNK         0.0903 
     63 H63        15.8664  -25.4898  -47.6825 H         1 UNK         0.0903 
     64 H64        16.1354  -24.3670  -49.0175 H         1 UNK         0.0903 
     65 H65        17.5203  -25.3406  -46.1462 H         1 UNK         0.3096 
     66 H66        20.0153  -24.1515  -46.6739 H         1 UNK         0.1121 
     67 H67        20.4310  -26.5736  -47.5764 H         1 UNK         0.0849 
     68 H68        21.5599  -25.9125  -46.4503 H         1 UNK         0.0849 
     69 H69        18.1853  -27.9267  -46.4789 H         1 UNK         0.0865 
     70 H70        19.3217  -29.0783  -47.1439 H         1 UNK         0.0865 
     71 H71        19.4531  -31.3085  -46.1893 H         1 UNK         0.1346 
     72 H72        17.2375  -32.2381  -42.6270 H         1 UNK         0.1412 
     73 H73        17.3785  -28.2165  -44.0675 H         1 UNK         0.1426 
     74 H74        15.8696  -28.8338  -42.2147 H         1 UNK         0.0716 
     75 H75        15.7020  -30.5049  -41.7439 H         1 UNK         0.0716 
     76 H76        18.3429  -27.2693  -40.0408 H         1 UNK         0.0695 
     77 H77        17.5865  -27.3118  -41.5938 H         1 UNK         0.0695 
     78 H78        19.5894  -28.6597  -42.4828 H         1 UNK         0.0983 
     79 H79        19.9908  -26.6703  -43.3148 H         1 UNK         0.3095 
     80 H80        19.6468  -23.5918  -42.3409 H         1 UNK         0.0454 
     81 H81        21.9592  -22.6520  -42.8655 H         1 UNK         0.0851 
     82 H82        21.6770  -23.0581  -41.1868 H         1 UNK         0.0851 
     83 H83        22.6474  -24.1270  -42.1817 H         1 UNK         0.0851 
     84 H84        21.3769  -24.5067  -44.4761 H         1 UNK         0.2976 
     85 H85        19.7736  -28.1965  -39.1210 H         1 UNK         0.3116 
     86 H86        21.8850  -29.9353  -38.6492 H         1 UNK         0.0646 
     87 H87        20.1937  -29.3319  -36.9561 H         1 UNK         0.0847 
     88 H88        21.8020  -29.0325  -36.3224 H         1 UNK         0.0847 
     89 H89        20.8182  -27.6834  -36.8719 H         1 UNK         0.0847 
     90 H90        22.0593  -26.4865  -39.3531 H         1 UNK         0.3040 
     91 H91        24.9192  -26.2903  -38.5899 H         1 UNK         0.1015 
     92 H92        22.8897  -24.1976  -39.5252 H         1 UNK         0.0786 
     93 H93        24.5415  -23.8581  -39.0261 H         1 UNK         0.0786 
     94 H94        23.3898  -24.4892  -37.8632 H         1 UNK         0.0786 
     95 H95        23.3752  -27.4712  -41.3007 H         1 UNK         0.3172 
     96 H96        25.5799  -26.5820  -43.1110 H         1 UNK         0.0595 
     97 H97        22.5867  -26.5284  -43.7247 H         1 UNK         0.0839 
     98 H98        23.8271  -26.5569  -44.9755 H         1 UNK         0.0839 
     99 H99        23.7551  -25.2138  -43.8599 H         1 UNK         0.0839 
    100 H100       22.8173  -28.6235  -43.8926 H         1 UNK         0.2998 
    101 H101       24.4707  -30.7048  -44.9262 H         1 UNK         0.0822 
    102 H102       22.2562  -31.8285  -45.3249 H         1 UNK         0.0787 
    103 H103       21.4613  -30.6064  -44.3414 H         1 UNK         0.0787 
    104 H104       22.2360  -30.1576  -45.8618 H         1 UNK         0.0787 
    105 H105       23.1101  -30.2025  -41.7698 H         1 UNK         0.3055 
    106 H106       23.2961  -31.1883  -39.8143 H         1 UNK         0.1106 
    107 H107       24.8015  -33.0504  -39.3085 H         1 UNK         0.0828 
    108 H108       25.0482  -33.3898  -41.0118 H         1 UNK         0.0828 
    109 H109       25.6273  -31.8758  -40.3193 H         1 UNK         0.0828 
    110 H110       22.7777  -33.6000  -42.3685 H         1 UNK         0.2931 
    111 H111       21.2041  -35.0298  -42.8332 H         1 UNK         0.0412 
    112 H112       22.0517  -37.0386  -39.6676 H         1 UNK         0.3472 
    113 H113       22.9153  -35.6919  -40.3693 H         1 UNK         0.3472 
    114 H114       19.1098  -33.8792  -40.9730 H         1 UNK         0.0970 
    115 H115       19.7934  -32.8116  -42.1511 H         1 UNK         0.0970 
    116 H116       19.9095  -33.4221  -44.8322 H         1 UNK         0.0612 
    117 H117       18.3423  -33.8098  -45.5016 H         1 UNK         0.0612 
@<TRIPOS>BOND
     1    1    2 1    
     2    1   62 1    
     3    1   63 1    
     4    1   64 1    
     5    2    3 2    
     6    2    4 am   BACKBONE|DICT|INTERRES
     7    4    5 1    
     8    4   65 1    
     9    5    6 1    
    10    5   25 1    
    11    5   66 1    
    12    6    7 1    
    13    6   67 1    
    14    6   68 1    
    15    7    8 1    
    16    8    9 1    
    17    8   69 1    
    18    8   70 1    
    19    9   10 ar   
    20    9   14 ar   
    21   10   11 ar   
    22   10   71 1    
    23   11   12 ar   
    24   11   61 1    
    25   12   13 ar   
    26   12   72 1    
    27   13   14 ar   
    28   13   15 1    
    29   14   73 1    
    30   15   16 1    
    31   15   74 1    
    32   15   75 1    
    33   16   17 1    
    34   17   18 1    
    35   17   76 1    
    36   17   77 1    
    37   18   19 1    
    38   18   27 1    
    39   18   78 1    
    40   19   20 am   BACKBONE|DICT|INTERRES
    41   19   79 1    
    42   20   21 2    
    43   20   22 1    
    44   22   23 1    
    45   22   24 1    
    46   22   80 1    
    47   23   81 1    
    48   23   82 1    
    49   23   83 1    
    50   24   25 am   BACKBONE|DICT|INTERRES
    51   24   84 1    
    52   25   26 2    
    53   27   28 2    
    54   27   29 am   BACKBONE|DICT|INTERRES
    55   29   30 1    
    56   29   85 1    
    57   30   31 1    
    58   30   32 1    
    59   30   86 1    
    60   31   87 1    
    61   31   88 1    
    62   31   89 1    
    63   32   33 2    
    64   32   34 am   BACKBONE|DICT|INTERRES
    65   34   35 1    
    66   34   90 1    
    67   35   36 1    
    68   35   37 1    
    69   35   91 1    
    70   36   92 1    
    71   36   93 1    
    72   36   94 1    
    73   37   38 2    
    74   37   39 am   BACKBONE|DICT|INTERRES
    75   39   40 1    
    76   39   95 1    
    77   40   41 1    
    78   40   42 1    
    79   40   96 1    
    80   41   97 1    
    81   41   98 1    
    82   41   99 1    
    83   42   43 2    
    84   42   44 am   BACKBONE|DICT|INTERRES
    85   44   45 1    
    86   44  100 1    
    87   45   46 1    
    88   45   47 1    
    89   45  101 1    
    90   46  102 1    
    91   46  103 1    
    92   46  104 1    
    93   47   48 2    
    94   47   49 am   BACKBONE|DICT|INTERRES
    95   49   50 1    
    96   49  105 1    
    97   50   51 1    
    98   50   52 1    
    99   50  106 1    
   100   51  107 1    
   101   51  108 1    
   102   51  109 1    
   103   52   53 2    
   104   52   54 am   BACKBONE|DICT|INTERRES
   105   54   55 1    
   106   54  110 1    
   107   55   56 1    
   108   55   59 1    
   109   55  111 1    
   110   56   57 am   BACKBONE|DICT|INTERRES
   111   56   58 2    
   112   57  112 1    
   113   57  113 1    
   114   59   60 1    
   115   59  114 1    
   116   59  115 1    
   117   60   61 1    
   118   61  116 1    
   119   61  117 1    
@<TRIPOS>SUBSTRUCTURE
     1 UNK         1 GROUP             0       ****    0 ROOT    
