@<TRIPOS>MOLECULE
3R8
117   119    1
SMALL
USER_CHARGES


@<TRIPOS>ATOM
      1 CA         16.7032  -23.3692  -41.2632 C.3       0 UNK        -0.2013 
      2 C          17.3764  -23.6147  -42.6053 C.2       0 UNK         0.4866 
      3 O          17.9251  -22.6830  -43.1953 O.2       0 UNK        -0.5176 
      4 N          17.3288  -24.8595  -43.0955 N.am      1 UNK        -0.4884 
      5 CA         17.9692  -25.3012  -44.3409 C.3       1 UNK         0.0853 
      6 C6         17.4706  -26.6997  -44.7921 C.3       10 UNK        -0.0849 
      7 S7         15.6561  -26.9136  -44.7222 S.3       10 UNK        -0.2776 
      8 C8         15.4141  -28.5167  -45.5630 C.3       10 UNK         0.0316 
      9 C9         16.4128  -29.5738  -45.1093 C.ar      10 UNK        -0.0863 
     10 C10        16.3214  -30.1463  -43.8370 C.ar      10 UNK        -0.1009 
     11 C11        17.2721  -31.0768  -43.3997 C.ar      10 UNK        -0.0712 
     12 C12        18.3192  -31.4331  -44.2607 C.ar      10 UNK        -0.0894 
     13 C13        18.4079  -30.8841  -45.5418 C.ar      10 UNK        -0.0745 
     14 C14        17.4495  -29.9593  -45.9611 C.ar      10 UNK        -0.0972 
     15 C15        19.5183  -31.3015  -46.4924 C.3       10 UNK         0.0209 
     16 S16        20.6235  -29.9103  -46.8865 S.3       10 UNK        -0.2568 
     17 C17        22.0187  -30.1370  -45.7263 C.3       10 UNK        -0.0983 
     18 CA         22.2217  -29.0004  -44.6852 C.3       3 UNK         0.0876 
     19 N          21.8246  -27.6780  -45.1808 N.am      3 UNK        -0.4424 
     20 C          22.3085  -26.5157  -44.7269 C.2       2 UNK         0.4918 
     21 O          23.1466  -26.4271  -43.8315 O.2       2 UNK        -0.4875 
     22 CA         21.7074  -25.2345  -45.3308 C.3       2 UNK         0.0481 
     23 CB         22.2063  -25.0202  -46.7687 C.3       2 UNK        -0.1831 
     24 N          20.2393  -25.2097  -45.2989 N.am      2 UNK        -0.4498 
     25 C          19.5054  -25.3269  -44.1823 C.2       1 UNK         0.5027 
     26 O          19.9988  -25.5145  -43.0665 O.2       1 UNK        -0.4969 
     27 C          21.6324  -29.3390  -43.2998 C.2       3 UNK         0.5005 
     28 O          22.2290  -30.1494  -42.5895 O.2       3 UNK        -0.5279 
     29 N          20.5299  -28.6914  -42.8929 N.am      4 UNK        -0.4463 
     30 CA         20.0133  -28.7779  -41.5216 C.3       4 UNK         0.0283 
     31 CB         18.6035  -28.1731  -41.4234 C.3       4 UNK        -0.1875 
     32 C          20.9549  -28.0896  -40.5212 C.2       4 UNK         0.4949 
     33 O          21.1791  -28.6224  -39.4361 O.2       4 UNK        -0.5039 
     34 N          21.4929  -26.9277  -40.9136 N.am      5 UNK        -0.4663 
     35 CA         22.4396  -26.1465  -40.1239 C.3       5 UNK         0.0242 
     36 CB         22.4181  -24.6858  -40.6069 C.3       5 UNK        -0.1982 
     37 C          23.8619  -26.7272  -40.1697 C.2       5 UNK         0.5017 
     38 O          24.4238  -27.0324  -39.1177 O.2       5 UNK        -0.5012 
     39 N          24.4316  -26.8369  -41.3779 N.am      6 UNK        -0.4439 
     40 CA         25.8508  -27.1338  -41.5912 C.3       6 UNK         0.0297 
     41 CB         26.2747  -26.6446  -42.9858 C.3       6 UNK        -0.2006 
     42 C          26.2135  -28.6151  -41.4183 C.2       6 UNK         0.4892 
     43 O          27.2932  -28.9060  -40.9022 O.2       6 UNK        -0.5089 
     44 N          25.3294  -29.5169  -41.8644 N.am      7 UNK        -0.4243 
     45 CA         25.5526  -30.9670  -41.8516 C.3       7 UNK         0.0196 
     46 CB         25.2695  -31.5346  -43.2554 C.3       7 UNK        -0.2007 
     47 C          24.7149  -31.6810  -40.7783 C.2       7 UNK         0.5020 
     48 O          24.7274  -32.9116  -40.7373 O.2       7 UNK        -0.5147 
     49 N          23.9895  -30.9190  -39.9437 N.am      8 UNK        -0.4734 
     50 CA         23.1043  -31.3826  -38.8643 C.3       8 UNK         0.0238 
     51 CB         23.9337  -32.0007  -37.7180 C.3       8 UNK        -0.1912 
     52 C          21.9750  -32.3177  -39.3489 C.2       8 UNK         0.5038 
     53 O          21.5475  -33.1960  -38.5973 O.2       8 UNK        -0.5046 
     54 N          21.5287  -32.1277  -40.5989 N.am      9 UNK        -0.4200 
     55 CA         20.5908  -32.9962  -41.3254 C.3       9 UNK         0.0839 
     56 C          21.1877  -34.3775  -41.7453 C.2       9 UNK         0.5513 
     57 N          22.4955  -34.5959  -41.6650 N.am      9 UNK        -0.7519 
     58 O          20.4626  -35.2667  -42.1826 O.2       9 UNK        -0.4960 
     59 C59        19.2022  -33.0955  -40.6240 C.3       10 UNK        -0.0876 
     60 S60        17.8029  -33.3340  -41.7776 S.3       10 UNK        -0.2414 
     61 C61        17.1575  -31.6371  -41.9814 C.3       10 UNK         0.0169 
     62 H62        15.9252  -22.6132  -41.3657 H         1 UNK         0.0903 
     63 H63        16.2459  -24.2747  -40.8645 H         1 UNK         0.0903 
     64 H64        17.4338  -23.0114  -40.5382 H         1 UNK         0.0903 
     65 H65        16.8494  -25.5820  -42.5785 H         1 UNK         0.3096 
     66 H66        17.7170  -24.5746  -45.1166 H         1 UNK         0.1121 
     67 H67        17.9135  -27.4797  -44.1725 H         1 UNK         0.0849 
     68 H68        17.8003  -26.9030  -45.8128 H         1 UNK         0.0849 
     69 H69        14.3994  -28.8691  -45.3725 H         1 UNK         0.0865 
     70 H70        15.4825  -28.3613  -46.6409 H         1 UNK         0.0865 
     71 H71        15.5206  -29.8429  -43.1762 H         1 UNK         0.1346 
     72 H72        19.0643  -32.1469  -43.9465 H         1 UNK         0.1412 
     73 H73        17.5251  -29.5277  -46.9502 H         1 UNK         0.1426 
     74 H74        19.0655  -31.6544  -47.4200 H         1 UNK         0.0716 
     75 H75        20.0872  -32.1444  -46.0977 H         1 UNK         0.0716 
     76 H76        22.9128  -30.1926  -46.3491 H         1 UNK         0.0695 
     77 H77        21.9590  -31.1153  -45.2454 H         1 UNK         0.0695 
     78 H78        23.2991  -28.9507  -44.5090 H         1 UNK         0.0983 
     79 H79        21.1394  -27.6778  -45.9234 H         1 UNK         0.3095 
     80 H80        22.0582  -24.3951  -44.7266 H         1 UNK         0.0454 
     81 H81        21.8474  -25.7954  -47.4466 H         1 UNK         0.0851 
     82 H82        23.2966  -25.0323  -46.8086 H         1 UNK         0.0851 
     83 H83        21.8827  -24.0560  -47.1609 H         1 UNK         0.0851 
     84 H84        19.7704  -25.0701  -46.1828 H         1 UNK         0.2976 
     85 H85        20.1134  -28.0081  -43.5059 H         1 UNK         0.3116 
     86 H86        19.9429  -29.8335  -41.2526 H         1 UNK         0.0646 
     87 H87        17.9211  -28.6222  -42.1405 H         1 UNK         0.0847 
     88 H88        18.6039  -27.0967  -41.5877 H         1 UNK         0.0847 
     89 H89        18.1828  -28.3429  -40.4316 H         1 UNK         0.0847 
     90 H90        21.2004  -26.5320  -41.8020 H         1 UNK         0.3040 
     91 H91        22.1132  -26.1575  -39.0813 H         1 UNK         0.1015 
     92 H92        23.1260  -24.0761  -40.0439 H         1 UNK         0.0786 
     93 H93        21.4307  -24.2428  -40.4742 H         1 UNK         0.0786 
     94 H94        22.6775  -24.6000  -41.6630 H         1 UNK         0.0786 
     95 H95        23.8885  -26.5943  -42.2064 H         1 UNK         0.3172 
     96 H96        26.4268  -26.5673  -40.8558 H         1 UNK         0.0595 
     97 H97        25.7562  -27.1831  -43.7800 H         1 UNK         0.0839 
     98 H98        27.3448  -26.7892  -43.1410 H         1 UNK         0.0839 
     99 H99        26.0699  -25.5816  -43.1138 H         1 UNK         0.0839 
    100 H100       24.4460  -29.1998  -42.2394 H         1 UNK         0.2998 
    101 H101       26.5964  -31.1864  -41.6182 H         1 UNK         0.0822 
    102 H102       25.8643  -31.0275  -44.0152 H         1 UNK         0.0787 
    103 H103       25.5220  -32.5945  -43.3053 H         1 UNK         0.0787 
    104 H104       24.2208  -31.4425  -43.5339 H         1 UNK         0.0787 
    105 H105       24.0331  -29.9176  -40.0717 H         1 UNK         0.3055 
    106 H106       22.6105  -30.4977  -38.4632 H         1 UNK         0.1106 
    107 H107       24.4075  -32.9355  -38.0195 H         1 UNK         0.0828 
    108 H108       23.3060  -32.2194  -36.8532 H         1 UNK         0.0828 
    109 H109       24.7163  -31.3202  -37.3827 H         1 UNK         0.0828 
    110 H110       21.9477  -31.3890  -41.1590 H         1 UNK         0.2931 
    111 H111       20.4484  -32.4632  -42.2635 H         1 UNK         0.0412 
    112 H112       23.1322  -33.8919  -41.3047 H         1 UNK         0.3472 
    113 H113       22.8579  -35.4911  -41.9515 H         1 UNK         0.3472 
    114 H114       19.0126  -32.2020  -40.0284 H         1 UNK         0.0970 
    115 H115       19.1993  -33.9166  -39.9049 H         1 UNK         0.0970 
    116 H116       17.6587  -30.9531  -41.2981 H         1 UNK         0.0612 
    117 H117       16.1094  -31.6514  -41.6789 H         1 UNK         0.0612 
@<TRIPOS>BOND
     1    1    2 1    
     2    1   62 1    
     3    1   63 1    
     4    1   64 1    
     5    2    3 2    
     6    2    4 am   BACKBONE|DICT|INTERRES
     7    4    5 1    
     8    4   65 1    
     9    5    6 1    
    10    5   25 1    
    11    5   66 1    
    12    6    7 1    
    13    6   67 1    
    14    6   68 1    
    15    7    8 1    
    16    8    9 1    
    17    8   69 1    
    18    8   70 1    
    19    9   10 ar   
    20    9   14 ar   
    21   10   11 ar   
    22   10   71 1    
    23   11   12 ar   
    24   11   61 1    
    25   12   13 ar   
    26   12   72 1    
    27   13   14 ar   
    28   13   15 1    
    29   14   73 1    
    30   15   16 1    
    31   15   74 1    
    32   15   75 1    
    33   16   17 1    
    34   17   18 1    
    35   17   76 1    
    36   17   77 1    
    37   18   19 1    
    38   18   27 1    
    39   18   78 1    
    40   19   20 am   BACKBONE|DICT|INTERRES
    41   19   79 1    
    42   20   21 2    
    43   20   22 1    
    44   22   23 1    
    45   22   24 1    
    46   22   80 1    
    47   23   81 1    
    48   23   82 1    
    49   23   83 1    
    50   24   25 am   BACKBONE|DICT|INTERRES
    51   24   84 1    
    52   25   26 2    
    53   27   28 2    
    54   27   29 am   BACKBONE|DICT|INTERRES
    55   29   30 1    
    56   29   85 1    
    57   30   31 1    
    58   30   32 1    
    59   30   86 1    
    60   31   87 1    
    61   31   88 1    
    62   31   89 1    
    63   32   33 2    
    64   32   34 am   BACKBONE|DICT|INTERRES
    65   34   35 1    
    66   34   90 1    
    67   35   36 1    
    68   35   37 1    
    69   35   91 1    
    70   36   92 1    
    71   36   93 1    
    72   36   94 1    
    73   37   38 2    
    74   37   39 am   BACKBONE|DICT|INTERRES
    75   39   40 1    
    76   39   95 1    
    77   40   41 1    
    78   40   42 1    
    79   40   96 1    
    80   41   97 1    
    81   41   98 1    
    82   41   99 1    
    83   42   43 2    
    84   42   44 am   BACKBONE|DICT|INTERRES
    85   44   45 1    
    86   44  100 1    
    87   45   46 1    
    88   45   47 1    
    89   45  101 1    
    90   46  102 1    
    91   46  103 1    
    92   46  104 1    
    93   47   48 2    
    94   47   49 am   BACKBONE|DICT|INTERRES
    95   49   50 1    
    96   49  105 1    
    97   50   51 1    
    98   50   52 1    
    99   50  106 1    
   100   51  107 1    
   101   51  108 1    
   102   51  109 1    
   103   52   53 2    
   104   52   54 am   BACKBONE|DICT|INTERRES
   105   54   55 1    
   106   54  110 1    
   107   55   56 1    
   108   55   59 1    
   109   55  111 1    
   110   56   57 am   BACKBONE|DICT|INTERRES
   111   56   58 2    
   112   57  112 1    
   113   57  113 1    
   114   59   60 1    
   115   59  114 1    
   116   59  115 1    
   117   60   61 1    
   118   61  116 1    
   119   61  117 1    
@<TRIPOS>SUBSTRUCTURE
     1 UNK         1 GROUP             0       ****    0 ROOT    
