@<TRIPOS>MOLECULE
3R8
117   119    1
SMALL
USER_CHARGES


@<TRIPOS>ATOM
      1 CA         21.2236  -31.8384  -48.4664 C.3       0 UNK        -0.2013 
      2 C          20.3301  -30.6624  -48.1006 C.2       0 UNK         0.4866 
      3 O          19.9814  -29.8709  -48.9765 O.2       0 UNK        -0.5176 
      4 N          19.9612  -30.5495  -46.8168 N.am      1 UNK        -0.4884 
      5 CA         19.0820  -29.5190  -46.2438 C.3       1 UNK         0.0853 
      6 C6         17.6201  -29.5839  -46.7626 C.3       10 UNK        -0.0849 
      7 S7         16.7758  -31.0769  -46.1485 S.3       10 UNK        -0.2776 
      8 C8         15.4998  -30.3509  -45.0669 C.3       10 UNK         0.0316 
      9 C9         16.0724  -29.6373  -43.8452 C.ar      10 UNK        -0.0863 
     10 C10        16.7158  -30.3693  -42.8426 C.ar      10 UNK        -0.1009 
     11 C11        17.1447  -29.7415  -41.6697 C.ar      10 UNK        -0.0712 
     12 C12        16.9168  -28.3742  -41.4999 C.ar      10 UNK        -0.0894 
     13 C13        16.3177  -27.6151  -42.5107 C.ar      10 UNK        -0.0745 
     14 C14        15.8967  -28.2574  -43.6814 C.ar      10 UNK        -0.0972 
     15 C15        16.0532  -26.1202  -42.3265 C.3       10 UNK         0.0209 
     16 S16        17.3512  -25.2263  -41.3967 S.3       10 UNK        -0.2568 
     17 C17        18.7189  -25.1774  -42.6019 C.3       10 UNK        -0.0983 
     18 CA         19.8086  -26.2569  -42.3387 C.3       3 UNK         0.0876 
     19 N          20.4474  -26.7174  -43.5716 N.am      3 UNK        -0.4424 
     20 C          21.1206  -25.9770  -44.4651 C.2       2 UNK         0.4918 
     21 O          21.3061  -24.7639  -44.3645 O.2       2 UNK        -0.4875 
     22 CA         21.6633  -26.7227  -45.7028 C.3       2 UNK         0.0481 
     23 CB         23.1741  -26.9619  -45.5606 C.3       2 UNK        -0.1831 
     24 N          20.9798  -28.0019  -45.9415 N.am      2 UNK        -0.4498 
     25 C          19.7003  -28.1083  -46.3344 C.2       1 UNK         0.5027 
     26 O          19.0207  -27.1467  -46.6983 O.2       1 UNK        -0.4969 
     27 C          20.8570  -25.8812  -41.2682 C.2       3 UNK         0.5005 
     28 O          22.0023  -26.3317  -41.3532 O.2       3 UNK        -0.5279 
     29 N          20.4381  -25.1191  -40.2464 N.am      4 UNK        -0.4463 
     30 CA         21.2520  -24.5727  -39.1474 C.3       4 UNK         0.0283 
     31 CB         22.1695  -23.4535  -39.6838 C.3       4 UNK        -0.1875 
     32 C          22.0389  -25.6267  -38.3356 C.2       4 UNK         0.4949 
     33 O          23.0794  -25.3004  -37.7626 O.2       4 UNK        -0.5039 
     34 N          21.5351  -26.8706  -38.3155 N.am      5 UNK        -0.4663 
     35 CA         22.1473  -28.0704  -37.7291 C.3       5 UNK         0.0242 
     36 CB         22.2150  -27.9586  -36.1904 C.3       5 UNK        -0.1982 
     37 C          23.5019  -28.4584  -38.3641 C.2       5 UNK         0.5017 
     38 O          24.3290  -29.0796  -37.6930 O.2       5 UNK        -0.5012 
     39 N          23.7077  -28.1052  -39.6430 N.am      6 UNK        -0.4439 
     40 CA         24.8630  -28.5143  -40.4486 C.3       6 UNK         0.0297 
     41 CB         24.8725  -27.6965  -41.7507 C.3       6 UNK        -0.2006 
     42 C          24.8380  -30.0196  -40.7686 C.2       6 UNK         0.4892 
     43 O          23.7917  -30.6591  -40.6453 O.2       6 UNK        -0.5089 
     44 N          25.9757  -30.5544  -41.2334 N.am      7 UNK        -0.4243 
     45 CA         26.1584  -31.9681  -41.5984 C.3       7 UNK         0.0196 
     46 CB         27.6257  -32.2013  -41.9929 C.3       7 UNK        -0.2007 
     47 C          25.2176  -32.4781  -42.7094 C.2       7 UNK         0.5020 
     48 O          24.9230  -33.6723  -42.7501 O.2       7 UNK        -0.5147 
     49 N          24.7434  -31.5679  -43.5706 N.am      8 UNK        -0.4734 
     50 CA         23.7434  -31.8325  -44.6107 C.3       8 UNK         0.0238 
     51 CB         23.9233  -30.7999  -45.7353 C.3       8 UNK        -0.1912 
     52 C          22.2905  -31.8323  -44.0887 C.2       8 UNK         0.5038 
     53 O          21.3785  -32.0858  -44.8767 O.2       8 UNK        -0.5046 
     54 N          22.0910  -31.5246  -42.8027 N.am      9 UNK        -0.4200 
     55 CA         20.8075  -31.5495  -42.0915 C.3       9 UNK         0.0839 
     56 C          20.8499  -32.6179  -40.9630 C.2       9 UNK         0.5513 
     57 N          21.8942  -32.6563  -40.1452 N.am      9 UNK        -0.7519 
     58 O          19.9433  -33.4385  -40.8487 O.2       9 UNK        -0.4960 
     59 C59        20.4041  -30.1060  -41.6492 C.3       10 UNK        -0.0876 
     60 S60        19.4528  -29.8872  -40.1025 S.3       10 UNK        -0.2414 
     61 C61        17.8167  -30.5460  -40.5664 C.3       10 UNK         0.0169 
     62 H62        22.1804  -31.4808  -48.8456 H         1 UNK         0.0903 
     63 H63        21.4151  -32.4878  -47.6123 H         1 UNK         0.0903 
     64 H64        20.7520  -32.4379  -49.2446 H         1 UNK         0.0903 
     65 H65        20.3190  -31.2291  -46.1465 H         1 UNK         0.3096 
     66 H66        19.0440  -29.7272  -45.1727 H         1 UNK         0.1121 
     67 H67        17.5857  -29.5746  -47.8526 H         1 UNK         0.0849 
     68 H68        17.0476  -28.7119  -46.4424 H         1 UNK         0.0849 
     69 H69        14.8746  -29.6768  -45.6549 H         1 UNK         0.0865 
     70 H70        14.8386  -31.1493  -44.7269 H         1 UNK         0.0865 
     71 H71        16.8572  -31.4344  -42.9681 H         1 UNK         0.1346 
     72 H72        17.2175  -27.9026  -40.5747 H         1 UNK         0.1412 
     73 H73        15.3969  -27.6865  -44.4523 H         1 UNK         0.1426 
     74 H74        15.1106  -26.0083  -41.7894 H         1 UNK         0.0716 
     75 H75        15.9134  -25.6330  -43.2928 H         1 UNK         0.0716 
     76 H76        19.1507  -24.1748  -42.6156 H         1 UNK         0.0695 
     77 H77        18.2880  -25.3165  -43.5949 H         1 UNK         0.0695 
     78 H78        19.3161  -27.1451  -41.9454 H         1 UNK         0.0983 
     79 H79        20.3992  -27.7084  -43.7397 H         1 UNK         0.3095 
     80 H80        21.5015  -26.0830  -46.5729 H         1 UNK         0.0454 
     81 H81        23.4072  -27.5597  -44.6800 H         1 UNK         0.0851 
     82 H82        23.7069  -26.0158  -45.4553 H         1 UNK         0.0851 
     83 H83        23.5841  -27.4653  -46.4363 H         1 UNK         0.0851 
     84 H84        21.4848  -28.8457  -45.7148 H         1 UNK         0.2976 
     85 H85        19.4626  -24.8448  -40.2482 H         1 UNK         0.3116 
     86 H86        20.5507  -24.1180  -38.4464 H         1 UNK         0.0646 
     87 H87        22.9352  -23.8487  -40.3526 H         1 UNK         0.0847 
     88 H88        22.6819  -22.9381  -38.8705 H         1 UNK         0.0847 
     89 H89        21.6016  -22.7019  -40.2319 H         1 UNK         0.0847 
     90 H90        20.6755  -27.0266  -38.8232 H         1 UNK         0.3040 
     91 H91        21.4740  -28.8964  -37.9635 H         1 UNK         0.1015 
     92 H92        22.9325  -27.2029  -35.8695 H         1 UNK         0.0786 
     93 H93        22.5195  -28.9051  -35.7420 H         1 UNK         0.0786 
     94 H94        21.2438  -27.7011  -35.7680 H         1 UNK         0.0786 
     95 H95        22.9930  -27.5666  -40.1244 H         1 UNK         0.3172 
     96 H96        25.7711  -28.2943  -39.8838 H         1 UNK         0.0595 
     97 H97        25.7548  -27.9125  -42.3541 H         1 UNK         0.0839 
     98 H98        24.8781  -26.6256  -41.5458 H         1 UNK         0.0839 
     99 H99        23.9955  -27.9112  -42.3621 H         1 UNK         0.0839 
    100 H100       26.7885  -29.9605  -41.3188 H         1 UNK         0.2998 
    101 H101       25.9462  -32.5617  -40.7065 H         1 UNK         0.0822 
    102 H102       27.8016  -33.2488  -42.2429 H         1 UNK         0.0787 
    103 H103       27.9093  -31.6070  -42.8625 H         1 UNK         0.0787 
    104 H104       28.3025  -31.9486  -41.1764 H         1 UNK         0.0787 
    105 H105       25.0522  -30.6124  -43.4663 H         1 UNK         0.3055 
    106 H106       23.9241  -32.8250  -45.0301 H         1 UNK         0.1106 
    107 H107       23.2144  -30.9662  -46.5457 H         1 UNK         0.0828 
    108 H108       23.7761  -29.7843  -45.3735 H         1 UNK         0.0828 
    109 H109       24.9217  -30.8585  -46.1691 H         1 UNK         0.0828 
    110 H110       22.8962  -31.3435  -42.2121 H         1 UNK         0.2931 
    111 H111       20.0261  -31.8877  -42.7755 H         1 UNK         0.0412 
    112 H112       22.6292  -31.9561  -40.2192 H         1 UNK         0.3472 
    113 H113       21.9320  -33.3543  -39.4203 H         1 UNK         0.3472 
    114 H114       19.8635  -29.6214  -42.4619 H         1 UNK         0.0970 
    115 H115       21.3044  -29.5042  -41.5099 H         1 UNK         0.0970 
    116 H116       17.9208  -31.5919  -40.8567 H         1 UNK         0.0612 
    117 H117       17.1748  -30.5358  -39.6847 H         1 UNK         0.0612 
@<TRIPOS>BOND
     1    1    2 1    
     2    1   62 1    
     3    1   63 1    
     4    1   64 1    
     5    2    3 2    
     6    2    4 am   BACKBONE|DICT|INTERRES
     7    4    5 1    
     8    4   65 1    
     9    5    6 1    
    10    5   25 1    
    11    5   66 1    
    12    6    7 1    
    13    6   67 1    
    14    6   68 1    
    15    7    8 1    
    16    8    9 1    
    17    8   69 1    
    18    8   70 1    
    19    9   10 ar   
    20    9   14 ar   
    21   10   11 ar   
    22   10   71 1    
    23   11   12 ar   
    24   11   61 1    
    25   12   13 ar   
    26   12   72 1    
    27   13   14 ar   
    28   13   15 1    
    29   14   73 1    
    30   15   16 1    
    31   15   74 1    
    32   15   75 1    
    33   16   17 1    
    34   17   18 1    
    35   17   76 1    
    36   17   77 1    
    37   18   19 1    
    38   18   27 1    
    39   18   78 1    
    40   19   20 am   BACKBONE|DICT|INTERRES
    41   19   79 1    
    42   20   21 2    
    43   20   22 1    
    44   22   23 1    
    45   22   24 1    
    46   22   80 1    
    47   23   81 1    
    48   23   82 1    
    49   23   83 1    
    50   24   25 am   BACKBONE|DICT|INTERRES
    51   24   84 1    
    52   25   26 2    
    53   27   28 2    
    54   27   29 am   BACKBONE|DICT|INTERRES
    55   29   30 1    
    56   29   85 1    
    57   30   31 1    
    58   30   32 1    
    59   30   86 1    
    60   31   87 1    
    61   31   88 1    
    62   31   89 1    
    63   32   33 2    
    64   32   34 am   BACKBONE|DICT|INTERRES
    65   34   35 1    
    66   34   90 1    
    67   35   36 1    
    68   35   37 1    
    69   35   91 1    
    70   36   92 1    
    71   36   93 1    
    72   36   94 1    
    73   37   38 2    
    74   37   39 am   BACKBONE|DICT|INTERRES
    75   39   40 1    
    76   39   95 1    
    77   40   41 1    
    78   40   42 1    
    79   40   96 1    
    80   41   97 1    
    81   41   98 1    
    82   41   99 1    
    83   42   43 2    
    84   42   44 am   BACKBONE|DICT|INTERRES
    85   44   45 1    
    86   44  100 1    
    87   45   46 1    
    88   45   47 1    
    89   45  101 1    
    90   46  102 1    
    91   46  103 1    
    92   46  104 1    
    93   47   48 2    
    94   47   49 am   BACKBONE|DICT|INTERRES
    95   49   50 1    
    96   49  105 1    
    97   50   51 1    
    98   50   52 1    
    99   50  106 1    
   100   51  107 1    
   101   51  108 1    
   102   51  109 1    
   103   52   53 2    
   104   52   54 am   BACKBONE|DICT|INTERRES
   105   54   55 1    
   106   54  110 1    
   107   55   56 1    
   108   55   59 1    
   109   55  111 1    
   110   56   57 am   BACKBONE|DICT|INTERRES
   111   56   58 2    
   112   57  112 1    
   113   57  113 1    
   114   59   60 1    
   115   59  114 1    
   116   59  115 1    
   117   60   61 1    
   118   61  116 1    
   119   61  117 1    
@<TRIPOS>SUBSTRUCTURE
     1 UNK         1 GROUP             0       ****    0 ROOT    
