@<TRIPOS>MOLECULE
3R8
117   119    1
SMALL
USER_CHARGES


@<TRIPOS>ATOM
      1 CA         23.0813  -28.6746  -47.6127 C.3       0 UNK        -0.2013 
      2 C          21.7434  -27.9627  -47.4782 C.2       0 UNK         0.4866 
      3 O          21.5204  -26.9525  -48.1448 O.2       0 UNK        -0.5176 
      4 N          20.8612  -28.4814  -46.6117 N.am      1 UNK        -0.4884 
      5 CA         19.5016  -27.9829  -46.3395 C.3       1 UNK         0.0853 
      6 C6         18.5190  -28.1680  -47.5261 C.3       10 UNK        -0.0849 
      7 S7         18.2484  -29.9367  -47.8780 S.3       10 UNK        -0.2776 
      8 C8         16.6135  -30.2159  -47.1185 C.3       10 UNK         0.0316 
      9 C9         16.6233  -30.0591  -45.6008 C.ar      10 UNK        -0.0863 
     10 C10        17.2685  -31.0074  -44.8002 C.ar      10 UNK        -0.1009 
     11 C11        17.2257  -30.9069  -43.4060 C.ar      10 UNK        -0.0712 
     12 C12        16.5180  -29.8588  -42.8124 C.ar      10 UNK        -0.0894 
     13 C13        15.8977  -28.8850  -43.5981 C.ar      10 UNK        -0.0745 
     14 C14        15.9524  -28.9912  -44.9927 C.ar      10 UNK        -0.0972 
     15 C15        15.1444  -27.7355  -42.9416 C.3       10 UNK         0.0209 
     16 S16        16.1514  -26.2198  -42.8582 S.3       10 UNK        -0.2568 
     17 C17        17.0897  -26.4142  -41.2983 C.3       10 UNK        -0.0983 
     18 CA         18.4591  -27.1234  -41.4801 C.3       3 UNK         0.0876 
     19 N          19.2936  -26.5853  -42.5552 N.am      3 UNK        -0.4424 
     20 C          19.7325  -25.3314  -42.7454 C.2       2 UNK         0.4918 
     21 O          19.5305  -24.3927  -41.9761 O.2       2 UNK        -0.4875 
     22 CA         20.5397  -25.0805  -44.0388 C.3       2 UNK         0.0481 
     23 CB         21.9974  -24.7183  -43.7121 C.3       2 UNK        -0.1831 
     24 N          20.5148  -26.2354  -44.9468 N.am      2 UNK        -0.4498 
     25 C          19.4775  -26.5607  -45.7347 C.2       1 UNK         0.5027 
     26 O          18.5128  -25.8189  -45.9245 O.2       1 UNK        -0.4969 
     27 C          19.2743  -27.2259  -40.1790 C.2       3 UNK         0.5005 
     28 O          19.4170  -26.2404  -39.4542 O.2       3 UNK        -0.5279 
     29 N          19.8616  -28.4110  -39.9503 N.am      4 UNK        -0.4463 
     30 CA         20.7748  -28.8046  -38.8645 C.3       4 UNK         0.0283 
     31 CB         20.1240  -28.6319  -37.4787 C.3       4 UNK        -0.1875 
     32 C          22.1618  -28.1361  -38.9132 C.2       4 UNK         0.4949 
     33 O          23.1465  -28.7831  -38.5615 O.2       4 UNK        -0.5039 
     34 N          22.2289  -26.8774  -39.3659 N.am      5 UNK        -0.4663 
     35 CA         23.4523  -26.0812  -39.5045 C.3       5 UNK         0.0242 
     36 CB         23.0701  -24.6275  -39.8240 C.3       5 UNK        -0.1982 
     37 C          24.4405  -26.6250  -40.5521 C.2       5 UNK         0.5017 
     38 O          25.6453  -26.4124  -40.4100 O.2       5 UNK        -0.5012 
     39 N          23.9322  -27.3427  -41.5644 N.am      6 UNK        -0.4439 
     40 CA         24.7183  -28.0254  -42.5976 C.3       6 UNK         0.0297 
     41 CB         23.8634  -28.1878  -43.8707 C.3       6 UNK        -0.2006 
     42 C          25.2611  -29.3699  -42.0770 C.2       6 UNK         0.4892 
     43 O          24.9109  -30.4225  -42.6168 O.2       6 UNK        -0.5089 
     44 N          26.0638  -29.3069  -41.0045 N.am      7 UNK        -0.4243 
     45 CA         26.6535  -30.4000  -40.2166 C.3       7 UNK         0.0196 
     46 CB         27.6312  -31.2437  -41.0599 C.3       7 UNK        -0.2007 
     47 C          25.6084  -31.2797  -39.5057 C.2       7 UNK         0.5020 
     48 O          25.6042  -31.3500  -38.2767 O.2       7 UNK        -0.5147 
     49 N          24.7478  -31.9267  -40.2951 N.am      8 UNK        -0.4734 
     50 CA         23.6127  -32.7393  -39.8580 C.3       8 UNK         0.0238 
     51 CB         24.0943  -34.1687  -39.5402 C.3       8 UNK        -0.1912 
     52 C          22.4576  -32.7451  -40.8796 C.2       8 UNK         0.5038 
     53 O          21.4793  -33.4521  -40.6414 O.2       8 UNK        -0.5046 
     54 N          22.5942  -32.0010  -41.9920 N.am      9 UNK        -0.4200 
     55 CA         21.6752  -31.8756  -43.1418 C.3       9 UNK         0.0839 
     56 C          21.2381  -33.1849  -43.8692 C.2       9 UNK         0.5513 
     57 N          21.8346  -34.3364  -43.5899 N.am      9 UNK        -0.7519 
     58 O          20.3837  -33.1477  -44.7504 O.2       9 UNK        -0.4960 
     59 C59        20.5284  -30.8413  -42.9315 C.3       10 UNK        -0.0876 
     60 S60        19.3252  -31.2223  -41.6122 S.3       10 UNK        -0.2414 
     61 C61        17.9266  -31.9382  -42.5346 C.3       10 UNK         0.0169 
     62 H62        23.2353  -28.9898  -48.6444 H         1 UNK         0.0903 
     63 H63        23.8933  -28.0021  -47.3373 H         1 UNK         0.0903 
     64 H64        23.1419  -29.5578  -46.9769 H         1 UNK         0.0903 
     65 H65        21.1049  -29.3361  -46.1316 H         1 UNK         0.3096 
     66 H66        19.1242  -28.6074  -45.5281 H         1 UNK         0.1121 
     67 H67        18.8980  -27.6787  -48.4244 H         1 UNK         0.0849 
     68 H68        17.5509  -27.7080  -47.3206 H         1 UNK         0.0849 
     69 H69        15.8850  -29.5437  -47.5748 H         1 UNK         0.0865 
     70 H70        16.2833  -31.2259  -47.3658 H         1 UNK         0.0865 
     71 H71        17.7990  -31.8282  -45.2650 H         1 UNK         0.1346 
     72 H72        16.4662  -29.7945  -41.7340 H         1 UNK         0.1412 
     73 H73        15.4570  -28.2474  -45.6023 H         1 UNK         0.1426 
     74 H74        14.7997  -28.0126  -41.9443 H         1 UNK         0.0716 
     75 H75        14.2447  -27.5208  -43.5201 H         1 UNK         0.0716 
     76 H76        16.4753  -26.9540  -40.5759 H         1 UNK         0.0695 
     77 H77        17.2329  -25.4163  -40.8802 H         1 UNK         0.0695 
     78 H78        18.2381  -28.1431  -41.7873 H         1 UNK         0.0983 
     79 H79        19.5343  -27.2511  -43.2707 H         1 UNK         0.3095 
     80 H80        20.0879  -24.2264  -44.5476 H         1 UNK         0.0454 
     81 H81        22.4858  -25.4911  -43.1211 H         1 UNK         0.0851 
     82 H82        22.0456  -23.7933  -43.1361 H         1 UNK         0.0851 
     83 H83        22.5834  -24.5623  -44.6179 H         1 UNK         0.0851 
     84 H84        21.2949  -26.8740  -44.9018 H         1 UNK         0.2976 
     85 H85        19.6799  -29.1569  -40.6115 H         1 UNK         0.3116 
     86 H86        20.9477  -29.8727  -39.0089 H         1 UNK         0.0646 
     87 H87        19.9458  -27.5839  -37.2364 H         1 UNK         0.0847 
     88 H88        20.7666  -29.0374  -36.6961 H         1 UNK         0.0847 
     89 H89        19.1711  -29.1575  -37.4193 H         1 UNK         0.0847 
     90 H90        21.3453  -26.4111  -39.5547 H         1 UNK         0.3040 
     91 H91        23.9686  -26.0964  -38.5420 H         1 UNK         0.1015 
     92 H92        22.4864  -24.5544  -40.7417 H         1 UNK         0.0786 
     93 H93        23.9576  -24.0051  -39.9482 H         1 UNK         0.0786 
     94 H94        22.4791  -24.1891  -39.0195 H         1 UNK         0.0786 
     95 H95        22.9383  -27.5132  -41.5560 H         1 UNK         0.3172 
     96 H96        25.5815  -27.4091  -42.8580 H         1 UNK         0.0595 
     97 H97        24.4128  -28.7328  -44.6398 H         1 UNK         0.0839 
     98 H98        23.6019  -27.2217  -44.2994 H         1 UNK         0.0839 
     99 H99        22.9439  -28.7393  -43.6774 H         1 UNK         0.0839 
    100 H100       26.2250  -28.3766  -40.6312 H         1 UNK         0.2998 
    101 H101       27.2374  -29.9158  -39.4319 H         1 UNK         0.0822 
    102 H102       28.1025  -32.0157  -40.4502 H         1 UNK         0.0787 
    103 H103       27.1364  -31.7461  -41.8913 H         1 UNK         0.0787 
    104 H104       28.4288  -30.6260  -41.4725 H         1 UNK         0.0787 
    105 H105       24.8523  -31.7655  -41.2920 H         1 UNK         0.3055 
    106 H106       23.2029  -32.2986  -38.9460 H         1 UNK         0.1106 
    107 H107       23.2735  -34.7936  -39.1857 H         1 UNK         0.0828 
    108 H108       24.5193  -34.6532  -40.4197 H         1 UNK         0.0828 
    109 H109       24.8543  -34.1677  -38.7587 H         1 UNK         0.0828 
    110 H110       23.4419  -31.4564  -42.1060 H         1 UNK         0.2931 
    111 H111       22.3195  -31.4152  -43.8922 H         1 UNK         0.0412 
    112 H112       22.5235  -34.3883  -42.8574 H         1 UNK         0.3472 
    113 H113       21.5558  -35.1692  -44.0843 H         1 UNK         0.3472 
    114 H114       19.9971  -30.6695  -43.8684 H         1 UNK         0.0970 
    115 H115       20.9726  -29.8780  -42.6815 H         1 UNK         0.0970 
    116 H116       18.2743  -32.7847  -43.1270 H         1 UNK         0.0612 
    117 H117       17.2096  -32.3433  -41.8193 H         1 UNK         0.0612 
@<TRIPOS>BOND
     1    1    2 1    
     2    1   62 1    
     3    1   63 1    
     4    1   64 1    
     5    2    3 2    
     6    2    4 am   BACKBONE|DICT|INTERRES
     7    4    5 1    
     8    4   65 1    
     9    5    6 1    
    10    5   25 1    
    11    5   66 1    
    12    6    7 1    
    13    6   67 1    
    14    6   68 1    
    15    7    8 1    
    16    8    9 1    
    17    8   69 1    
    18    8   70 1    
    19    9   10 ar   
    20    9   14 ar   
    21   10   11 ar   
    22   10   71 1    
    23   11   12 ar   
    24   11   61 1    
    25   12   13 ar   
    26   12   72 1    
    27   13   14 ar   
    28   13   15 1    
    29   14   73 1    
    30   15   16 1    
    31   15   74 1    
    32   15   75 1    
    33   16   17 1    
    34   17   18 1    
    35   17   76 1    
    36   17   77 1    
    37   18   19 1    
    38   18   27 1    
    39   18   78 1    
    40   19   20 am   BACKBONE|DICT|INTERRES
    41   19   79 1    
    42   20   21 2    
    43   20   22 1    
    44   22   23 1    
    45   22   24 1    
    46   22   80 1    
    47   23   81 1    
    48   23   82 1    
    49   23   83 1    
    50   24   25 am   BACKBONE|DICT|INTERRES
    51   24   84 1    
    52   25   26 2    
    53   27   28 2    
    54   27   29 am   BACKBONE|DICT|INTERRES
    55   29   30 1    
    56   29   85 1    
    57   30   31 1    
    58   30   32 1    
    59   30   86 1    
    60   31   87 1    
    61   31   88 1    
    62   31   89 1    
    63   32   33 2    
    64   32   34 am   BACKBONE|DICT|INTERRES
    65   34   35 1    
    66   34   90 1    
    67   35   36 1    
    68   35   37 1    
    69   35   91 1    
    70   36   92 1    
    71   36   93 1    
    72   36   94 1    
    73   37   38 2    
    74   37   39 am   BACKBONE|DICT|INTERRES
    75   39   40 1    
    76   39   95 1    
    77   40   41 1    
    78   40   42 1    
    79   40   96 1    
    80   41   97 1    
    81   41   98 1    
    82   41   99 1    
    83   42   43 2    
    84   42   44 am   BACKBONE|DICT|INTERRES
    85   44   45 1    
    86   44  100 1    
    87   45   46 1    
    88   45   47 1    
    89   45  101 1    
    90   46  102 1    
    91   46  103 1    
    92   46  104 1    
    93   47   48 2    
    94   47   49 am   BACKBONE|DICT|INTERRES
    95   49   50 1    
    96   49  105 1    
    97   50   51 1    
    98   50   52 1    
    99   50  106 1    
   100   51  107 1    
   101   51  108 1    
   102   51  109 1    
   103   52   53 2    
   104   52   54 am   BACKBONE|DICT|INTERRES
   105   54   55 1    
   106   54  110 1    
   107   55   56 1    
   108   55   59 1    
   109   55  111 1    
   110   56   57 am   BACKBONE|DICT|INTERRES
   111   56   58 2    
   112   57  112 1    
   113   57  113 1    
   114   59   60 1    
   115   59  114 1    
   116   59  115 1    
   117   60   61 1    
   118   61  116 1    
   119   61  117 1    
@<TRIPOS>SUBSTRUCTURE
     1 UNK         1 GROUP             0       ****    0 ROOT    
