@<TRIPOS>MOLECULE
3R8
117   119    1
SMALL
USER_CHARGES


@<TRIPOS>ATOM
      1 CA         19.1306  -26.2031  -39.6966 C.3       0 UNK        -0.2013 
      2 C          19.0904  -26.4426  -41.1982 C.2       0 UNK         0.4866 
      3 O          20.1151  -26.8044  -41.7802 O.2       0 UNK        -0.5176 
      4 N          17.9189  -26.2373  -41.8197 N.am      1 UNK        -0.4884 
      5 CA         17.6509  -26.3862  -43.2582 C.3       1 UNK         0.0853 
      6 C6         17.9227  -27.8411  -43.7467 C.3       10 UNK        -0.0849 
      7 S7         16.9953  -28.2998  -45.2527 S.3       10 UNK        -0.2776 
      8 C8         16.8381  -30.1093  -45.0616 C.3       10 UNK         0.0316 
      9 C9         18.1575  -30.8798  -44.9696 C.ar      10 UNK        -0.0863 
     10 C10        18.1614  -32.1130  -44.3116 C.ar      10 UNK        -0.1009 
     11 C11        19.3335  -32.8707  -44.2037 C.ar      10 UNK        -0.0712 
     12 C12        20.5090  -32.3764  -44.7775 C.ar      10 UNK        -0.0894 
     13 C13        20.5343  -31.1483  -45.4456 C.ar      10 UNK        -0.0745 
     14 C14        19.3456  -30.4133  -45.5488 C.ar      10 UNK        -0.0972 
     15 C15        21.8603  -30.6933  -46.0646 C.3       10 UNK         0.0209 
     16 S16        21.9252  -28.9735  -46.6778 S.3       10 UNK        -0.2568 
     17 C17        22.3397  -28.0389  -45.1664 C.3       10 UNK        -0.0983 
     18 CA         22.2779  -26.5108  -45.4163 C.3       3 UNK         0.0876 
     19 N          20.9208  -26.0941  -45.7713 N.am      3 UNK        -0.4424 
     20 C          20.5612  -24.9427  -46.3536 C.2       2 UNK         0.4918 
     21 O          21.3576  -24.1070  -46.7796 O.2       2 UNK        -0.4875 
     22 CA         19.0461  -24.6634  -46.4259 C.3       2 UNK         0.0481 
     23 CB         18.5109  -24.9712  -47.8329 C.3       2 UNK        -0.1831 
     24 N          18.2760  -25.4311  -45.4378 N.am      2 UNK        -0.4498 
     25 C          18.3823  -25.3132  -44.1063 C.2       1 UNK         0.5027 
     26 O          19.0541  -24.4282  -43.5688 O.2       1 UNK        -0.4969 
     27 C          22.8636  -25.7120  -44.2260 C.2       3 UNK         0.5005 
     28 O          24.0539  -25.8585  -43.9505 O.2       3 UNK        -0.5279 
     29 N          22.0531  -24.8772  -43.5516 N.am      4 UNK        -0.4463 
     30 CA         22.4384  -23.9072  -42.5187 C.3       4 UNK         0.0283 
     31 CB         23.2532  -22.7552  -43.1436 C.3       4 UNK        -0.1875 
     32 C          23.1408  -24.5507  -41.3096 C.2       4 UNK         0.4949 
     33 O          24.2018  -24.0888  -40.8878 O.2       4 UNK        -0.5039 
     34 N          22.5289  -25.6241  -40.7927 N.am      5 UNK        -0.4663 
     35 CA         22.9521  -26.4340  -39.6433 C.3       5 UNK         0.0242 
     36 CB         23.1157  -25.5835  -38.3652 C.3       5 UNK        -0.1982 
     37 C          24.1651  -27.3450  -39.9105 C.2       5 UNK         0.5017 
     38 O          24.6266  -28.0045  -38.9786 O.2       5 UNK        -0.5012 
     39 N          24.6182  -27.4397  -41.1712 N.am      6 UNK        -0.4439 
     40 CA         25.5370  -28.4897  -41.6316 C.3       6 UNK         0.0297 
     41 CB         26.2536  -28.0293  -42.9111 C.3       6 UNK        -0.2006 
     42 C          24.8164  -29.8341  -41.8672 C.2       6 UNK         0.4892 
     43 O          25.4852  -30.8495  -42.0628 O.2       6 UNK        -0.5089 
     44 N          23.4752  -29.8147  -41.8551 N.am      7 UNK        -0.4243 
     45 CA         22.5914  -30.9730  -41.9461 C.3       7 UNK         0.0196 
     46 CB         21.1357  -30.4723  -41.9775 C.3       7 UNK        -0.2007 
     47 C          22.7710  -31.9385  -40.7635 C.2       7 UNK         0.5020 
     48 O          22.8546  -31.4931  -39.6175 O.2       7 UNK        -0.5147 
     49 N          22.7499  -33.2451  -41.0562 N.am      8 UNK        -0.4734 
     50 CA         22.6641  -34.3097  -40.0471 C.3       8 UNK         0.0238 
     51 CB         23.1464  -35.6314  -40.6677 C.3       8 UNK        -0.1912 
     52 C          21.2389  -34.4703  -39.4808 C.2       8 UNK         0.5038 
     53 O          21.0735  -35.0406  -38.4021 O.2       8 UNK        -0.5046 
     54 N          20.2473  -33.9762  -40.2315 N.am      9 UNK        -0.4200 
     55 CA         18.8238  -33.9220  -39.8896 C.3       9 UNK         0.0839 
     56 C          18.5558  -33.0018  -38.6686 C.2       9 UNK         0.5513 
     57 N          17.6890  -33.4177  -37.7558 N.am      9 UNK        -0.7519 
     58 O          19.0887  -31.8988  -38.5701 O.2       9 UNK        -0.4960 
     59 C59        17.9954  -33.4559  -41.1151 C.3       10 UNK        -0.0876 
     60 S60        17.9557  -34.6898  -42.4624 S.3       10 UNK        -0.2414 
     61 C61        19.3841  -34.2371  -43.5144 C.3       10 UNK         0.0169 
     62 H62        19.4805  -27.0988  -39.1842 H         1 UNK         0.0903 
     63 H63        18.1494  -25.9472  -39.2973 H         1 UNK         0.0903 
     64 H64        19.8142  -25.3870  -39.4645 H         1 UNK         0.0903 
     65 H65        17.1345  -25.9043  -41.2759 H         1 UNK         0.3096 
     66 H66        16.5850  -26.1820  -43.3734 H         1 UNK         0.1121 
     67 H67        18.9882  -28.0123  -43.9092 H         1 UNK         0.0849 
     68 H68        17.6341  -28.5446  -42.9636 H         1 UNK         0.0849 
     69 H69        16.2313  -30.3043  -44.1757 H         1 UNK         0.0865 
     70 H70        16.2733  -30.4972  -45.9103 H         1 UNK         0.0865 
     71 H71        17.2364  -32.4823  -43.8926 H         1 UNK         0.1346 
     72 H72        21.4165  -32.9614  -44.7132 H         1 UNK         0.1412 
     73 H73        19.3376  -29.4785  -46.0881 H         1 UNK         0.1426 
     74 H74        22.6691  -30.8367  -45.3464 H         1 UNK         0.0716 
     75 H75        22.0789  -31.3523  -46.9058 H         1 UNK         0.0716 
     76 H76        23.3380  -28.3453  -44.8484 H         1 UNK         0.0695 
     77 H77        21.6554  -28.3229  -44.3667 H         1 UNK         0.0695 
     78 H78        22.9231  -26.2832  -46.2679 H         1 UNK         0.0983 
     79 H79        20.1867  -26.7270  -45.4953 H         1 UNK         0.3095 
     80 H80        18.8944  -23.6015  -46.2222 H         1 UNK         0.0454 
     81 H81        17.4553  -24.7144  -47.9216 H         1 UNK         0.0851 
     82 H82        18.6232  -26.0261  -48.0869 H         1 UNK         0.0851 
     83 H83        19.0469  -24.3954  -48.5888 H         1 UNK         0.0851 
     84 H84        17.7035  -26.1868  -45.7959 H         1 UNK         0.2976 
     85 H85        21.0669  -24.8670  -43.7903 H         1 UNK         0.3116 
     86 H86        21.5075  -23.4829  -42.1391 H         1 UNK         0.0646 
     87 H87        22.7153  -22.2928  -43.9713 H         1 UNK         0.0847 
     88 H88        23.4519  -21.9733  -42.4097 H         1 UNK         0.0847 
     89 H89        24.2168  -23.0996  -43.5208 H         1 UNK         0.0847 
     90 H90        21.6792  -25.9494  -41.2541 H         1 UNK         0.3040 
     91 H91        22.1232  -27.1200  -39.4612 H         1 UNK         0.1015 
     92 H92        23.9881  -24.9318  -38.4166 H         1 UNK         0.0786 
     93 H93        23.2428  -26.2190  -37.4879 H         1 UNK         0.0786 
     94 H94        22.2392  -24.9608  -38.1866 H         1 UNK         0.0786 
     95 H95        24.2374  -26.8215  -41.8787 H         1 UNK         0.3172 
     96 H96        26.2963  -28.6524  -40.8639 H         1 UNK         0.0595 
     97 H97        26.7166  -27.0509  -42.7816 H         1 UNK         0.0839 
     98 H98        25.5720  -27.9700  -43.7594 H         1 UNK         0.0839 
     99 H99        27.0444  -28.7291  -43.1844 H         1 UNK         0.0839 
    100 H100       23.0275  -28.9317  -41.6662 H         1 UNK         0.2998 
    101 H101       22.8138  -31.4949  -42.8785 H         1 UNK         0.0822 
    102 H102       20.4331  -31.3036  -42.0214 H         1 UNK         0.0787 
    103 H103       20.8879  -29.8913  -41.0878 H         1 UNK         0.0787 
    104 H104       20.9400  -29.8462  -42.8459 H         1 UNK         0.0787 
    105 H105       22.7292  -33.5340  -42.0240 H         1 UNK         0.3055 
    106 H106       23.3222  -34.0603  -39.2112 H         1 UNK         0.1106 
    107 H107       24.1737  -35.5514  -41.0238 H         1 UNK         0.0828 
    108 H108       23.1228  -36.4378  -39.9332 H         1 UNK         0.0828 
    109 H109       22.5211  -35.9383  -41.5072 H         1 UNK         0.0828 
    110 H110       20.5059  -33.5053  -41.0822 H         1 UNK         0.2931 
    111 H111       18.5143  -34.9360  -39.6272 H         1 UNK         0.0412 
    112 H112       17.2391  -34.3170  -37.8352 H         1 UNK         0.3472 
    113 H113       17.4886  -32.8261  -36.9641 H         1 UNK         0.3472 
    114 H114       16.9572  -33.2855  -40.8230 H         1 UNK         0.0970 
    115 H115       18.3556  -32.4965  -41.4892 H         1 UNK         0.0970 
    116 H116       20.2954  -34.3151  -42.9224 H         1 UNK         0.0612 
    117 H117       19.4692  -34.9968  -44.2924 H         1 UNK         0.0612 
@<TRIPOS>BOND
     1    1    2 1    
     2    1   62 1    
     3    1   63 1    
     4    1   64 1    
     5    2    3 2    
     6    2    4 am   BACKBONE|DICT|INTERRES
     7    4    5 1    
     8    4   65 1    
     9    5    6 1    
    10    5   25 1    
    11    5   66 1    
    12    6    7 1    
    13    6   67 1    
    14    6   68 1    
    15    7    8 1    
    16    8    9 1    
    17    8   69 1    
    18    8   70 1    
    19    9   10 ar   
    20    9   14 ar   
    21   10   11 ar   
    22   10   71 1    
    23   11   12 ar   
    24   11   61 1    
    25   12   13 ar   
    26   12   72 1    
    27   13   14 ar   
    28   13   15 1    
    29   14   73 1    
    30   15   16 1    
    31   15   74 1    
    32   15   75 1    
    33   16   17 1    
    34   17   18 1    
    35   17   76 1    
    36   17   77 1    
    37   18   19 1    
    38   18   27 1    
    39   18   78 1    
    40   19   20 am   BACKBONE|DICT|INTERRES
    41   19   79 1    
    42   20   21 2    
    43   20   22 1    
    44   22   23 1    
    45   22   24 1    
    46   22   80 1    
    47   23   81 1    
    48   23   82 1    
    49   23   83 1    
    50   24   25 am   BACKBONE|DICT|INTERRES
    51   24   84 1    
    52   25   26 2    
    53   27   28 2    
    54   27   29 am   BACKBONE|DICT|INTERRES
    55   29   30 1    
    56   29   85 1    
    57   30   31 1    
    58   30   32 1    
    59   30   86 1    
    60   31   87 1    
    61   31   88 1    
    62   31   89 1    
    63   32   33 2    
    64   32   34 am   BACKBONE|DICT|INTERRES
    65   34   35 1    
    66   34   90 1    
    67   35   36 1    
    68   35   37 1    
    69   35   91 1    
    70   36   92 1    
    71   36   93 1    
    72   36   94 1    
    73   37   38 2    
    74   37   39 am   BACKBONE|DICT|INTERRES
    75   39   40 1    
    76   39   95 1    
    77   40   41 1    
    78   40   42 1    
    79   40   96 1    
    80   41   97 1    
    81   41   98 1    
    82   41   99 1    
    83   42   43 2    
    84   42   44 am   BACKBONE|DICT|INTERRES
    85   44   45 1    
    86   44  100 1    
    87   45   46 1    
    88   45   47 1    
    89   45  101 1    
    90   46  102 1    
    91   46  103 1    
    92   46  104 1    
    93   47   48 2    
    94   47   49 am   BACKBONE|DICT|INTERRES
    95   49   50 1    
    96   49  105 1    
    97   50   51 1    
    98   50   52 1    
    99   50  106 1    
   100   51  107 1    
   101   51  108 1    
   102   51  109 1    
   103   52   53 2    
   104   52   54 am   BACKBONE|DICT|INTERRES
   105   54   55 1    
   106   54  110 1    
   107   55   56 1    
   108   55   59 1    
   109   55  111 1    
   110   56   57 am   BACKBONE|DICT|INTERRES
   111   56   58 2    
   112   57  112 1    
   113   57  113 1    
   114   59   60 1    
   115   59  114 1    
   116   59  115 1    
   117   60   61 1    
   118   61  116 1    
   119   61  117 1    
@<TRIPOS>SUBSTRUCTURE
     1 UNK         1 GROUP             0       ****    0 ROOT    
