@<TRIPOS>MOLECULE
3R8
117   119    1
SMALL
USER_CHARGES


@<TRIPOS>ATOM
      1 CA         15.6805  -24.7154  -47.5864 C.3       0 UNK        -0.2013 
      2 C          17.1756  -24.9038  -47.7943 C.2       0 UNK         0.4866 
      3 O          17.8325  -24.0271  -48.3554 O.2       0 UNK        -0.5176 
      4 N          17.7213  -26.0391  -47.3390 N.am      1 UNK        -0.4884 
      5 CA         19.1442  -26.3924  -47.4550 C.3       1 UNK         0.0853 
      6 C6         19.3294  -27.9356  -47.5074 C.3       10 UNK        -0.0849 
      7 S7         19.1472  -28.7796  -45.8954 S.3       10 UNK        -0.2776 
      8 C8         17.5361  -29.6024  -46.0280 C.3       10 UNK         0.0316 
      9 C9         17.1387  -30.1426  -44.6645 C.ar      10 UNK        -0.0863 
     10 C10        17.6983  -31.3354  -44.1948 C.ar      10 UNK        -0.1009 
     11 C11        17.3863  -31.8069  -42.9171 C.ar      10 UNK        -0.0712 
     12 C12        16.4910  -31.0914  -42.1190 C.ar      10 UNK        -0.0894 
     13 C13        15.9213  -29.9023  -42.5797 C.ar      10 UNK        -0.0745 
     14 C14        16.2476  -29.4306  -43.8546 C.ar      10 UNK        -0.0972 
     15 C15        14.9634  -29.1318  -41.6855 C.3       10 UNK         0.0209 
     16 S16        15.8509  -28.2757  -40.3468 S.3       10 UNK        -0.2568 
     17 C17        16.6008  -26.8682  -41.2336 C.3       10 UNK        -0.0983 
     18 CA         18.0880  -27.0751  -41.6213 C.3       3 UNK         0.0876 
     19 N          18.5309  -25.9892  -42.4976 N.am      3 UNK        -0.4424 
     20 C          19.7135  -25.8971  -43.1181 C.2       2 UNK         0.4918 
     21 O          20.6104  -26.7364  -43.0263 O.2       2 UNK        -0.4875 
     22 CA         19.8603  -24.6867  -44.0559 C.3       2 UNK         0.0481 
     23 CB         21.2733  -24.0669  -44.0568 C.3       2 UNK        -0.1831 
     24 N          19.3826  -25.0722  -45.3879 N.am      2 UNK        -0.4498 
     25 C          20.0268  -25.7359  -46.3628 C.2       1 UNK         0.5027 
     26 O          21.2485  -25.8817  -46.4222 O.2       1 UNK        -0.4969 
     27 C          19.0024  -27.2126  -40.3845 C.2       3 UNK         0.5005 
     28 O          19.0902  -26.2727  -39.5902 O.2       3 UNK        -0.5279 
     29 N          19.6538  -28.3795  -40.2578 N.am      4 UNK        -0.4463 
     30 CA         20.5545  -28.7935  -39.1737 C.3       4 UNK         0.0283 
     31 CB         19.7610  -28.9994  -37.8665 C.3       4 UNK        -0.1875 
     32 C          21.7795  -27.8729  -38.9898 C.2       4 UNK         0.4949 
     33 O          22.2613  -27.7118  -37.8673 O.2       4 UNK        -0.5039 
     34 N          22.2625  -27.2781  -40.0888 N.am      5 UNK        -0.4663 
     35 CA         23.3885  -26.3422  -40.0928 C.3       5 UNK         0.0242 
     36 CB         23.3332  -25.5039  -41.3773 C.3       5 UNK        -0.1982 
     37 C          24.7600  -27.0227  -39.9539 C.2       5 UNK         0.5017 
     38 O          25.7019  -26.3741  -39.4955 O.2       5 UNK        -0.5012 
     39 N          24.8608  -28.2942  -40.3558 N.am      6 UNK        -0.4439 
     40 CA         26.0857  -29.0899  -40.3309 C.3       6 UNK         0.0297 
     41 CB         26.8517  -28.8675  -41.6511 C.3       6 UNK        -0.2006 
     42 C          25.7420  -30.5700  -40.1190 C.2       6 UNK         0.4892 
     43 O          24.5649  -30.9276  -40.0329 O.2       6 UNK        -0.5089 
     44 N          26.7785  -31.4210  -40.0925 N.am      7 UNK        -0.4243 
     45 CA         26.6657  -32.8868  -40.0626 C.3       7 UNK         0.0196 
     46 CB         28.0632  -33.4984  -39.8737 C.3       7 UNK        -0.2007 
     47 C          25.9821  -33.4789  -41.3124 C.2       7 UNK         0.5020 
     48 O          25.4292  -34.5758  -41.2406 O.2       7 UNK        -0.5147 
     49 N          25.9916  -32.7225  -42.4189 N.am      8 UNK        -0.4734 
     50 CA         25.2368  -32.9855  -43.6477 C.3       8 UNK         0.0238 
     51 CB         25.9286  -32.2521  -44.8110 C.3       8 UNK        -0.1912 
     52 C          23.7452  -32.5908  -43.5534 C.2       8 UNK         0.5038 
     53 O          23.0485  -32.6645  -44.5663 O.2       8 UNK        -0.5046 
     54 N          23.2817  -32.1826  -42.3641 N.am      9 UNK        -0.4200 
     55 CA         21.9414  -31.6699  -42.0621 C.3       9 UNK         0.0839 
     56 C          21.7983  -30.1755  -42.4666 C.2       9 UNK         0.5513 
     57 N          20.6254  -29.7155  -42.8792 N.am      9 UNK        -0.7519 
     58 O          22.7416  -29.3989  -42.3301 O.2       9 UNK        -0.4960 
     59 C59        20.7963  -32.6265  -42.5144 C.3       10 UNK        -0.0876 
     60 S60        19.4346  -32.7040  -41.3053 S.3       10 UNK        -0.2414 
     61 C61        18.0172  -33.0802  -42.3807 C.3       10 UNK         0.0169 
     62 H62        15.1810  -24.5968  -48.5475 H         1 UNK         0.0903 
     63 H63        15.2285  -25.5636  -47.0726 H         1 UNK         0.0903 
     64 H64        15.4936  -23.8206  -46.9932 H         1 UNK         0.0903 
     65 H65        17.1388  -26.7247  -46.8803 H         1 UNK         0.3096 
     66 H66        19.5084  -25.9972  -48.4064 H         1 UNK         0.1121 
     67 H67        20.3305  -28.1650  -47.8770 H         1 UNK         0.0849 
     68 H68        18.6475  -28.3769  -48.2361 H         1 UNK         0.0849 
     69 H69        16.7859  -28.9027  -46.3982 H         1 UNK         0.0865 
     70 H70        17.5950  -30.4141  -46.7548 H         1 UNK         0.0865 
     71 H71        18.3941  -31.8812  -44.8176 H         1 UNK         0.1346 
     72 H72        16.2509  -31.4511  -41.1274 H         1 UNK         0.1412 
     73 H73        15.8208  -28.5023  -44.2091 H         1 UNK         0.1426 
     74 H74        14.2486  -29.8273  -41.2430 H         1 UNK         0.0716 
     75 H75        14.3736  -28.4166  -42.2609 H         1 UNK         0.0716 
     76 H76        16.4911  -25.9804  -40.6077 H         1 UNK         0.0695 
     77 H77        16.0082  -26.6703  -42.1281 H         1 UNK         0.0695 
     78 H78        18.1581  -27.9938  -42.2075 H         1 UNK         0.0983 
     79 H79        17.8689  -25.2381  -42.6228 H         1 UNK         0.3095 
     80 H80        19.1787  -23.9069  -43.7121 H         1 UNK         0.0454 
     81 H81        22.0533  -24.8137  -44.2083 H         1 UNK         0.0851 
     82 H82        21.4767  -23.5774  -43.1048 H         1 UNK         0.0851 
     83 H83        21.3763  -23.3108  -44.8348 H         1 UNK         0.0851 
     84 H84        18.3807  -25.0183  -45.5036 H         1 UNK         0.2976 
     85 H85        19.5577  -29.0533  -41.0072 H         1 UNK         0.3116 
     86 H86        20.9545  -29.7648  -39.4676 H         1 UNK         0.0646 
     87 H87        19.3738  -28.0572  -37.4775 H         1 UNK         0.0847 
     88 H88        20.3888  -29.4388  -37.0905 H         1 UNK         0.0847 
     89 H89        18.9168  -29.6724  -38.0169 H         1 UNK         0.0847 
     90 H90        21.8308  -27.4762  -40.9840 H         1 UNK         0.3040 
     91 H91        23.2769  -25.6657  -39.2423 H         1 UNK         0.1015 
     92 H92        23.3865  -26.1295  -42.2698 H         1 UNK         0.0786 
     93 H93        24.1593  -24.7929  -41.4222 H         1 UNK         0.0786 
     94 H94        22.4084  -24.9306  -41.4224 H         1 UNK         0.0786 
     95 H95        24.0375  -28.7716  -40.7120 H         1 UNK         0.3172 
     96 H96        26.7091  -28.7787  -39.4900 H         1 UNK         0.0595 
     97 H97        27.8019  -29.4018  -41.6649 H         1 UNK         0.0839 
     98 H98        27.0830  -27.8125  -41.7998 H         1 UNK         0.0839 
     99 H99        26.2710  -29.2019  -42.5121 H         1 UNK         0.0839 
    100 H100       27.7145  -31.0449  -40.1488 H         1 UNK         0.2998 
    101 H101       26.0520  -33.1557  -39.2001 H         1 UNK         0.0822 
    102 H102       28.0086  -34.5868  -39.8188 H         1 UNK         0.0787 
    103 H103       28.7298  -33.2472  -40.6998 H         1 UNK         0.0787 
    104 H104       28.5268  -33.1531  -38.9493 H         1 UNK         0.0787 
    105 H105       26.4837  -31.8422  -42.3780 H         1 UNK         0.3055 
    106 H106       25.2668  -34.0581  -43.8528 H         1 UNK         0.1106 
    107 H107       25.4431  -32.4762  -45.7618 H         1 UNK         0.0828 
    108 H108       25.9005  -31.1697  -44.6790 H         1 UNK         0.0828 
    109 H109       26.9719  -32.5533  -44.9070 H         1 UNK         0.0828 
    110 H110       23.9423  -32.0721  -41.6038 H         1 UNK         0.2931 
    111 H111       21.9333  -31.6486  -40.9718 H         1 UNK         0.0412 
    112 H112       20.5769  -28.7406  -43.1576 H         1 UNK         0.3472 
    113 H113       19.8464  -30.3343  -43.0439 H         1 UNK         0.3472 
    114 H114       21.1718  -33.6469  -42.6047 H         1 UNK         0.0970 
    115 H115       20.4312  -32.3668  -43.5089 H         1 UNK         0.0970 
    116 H116       18.3256  -33.7388  -43.1943 H         1 UNK         0.0612 
    117 H117       17.2777  -33.6367  -41.8028 H         1 UNK         0.0612 
@<TRIPOS>BOND
     1    1    2 1    
     2    1   62 1    
     3    1   63 1    
     4    1   64 1    
     5    2    3 2    
     6    2    4 am   BACKBONE|DICT|INTERRES
     7    4    5 1    
     8    4   65 1    
     9    5    6 1    
    10    5   25 1    
    11    5   66 1    
    12    6    7 1    
    13    6   67 1    
    14    6   68 1    
    15    7    8 1    
    16    8    9 1    
    17    8   69 1    
    18    8   70 1    
    19    9   10 ar   
    20    9   14 ar   
    21   10   11 ar   
    22   10   71 1    
    23   11   12 ar   
    24   11   61 1    
    25   12   13 ar   
    26   12   72 1    
    27   13   14 ar   
    28   13   15 1    
    29   14   73 1    
    30   15   16 1    
    31   15   74 1    
    32   15   75 1    
    33   16   17 1    
    34   17   18 1    
    35   17   76 1    
    36   17   77 1    
    37   18   19 1    
    38   18   27 1    
    39   18   78 1    
    40   19   20 am   BACKBONE|DICT|INTERRES
    41   19   79 1    
    42   20   21 2    
    43   20   22 1    
    44   22   23 1    
    45   22   24 1    
    46   22   80 1    
    47   23   81 1    
    48   23   82 1    
    49   23   83 1    
    50   24   25 am   BACKBONE|DICT|INTERRES
    51   24   84 1    
    52   25   26 2    
    53   27   28 2    
    54   27   29 am   BACKBONE|DICT|INTERRES
    55   29   30 1    
    56   29   85 1    
    57   30   31 1    
    58   30   32 1    
    59   30   86 1    
    60   31   87 1    
    61   31   88 1    
    62   31   89 1    
    63   32   33 2    
    64   32   34 am   BACKBONE|DICT|INTERRES
    65   34   35 1    
    66   34   90 1    
    67   35   36 1    
    68   35   37 1    
    69   35   91 1    
    70   36   92 1    
    71   36   93 1    
    72   36   94 1    
    73   37   38 2    
    74   37   39 am   BACKBONE|DICT|INTERRES
    75   39   40 1    
    76   39   95 1    
    77   40   41 1    
    78   40   42 1    
    79   40   96 1    
    80   41   97 1    
    81   41   98 1    
    82   41   99 1    
    83   42   43 2    
    84   42   44 am   BACKBONE|DICT|INTERRES
    85   44   45 1    
    86   44  100 1    
    87   45   46 1    
    88   45   47 1    
    89   45  101 1    
    90   46  102 1    
    91   46  103 1    
    92   46  104 1    
    93   47   48 2    
    94   47   49 am   BACKBONE|DICT|INTERRES
    95   49   50 1    
    96   49  105 1    
    97   50   51 1    
    98   50   52 1    
    99   50  106 1    
   100   51  107 1    
   101   51  108 1    
   102   51  109 1    
   103   52   53 2    
   104   52   54 am   BACKBONE|DICT|INTERRES
   105   54   55 1    
   106   54  110 1    
   107   55   56 1    
   108   55   59 1    
   109   55  111 1    
   110   56   57 am   BACKBONE|DICT|INTERRES
   111   56   58 2    
   112   57  112 1    
   113   57  113 1    
   114   59   60 1    
   115   59  114 1    
   116   59  115 1    
   117   60   61 1    
   118   61  116 1    
   119   61  117 1    
@<TRIPOS>SUBSTRUCTURE
     1 UNK         1 GROUP             0       ****    0 ROOT    
