@<TRIPOS>MOLECULE
3R8
117   119    1
SMALL
USER_CHARGES


@<TRIPOS>ATOM
      1 CA         17.3835  -25.9219  -49.3047 C.3       0 UNK        -0.2013 
      2 C          17.6850  -26.5434  -47.9492 C.2       0 UNK         0.4866 
      3 O          18.5647  -27.3991  -47.8499 O.2       0 UNK        -0.5176 
      4 N          16.9572  -26.1269  -46.9048 N.am      1 UNK        -0.4884 
      5 CA         17.1627  -26.5630  -45.5206 C.3       1 UNK         0.0853 
      6 C6         15.9082  -26.2708  -44.6637 C.3       10 UNK        -0.0849 
      7 S7         15.8987  -27.1188  -43.0510 S.3       10 UNK        -0.2776 
      8 C8         15.7095  -28.8672  -43.5320 C.3       10 UNK         0.0316 
      9 C9         16.9160  -29.6639  -43.0634 C.ar      10 UNK        -0.0863 
     10 C10        17.9557  -29.9921  -43.9394 C.ar      10 UNK        -0.1009 
     11 C11        19.0864  -30.6705  -43.4729 C.ar      10 UNK        -0.0712 
     12 C12        19.1649  -31.0359  -42.1253 C.ar      10 UNK        -0.0894 
     13 C13        18.1305  -30.7131  -41.2437 C.ar      10 UNK        -0.0745 
     14 C14        17.0040  -30.0408  -41.7223 C.ar      10 UNK        -0.0972 
     15 C15        18.2352  -31.0497  -39.7633 C.3       10 UNK         0.0209 
     16 S16        19.4946  -30.0566  -38.8905 S.3       10 UNK        -0.2568 
     17 C17        19.2174  -28.3523  -39.4943 C.3       10 UNK        -0.0983 
     18 CA         20.4595  -27.8290  -40.2723 C.3       3 UNK         0.0876 
     19 N          20.1357  -27.3083  -41.6131 N.am      3 UNK        -0.4424 
     20 C          21.0742  -26.9865  -42.5188 C.2       2 UNK         0.4918 
     21 O          22.2803  -27.1266  -42.3057 O.2       2 UNK        -0.4875 
     22 CA         20.6218  -26.3595  -43.8483 C.3       2 UNK         0.0481 
     23 CB         21.5849  -26.6697  -45.0131 C.3       2 UNK        -0.1831 
     24 N          19.2582  -26.7282  -44.2359 N.am      2 UNK        -0.4498 
     25 C          18.4479  -25.9295  -44.9464 C.2       1 UNK         0.5027 
     26 O          18.6880  -24.7417  -45.1816 O.2       1 UNK        -0.4969 
     27 C          21.2604  -26.8106  -39.4289 C.2       3 UNK         0.5005 
     28 O          22.1795  -27.1991  -38.7078 O.2       3 UNK        -0.5279 
     29 N          20.9449  -25.5155  -39.5896 N.am      4 UNK        -0.4463 
     30 CA         21.6563  -24.3885  -38.9745 C.3       4 UNK         0.0283 
     31 CB         20.8591  -23.0966  -39.2153 C.3       4 UNK        -0.1875 
     32 C          23.1074  -24.2216  -39.4677 C.2       4 UNK         0.4949 
     33 O          23.9225  -23.6455  -38.7479 O.2       4 UNK        -0.5039 
     34 N          23.4105  -24.7422  -40.6652 N.am      5 UNK        -0.4663 
     35 CA         24.7556  -24.8007  -41.2437 C.3       5 UNK         0.0242 
     36 CB         24.6506  -24.5908  -42.7644 C.3       5 UNK        -0.1982 
     37 C          25.4760  -26.1243  -40.9159 C.2       5 UNK         0.5017 
     38 O          26.5779  -26.3416  -41.4210 O.2       5 UNK        -0.5012 
     39 N          24.8511  -26.9802  -40.0912 N.am      6 UNK        -0.4439 
     40 CA         25.3132  -28.2975  -39.6451 C.3       6 UNK         0.0297 
     41 CB         26.6186  -28.1874  -38.8272 C.3       6 UNK        -0.2006 
     42 C          25.3909  -29.3469  -40.7711 C.2       6 UNK         0.4892 
     43 O          26.1981  -30.2742  -40.6769 O.2       6 UNK        -0.5089 
     44 N          24.5384  -29.2170  -41.7993 N.am      7 UNK        -0.4243 
     45 CA         24.3360  -30.2545  -42.8129 C.3       7 UNK         0.0196 
     46 CB         23.6329  -29.6482  -44.0354 C.3       7 UNK        -0.2007 
     47 C          23.5063  -31.4070  -42.2233 C.2       7 UNK         0.5020 
     48 O          22.5845  -31.1541  -41.4456 O.2       7 UNK        -0.5147 
     49 N          23.8431  -32.6464  -42.5983 N.am      8 UNK        -0.4734 
     50 CA         23.2084  -33.8518  -42.0587 C.3       8 UNK         0.0238 
     51 CB         24.1796  -35.0400  -42.1672 C.3       8 UNK        -0.1912 
     52 C          21.8678  -34.1811  -42.7326 C.2       8 UNK         0.5038 
     53 O          20.8970  -34.4588  -42.0282 O.2       8 UNK        -0.5046 
     54 N          21.8514  -34.1740  -44.0749 N.am      9 UNK        -0.4200 
     55 CA         20.7283  -34.6216  -44.9247 C.3       9 UNK         0.0839 
     56 C          20.3476  -36.1274  -44.7499 C.2       9 UNK         0.5513 
     57 N          21.2493  -36.9824  -44.2812 N.am      9 UNK        -0.7519 
     58 O          19.2373  -36.5413  -45.0741 O.2       9 UNK        -0.4960 
     59 C59        19.5015  -33.6635  -44.8626 C.3       10 UNK        -0.0876 
     60 S60        19.8054  -32.1028  -45.7554 S.3       10 UNK        -0.2414 
     61 C61        20.2468  -30.9638  -44.4113 C.3       10 UNK         0.0169 
     62 H62        18.2688  -25.4172  -49.6906 H         1 UNK         0.0903 
     63 H63        17.0947  -26.6951  -50.0161 H         1 UNK         0.0903 
     64 H64        16.5749  -25.1932  -49.2493 H         1 UNK         0.0903 
     65 H65        16.2738  -25.3947  -47.0386 H         1 UNK         0.3096 
     66 H66        17.3083  -27.6414  -45.5600 H         1 UNK         0.1121 
     67 H67        15.7993  -25.1978  -44.4931 H         1 UNK         0.0849 
     68 H68        15.0080  -26.5776  -45.1995 H         1 UNK         0.0849 
     69 H69        14.8036  -29.2656  -43.0722 H         1 UNK         0.0865 
     70 H70        15.5686  -28.9708  -44.6087 H         1 UNK         0.0865 
     71 H71        17.8974  -29.7221  -44.9842 H         1 UNK         0.1346 
     72 H72        20.0413  -31.5480  -41.7517 H         1 UNK         0.1412 
     73 H73        16.2069  -29.7743  -41.0412 H         1 UNK         0.1426 
     74 H74        18.4795  -32.1069  -39.6511 H         1 UNK         0.0716 
     75 H75        17.2741  -30.9052  -39.2673 H         1 UNK         0.0716 
     76 H76        18.3210  -28.3126  -40.1106 H         1 UNK         0.0695 
     77 H77        18.9758  -27.7300  -38.6300 H         1 UNK         0.0695 
     78 H78        21.1411  -28.6657  -40.4500 H         1 UNK         0.0983 
     79 H79        19.1608  -27.1603  -41.8293 H         1 UNK         0.3095 
     80 H80        20.6610  -25.2838  -43.6660 H         1 UNK         0.0454 
     81 H81        22.6158  -26.4160  -44.7671 H         1 UNK         0.0851 
     82 H82        21.5623  -27.7252  -45.2823 H         1 UNK         0.0851 
     83 H83        21.3241  -26.0977  -45.9036 H         1 UNK         0.0851 
     84 H84        18.9825  -27.6843  -44.0548 H         1 UNK         0.2976 
     85 H85        20.1751  -25.2854  -40.2015 H         1 UNK         0.3116 
     86 H86        21.6978  -24.5692  -37.8983 H         1 UNK         0.0646 
     87 H87        21.3475  -22.2433  -38.7422 H         1 UNK         0.0847 
     88 H88        19.8550  -23.1637  -38.7962 H         1 UNK         0.0847 
     89 H89        20.7671  -22.8694  -40.2782 H         1 UNK         0.0847 
     90 H90        22.6918  -25.2383  -41.1758 H         1 UNK         0.3040 
     91 H91        25.3671  -23.9940  -40.8333 H         1 UNK         0.1015 
     92 H92        24.1269  -25.4141  -43.2488 H         1 UNK         0.0786 
     93 H93        25.6398  -24.5248  -43.2193 H         1 UNK         0.0786 
     94 H94        24.1236  -23.6672  -43.0043 H         1 UNK         0.0786 
     95 H95        23.9380  -26.7155  -39.7371 H         1 UNK         0.3172 
     96 H96        24.5407  -28.6608  -38.9660 H         1 UNK         0.0595 
     97 H97        26.8649  -29.1389  -38.3545 H         1 UNK         0.0839 
     98 H98        27.4676  -27.9087  -39.4518 H         1 UNK         0.0839 
     99 H99        26.5281  -27.4477  -38.0318 H         1 UNK         0.0839 
    100 H100       23.8772  -28.4482  -41.8006 H         1 UNK         0.2998 
    101 H101       25.3112  -30.6333  -43.1267 H         1 UNK         0.0822 
    102 H102       23.5292  -30.3838  -44.8339 H         1 UNK         0.0787 
    103 H103       22.6333  -29.2996  -43.7811 H         1 UNK         0.0787 
    104 H104       24.1907  -28.8027  -44.4384 H         1 UNK         0.0787 
    105 H105       24.6105  -32.7762  -43.2427 H         1 UNK         0.3055 
    106 H106       23.0040  -33.6916  -40.9968 H         1 UNK         0.1106 
    107 H107       25.0918  -34.8565  -41.5989 H         1 UNK         0.0828 
    108 H108       23.7299  -35.9493  -41.7655 H         1 UNK         0.0828 
    109 H109       24.4651  -35.2449  -43.1996 H         1 UNK         0.0828 
    110 H110       22.6985  -33.9288  -44.5650 H         1 UNK         0.2931 
    111 H111       21.1125  -34.5813  -45.9447 H         1 UNK         0.0412 
    112 H112       21.0009  -37.9545  -44.1825 H         1 UNK         0.3472 
    113 H113       22.1737  -36.6703  -44.0325 H         1 UNK         0.3472 
    114 H114       19.1985  -33.4699  -43.8333 H         1 UNK         0.0970 
    115 H115       18.6291  -34.1093  -45.3427 H         1 UNK         0.0970 
    116 H116       21.0950  -31.3752  -43.8661 H         1 UNK         0.0612 
    117 H117       20.5867  -30.0265  -44.8523 H         1 UNK         0.0612 
@<TRIPOS>BOND
     1    1    2 1    
     2    1   62 1    
     3    1   63 1    
     4    1   64 1    
     5    2    3 2    
     6    2    4 am   BACKBONE|DICT|INTERRES
     7    4    5 1    
     8    4   65 1    
     9    5    6 1    
    10    5   25 1    
    11    5   66 1    
    12    6    7 1    
    13    6   67 1    
    14    6   68 1    
    15    7    8 1    
    16    8    9 1    
    17    8   69 1    
    18    8   70 1    
    19    9   10 ar   
    20    9   14 ar   
    21   10   11 ar   
    22   10   71 1    
    23   11   12 ar   
    24   11   61 1    
    25   12   13 ar   
    26   12   72 1    
    27   13   14 ar   
    28   13   15 1    
    29   14   73 1    
    30   15   16 1    
    31   15   74 1    
    32   15   75 1    
    33   16   17 1    
    34   17   18 1    
    35   17   76 1    
    36   17   77 1    
    37   18   19 1    
    38   18   27 1    
    39   18   78 1    
    40   19   20 am   BACKBONE|DICT|INTERRES
    41   19   79 1    
    42   20   21 2    
    43   20   22 1    
    44   22   23 1    
    45   22   24 1    
    46   22   80 1    
    47   23   81 1    
    48   23   82 1    
    49   23   83 1    
    50   24   25 am   BACKBONE|DICT|INTERRES
    51   24   84 1    
    52   25   26 2    
    53   27   28 2    
    54   27   29 am   BACKBONE|DICT|INTERRES
    55   29   30 1    
    56   29   85 1    
    57   30   31 1    
    58   30   32 1    
    59   30   86 1    
    60   31   87 1    
    61   31   88 1    
    62   31   89 1    
    63   32   33 2    
    64   32   34 am   BACKBONE|DICT|INTERRES
    65   34   35 1    
    66   34   90 1    
    67   35   36 1    
    68   35   37 1    
    69   35   91 1    
    70   36   92 1    
    71   36   93 1    
    72   36   94 1    
    73   37   38 2    
    74   37   39 am   BACKBONE|DICT|INTERRES
    75   39   40 1    
    76   39   95 1    
    77   40   41 1    
    78   40   42 1    
    79   40   96 1    
    80   41   97 1    
    81   41   98 1    
    82   41   99 1    
    83   42   43 2    
    84   42   44 am   BACKBONE|DICT|INTERRES
    85   44   45 1    
    86   44  100 1    
    87   45   46 1    
    88   45   47 1    
    89   45  101 1    
    90   46  102 1    
    91   46  103 1    
    92   46  104 1    
    93   47   48 2    
    94   47   49 am   BACKBONE|DICT|INTERRES
    95   49   50 1    
    96   49  105 1    
    97   50   51 1    
    98   50   52 1    
    99   50  106 1    
   100   51  107 1    
   101   51  108 1    
   102   51  109 1    
   103   52   53 2    
   104   52   54 am   BACKBONE|DICT|INTERRES
   105   54   55 1    
   106   54  110 1    
   107   55   56 1    
   108   55   59 1    
   109   55  111 1    
   110   56   57 am   BACKBONE|DICT|INTERRES
   111   56   58 2    
   112   57  112 1    
   113   57  113 1    
   114   59   60 1    
   115   59  114 1    
   116   59  115 1    
   117   60   61 1    
   118   61  116 1    
   119   61  117 1    
@<TRIPOS>SUBSTRUCTURE
     1 UNK         1 GROUP             0       ****    0 ROOT    
