@<TRIPOS>MOLECULE
3R8
117   119    1
SMALL
USER_CHARGES


@<TRIPOS>ATOM
      1 CA         16.5191  -23.7849  -49.6359 C.3       0 UNK        -0.2013 
      2 C          16.6160  -24.6436  -48.3831 C.2       0 UNK         0.4866 
      3 O          15.8027  -24.4804  -47.4729 O.2       0 UNK        -0.5176 
      4 N          17.5980  -25.5565  -48.3448 N.am      1 UNK        -0.4884 
      5 CA         17.9337  -26.4600  -47.2329 C.3       1 UNK         0.0853 
      6 C6         16.7235  -27.3206  -46.7682 C.3       10 UNK        -0.0849 
      7 S7         17.2227  -28.9060  -46.0160 S.3       10 UNK        -0.2776 
      8 C8         16.0750  -28.9979  -44.6017 C.3       10 UNK         0.0316 
      9 C9         16.4733  -30.0953  -43.6245 C.ar      10 UNK        -0.0863 
     10 C10        16.5995  -31.4170  -44.0612 C.ar      10 UNK        -0.1009 
     11 C11        17.0351  -32.4155  -43.1869 C.ar      10 UNK        -0.0712 
     12 C12        17.2832  -32.0966  -41.8473 C.ar      10 UNK        -0.0894 
     13 C13        17.1229  -30.7856  -41.3868 C.ar      10 UNK        -0.0745 
     14 C14        16.7224  -29.7891  -42.2829 C.ar      10 UNK        -0.0972 
     15 C15        17.3515  -30.4583  -39.9163 C.3       10 UNK         0.0209 
     16 S16        19.0919  -30.0664  -39.5442 S.3       10 UNK        -0.2568 
     17 C17        19.2010  -28.3104  -40.0273 C.3       10 UNK        -0.0983 
     18 CA         20.5612  -27.9607  -40.6937 C.3       3 UNK         0.0876 
     19 N          20.4124  -26.9682  -41.7548 N.am      3 UNK        -0.4424 
     20 C          20.1022  -27.2572  -43.0199 C.2       2 UNK         0.4918 
     21 O          19.9408  -28.4058  -43.4401 O.2       2 UNK        -0.4875 
     22 CA         19.9767  -26.0698  -43.9819 C.3       2 UNK         0.0481 
     23 CB         21.3643  -25.5382  -44.3869 C.3       2 UNK        -0.1831 
     24 N          19.2362  -26.5089  -45.1606 N.am      2 UNK        -0.4498 
     25 C          18.6481  -25.7262  -46.0706 C.2       1 UNK         0.5027 
     26 O          18.6856  -24.4933  -46.0254 O.2       1 UNK        -0.4969 
     27 C          21.6351  -27.4849  -39.6974 C.2       3 UNK         0.5005 
     28 O          22.3388  -26.5095  -39.9788 O.2       3 UNK        -0.5279 
     29 N          21.7513  -28.1881  -38.5605 N.am      4 UNK        -0.4463 
     30 CA         22.6574  -27.9210  -37.4360 C.3       4 UNK         0.0283 
     31 CB         22.1984  -26.6646  -36.6614 C.3       4 UNK        -0.1875 
     32 C          24.1300  -27.8727  -37.8833 C.2       4 UNK         0.4949 
     33 O          24.7027  -28.9245  -38.1699 O.2       4 UNK        -0.5039 
     34 N          24.6990  -26.6630  -37.9877 N.am      5 UNK        -0.4663 
     35 CA         26.0628  -26.3869  -38.4555 C.3       5 UNK         0.0242 
     36 CB         26.3415  -24.8811  -38.3223 C.3       5 UNK        -0.1982 
     37 C          26.3555  -26.8632  -39.8918 C.2       5 UNK         0.5017 
     38 O          27.5221  -27.0739  -40.2238 O.2       5 UNK        -0.5012 
     39 N          25.3054  -27.0620  -40.7029 N.am      6 UNK        -0.4439 
     40 CA         25.3805  -27.6739  -42.0338 C.3       6 UNK         0.0297 
     41 CB         24.0973  -27.3373  -42.8102 C.3       6 UNK        -0.2006 
     42 C          25.6154  -29.2005  -42.0140 C.2       6 UNK         0.4892 
     43 O          25.7757  -29.7809  -43.0875 O.2       6 UNK        -0.5089 
     44 N          25.6125  -29.8220  -40.8219 N.am      7 UNK        -0.4243 
     45 CA         25.7407  -31.2629  -40.5596 C.3       7 UNK         0.0196 
     46 CB         27.0816  -31.8241  -41.0816 C.3       7 UNK        -0.2007 
     47 C          24.5134  -32.0702  -41.0283 C.2       7 UNK         0.5020 
     48 O          24.6498  -33.2447  -41.3736 O.2       7 UNK        -0.5147 
     49 N          23.3433  -31.4158  -40.9783 N.am      8 UNK        -0.4734 
     50 CA         21.9987  -31.8674  -41.3568 C.3       8 UNK         0.0238 
     51 CB         21.5886  -33.1509  -40.6076 C.3       8 UNK        -0.1912 
     52 C          21.7894  -32.0182  -42.8739 C.2       8 UNK         0.5038 
     53 O          22.6624  -32.5185  -43.5852 O.2       8 UNK        -0.5046 
     54 N          20.5900  -31.6270  -43.3199 N.am      9 UNK        -0.4200 
     55 CA         20.0615  -31.8289  -44.6772 C.3       9 UNK         0.0839 
     56 C          20.8582  -31.0864  -45.7885 C.2       9 UNK         0.5513 
     57 N          21.2576  -29.8437  -45.5529 N.am      9 UNK        -0.7519 
     58 O          21.1077  -31.6226  -46.8659 O.2       9 UNK        -0.4960 
     59 C59        19.7618  -33.3244  -45.0105 C.3       10 UNK        -0.0876 
     60 S60        19.0168  -34.3039  -43.6511 S.3       10 UNK        -0.2414 
     61 C61        17.2577  -33.8317  -43.6982 C.3       10 UNK         0.0169 
     62 H62        16.6353  -22.7325  -49.3781 H         1 UNK         0.0903 
     63 H63        17.2845  -24.0406  -50.3683 H         1 UNK         0.0903 
     64 H64        15.5444  -23.9150  -50.1055 H         1 UNK         0.0903 
     65 H65        18.2349  -25.6059  -49.1287 H         1 UNK         0.3096 
     66 H66        18.6787  -27.1367  -47.6560 H         1 UNK         0.1121 
     67 H67        16.0929  -27.5685  -47.6236 H         1 UNK         0.0849 
     68 H68        16.0855  -26.7554  -46.0864 H         1 UNK         0.0849 
     69 H69        16.0532  -28.0318  -44.0949 H         1 UNK         0.0865 
     70 H70        15.0637  -29.1847  -44.9653 H         1 UNK         0.0865 
     71 H71        16.4078  -31.6558  -45.0986 H         1 UNK         0.1346 
     72 H72        17.6092  -32.8704  -41.1655 H         1 UNK         0.1412 
     73 H73        16.6000  -28.7731  -41.9354 H         1 UNK         0.1426 
     74 H74        16.7130  -29.6306  -39.6035 H         1 UNK         0.0716 
     75 H75        17.0528  -31.3118  -39.3058 H         1 UNK         0.0716 
     76 H76        18.9975  -27.6811  -39.1586 H         1 UNK         0.0695 
     77 H77        18.3876  -28.1035  -40.7210 H         1 UNK         0.0695 
     78 H78        20.9778  -28.8557  -41.1557 H         1 UNK         0.0983 
     79 H79        20.6341  -26.0191  -41.4839 H         1 UNK         0.3095 
     80 H80        19.4100  -25.2808  -43.4835 H         1 UNK         0.0454 
     81 H81        21.2882  -24.7031  -45.0829 H         1 UNK         0.0851 
     82 H82        21.9691  -26.3126  -44.8603 H         1 UNK         0.0851 
     83 H83        21.9122  -25.1748  -43.5175 H         1 UNK         0.0851 
     84 H84        19.1192  -27.5156  -45.2204 H         1 UNK         0.2976 
     85 H85        21.1363  -28.9836  -38.4415 H         1 UNK         0.3116 
     86 H86        22.5739  -28.7722  -36.7583 H         1 UNK         0.0646 
     87 H87        21.1989  -26.8065  -36.2502 H         1 UNK         0.0847 
     88 H88        22.8605  -26.4560  -35.8197 H         1 UNK         0.0847 
     89 H89        22.1670  -25.7736  -37.2894 H         1 UNK         0.0847 
     90 H90        24.1269  -25.8581  -37.7759 H         1 UNK         0.3040 
     91 H91        26.7491  -26.9241  -37.7973 H         1 UNK         0.1015 
     92 H92        25.6643  -24.2897  -38.9401 H         1 UNK         0.0786 
     93 H93        27.3595  -24.6425  -38.6342 H         1 UNK         0.0786 
     94 H94        26.2354  -24.5465  -37.2901 H         1 UNK         0.0786 
     95 H95        24.3794  -26.8340  -40.3530 H         1 UNK         0.3172 
     96 H96        26.2224  -27.2262  -42.5661 H         1 UNK         0.0595 
     97 H97        23.2196  -27.8023  -42.3626 H         1 UNK         0.0839 
     98 H98        24.1585  -27.6888  -43.8411 H         1 UNK         0.0839 
     99 H99        23.9314  -26.2611  -42.8452 H         1 UNK         0.0839 
    100 H100       25.4506  -29.2591  -39.9918 H         1 UNK         0.2998 
    101 H101       25.7555  -31.3600  -39.4728 H         1 UNK         0.0822 
    102 H102       27.2431  -32.8416  -40.7236 H         1 UNK         0.0787 
    103 H103       27.1127  -31.8580  -42.1708 H         1 UNK         0.0787 
    104 H104       27.9240  -31.2234  -40.7386 H         1 UNK         0.0787 
    105 H105       23.3999  -30.4546  -40.6761 H         1 UNK         0.3055 
    106 H106       21.3314  -31.0802  -41.0152 H         1 UNK         0.1106 
    107 H107       20.5395  -33.3869  -40.7919 H         1 UNK         0.0828 
    108 H108       22.1710  -34.0149  -40.9283 H         1 UNK         0.0828 
    109 H109       21.7110  -33.0404  -39.5303 H         1 UNK         0.0828 
    110 H110       19.9358  -31.2027  -42.6782 H         1 UNK         0.2931 
    111 H111       19.1081  -31.3096  -44.6784 H         1 UNK         0.0412 
    112 H112       21.7797  -29.3465  -46.2557 H         1 UNK         0.3472 
    113 H113       20.9702  -29.3805  -44.6965 H         1 UNK         0.3472 
    114 H114       20.6896  -33.8285  -45.2865 H         1 UNK         0.0970 
    115 H115       19.1159  -33.3907  -45.8876 H         1 UNK         0.0970 
    116 H116       16.6919  -34.5254  -43.0750 H         1 UNK         0.0612 
    117 H117       16.8787  -33.9508  -44.7144 H         1 UNK         0.0612 
@<TRIPOS>BOND
     1    1    2 1    
     2    1   62 1    
     3    1   63 1    
     4    1   64 1    
     5    2    3 2    
     6    2    4 am   BACKBONE|DICT|INTERRES
     7    4    5 1    
     8    4   65 1    
     9    5    6 1    
    10    5   25 1    
    11    5   66 1    
    12    6    7 1    
    13    6   67 1    
    14    6   68 1    
    15    7    8 1    
    16    8    9 1    
    17    8   69 1    
    18    8   70 1    
    19    9   10 ar   
    20    9   14 ar   
    21   10   11 ar   
    22   10   71 1    
    23   11   12 ar   
    24   11   61 1    
    25   12   13 ar   
    26   12   72 1    
    27   13   14 ar   
    28   13   15 1    
    29   14   73 1    
    30   15   16 1    
    31   15   74 1    
    32   15   75 1    
    33   16   17 1    
    34   17   18 1    
    35   17   76 1    
    36   17   77 1    
    37   18   19 1    
    38   18   27 1    
    39   18   78 1    
    40   19   20 am   BACKBONE|DICT|INTERRES
    41   19   79 1    
    42   20   21 2    
    43   20   22 1    
    44   22   23 1    
    45   22   24 1    
    46   22   80 1    
    47   23   81 1    
    48   23   82 1    
    49   23   83 1    
    50   24   25 am   BACKBONE|DICT|INTERRES
    51   24   84 1    
    52   25   26 2    
    53   27   28 2    
    54   27   29 am   BACKBONE|DICT|INTERRES
    55   29   30 1    
    56   29   85 1    
    57   30   31 1    
    58   30   32 1    
    59   30   86 1    
    60   31   87 1    
    61   31   88 1    
    62   31   89 1    
    63   32   33 2    
    64   32   34 am   BACKBONE|DICT|INTERRES
    65   34   35 1    
    66   34   90 1    
    67   35   36 1    
    68   35   37 1    
    69   35   91 1    
    70   36   92 1    
    71   36   93 1    
    72   36   94 1    
    73   37   38 2    
    74   37   39 am   BACKBONE|DICT|INTERRES
    75   39   40 1    
    76   39   95 1    
    77   40   41 1    
    78   40   42 1    
    79   40   96 1    
    80   41   97 1    
    81   41   98 1    
    82   41   99 1    
    83   42   43 2    
    84   42   44 am   BACKBONE|DICT|INTERRES
    85   44   45 1    
    86   44  100 1    
    87   45   46 1    
    88   45   47 1    
    89   45  101 1    
    90   46  102 1    
    91   46  103 1    
    92   46  104 1    
    93   47   48 2    
    94   47   49 am   BACKBONE|DICT|INTERRES
    95   49   50 1    
    96   49  105 1    
    97   50   51 1    
    98   50   52 1    
    99   50  106 1    
   100   51  107 1    
   101   51  108 1    
   102   51  109 1    
   103   52   53 2    
   104   52   54 am   BACKBONE|DICT|INTERRES
   105   54   55 1    
   106   54  110 1    
   107   55   56 1    
   108   55   59 1    
   109   55  111 1    
   110   56   57 am   BACKBONE|DICT|INTERRES
   111   56   58 2    
   112   57  112 1    
   113   57  113 1    
   114   59   60 1    
   115   59  114 1    
   116   59  115 1    
   117   60   61 1    
   118   61  116 1    
   119   61  117 1    
@<TRIPOS>SUBSTRUCTURE
     1 UNK         1 GROUP             0       ****    0 ROOT    
