@<TRIPOS>MOLECULE
3R8
117   119    1
SMALL
USER_CHARGES


@<TRIPOS>ATOM
      1 CA         19.5152  -26.1025  -39.1934 C.3       0 UNK        -0.2013 
      2 C          18.7316  -25.7784  -40.4568 C.2       0 UNK         0.4866 
      3 O          18.3979  -24.6157  -40.6888 O.2       0 UNK        -0.5176 
      4 N          18.4312  -26.7989  -41.2705 N.am      1 UNK        -0.4884 
      5 CA         17.7667  -26.6778  -42.5737 C.3       1 UNK         0.0853 
      6 C6         17.3321  -28.0701  -43.0967 C.3       10 UNK        -0.0849 
      7 S7         15.9586  -27.9807  -44.2983 S.3       10 UNK        -0.2776 
      8 C8         15.6043  -29.7447  -44.5891 C.3       10 UNK         0.0316 
      9 C9         16.8328  -30.4935  -45.0842 C.ar      10 UNK        -0.0863 
     10 C10        17.5018  -31.3812  -44.2368 C.ar      10 UNK        -0.1009 
     11 C11        18.6606  -32.0330  -44.6668 C.ar      10 UNK        -0.0712 
     12 C12        19.1440  -31.8007  -45.9569 C.ar      10 UNK        -0.0894 
     13 C13        18.4819  -30.9179  -46.8144 C.ar      10 UNK        -0.0745 
     14 C14        17.3181  -30.2771  -46.3773 C.ar      10 UNK        -0.0972 
     15 C15        19.0340  -30.6505  -48.2072 C.3       10 UNK         0.0209 
     16 S16        19.5003  -28.9064  -48.4468 S.3       10 UNK        -0.2568 
     17 C17        20.8392  -28.6841  -47.2239 C.3       10 UNK        -0.0983 
     18 CA         21.1291  -27.1816  -46.9895 C.3       3 UNK         0.0876 
     19 N          19.9578  -26.4782  -46.4500 N.am      3 UNK        -0.4424 
     20 C          19.7747  -25.1515  -46.4833 C.2       2 UNK         0.4918 
     21 O          20.5403  -24.3730  -47.0522 O.2       2 UNK        -0.4875 
     22 CA         18.5519  -24.5816  -45.7375 C.3       2 UNK         0.0481 
     23 CB         17.4361  -24.2420  -46.7386 C.3       2 UNK        -0.1831 
     24 N          17.9924  -25.4252  -44.6718 N.am      2 UNK        -0.4498 
     25 C          18.6392  -25.9220  -43.6065 C.2       1 UNK         0.5027 
     26 O          19.8596  -25.8301  -43.4461 O.2       1 UNK        -0.4969 
     27 C          22.4096  -26.9610  -46.1454 C.2       3 UNK         0.5005 
     28 O          23.4960  -27.3029  -46.6137 O.2       3 UNK        -0.5279 
     29 N          22.2750  -26.3720  -44.9446 N.am      4 UNK        -0.4463 
     30 CA         23.3238  -25.8309  -44.0686 C.3       4 UNK         0.0283 
     31 CB         24.1734  -24.7699  -44.7988 C.3       4 UNK        -0.1875 
     32 C          24.2013  -26.8674  -43.3463 C.2       4 UNK         0.4949 
     33 O          25.0693  -26.4703  -42.5672 O.2       4 UNK        -0.5039 
     34 N          23.9429  -28.1674  -43.5351 N.am      5 UNK        -0.4663 
     35 CA         24.6114  -29.2737  -42.8385 C.3       5 UNK         0.0242 
     36 CB         24.4947  -30.5445  -43.6994 C.3       5 UNK        -0.1982 
     37 C          24.0553  -29.4676  -41.4124 C.2       5 UNK         0.5017 
     38 O          23.6557  -30.5742  -41.0473 O.2       5 UNK        -0.5012 
     39 N          24.0155  -28.3761  -40.6358 N.am      6 UNK        -0.4439 
     40 CA         23.3303  -28.2288  -39.3452 C.3       6 UNK         0.0297 
     41 CB         23.4572  -26.7707  -38.8764 C.3       6 UNK        -0.2006 
     42 C          23.7679  -29.1974  -38.2302 C.2       6 UNK         0.4892 
     43 O          23.0222  -29.3701  -37.2660 O.2       6 UNK        -0.5089 
     44 N          24.9378  -29.8326  -38.3834 N.am      7 UNK        -0.4243 
     45 CA         25.4200  -30.9143  -37.5204 C.3       7 UNK         0.0196 
     46 CB         26.8752  -31.2436  -37.8903 C.3       7 UNK        -0.2007 
     47 C          24.5476  -32.1842  -37.5861 C.2       7 UNK         0.5020 
     48 O          24.5052  -32.9288  -36.6063 O.2       7 UNK        -0.5147 
     49 N          23.8711  -32.4048  -38.7218 N.am      8 UNK        -0.4734 
     50 CA         22.9329  -33.5091  -38.9388 C.3       8 UNK         0.0238 
     51 CB         23.4525  -34.3963  -40.0827 C.3       8 UNK        -0.1912 
     52 C          21.5237  -32.9931  -39.2650 C.2       8 UNK         0.5038 
     53 O          20.5457  -33.5662  -38.7842 O.2       8 UNK        -0.5046 
     54 N          21.4465  -31.9327  -40.0762 N.am      9 UNK        -0.4200 
     55 CA         20.2120  -31.3403  -40.6101 C.3       9 UNK         0.0839 
     56 C          19.6334  -30.1894  -39.7390 C.2       9 UNK         0.5513 
     57 N          20.1106  -29.9659  -38.5218 N.am      9 UNK        -0.7519 
     58 O          18.7364  -29.4748  -40.1787 O.2       9 UNK        -0.4960 
     59 C59        20.3998  -30.9017  -42.0872 C.3       10 UNK        -0.0876 
     60 S60        20.9738  -32.2645  -43.1603 S.3       10 UNK        -0.2414 
     61 C61        19.4021  -32.9780  -43.7346 C.3       10 UNK         0.0169 
     62 H62        18.8582  -26.0743  -38.3247 H         1 UNK         0.0903 
     63 H63        19.9752  -27.0885  -39.2457 H         1 UNK         0.0903 
     64 H64        20.3102  -25.3722  -39.0453 H         1 UNK         0.0903 
     65 H65        18.6800  -27.7434  -40.9872 H         1 UNK         0.3096 
     66 H66        16.8709  -26.0759  -42.4030 H         1 UNK         0.1121 
     67 H67        18.1783  -28.6012  -43.5369 H         1 UNK         0.0849 
     68 H68        16.9870  -28.6908  -42.2676 H         1 UNK         0.0849 
     69 H69        15.2209  -30.1899  -43.6696 H         1 UNK         0.0865 
     70 H70        14.8048  -29.8314  -45.3263 H         1 UNK         0.0865 
     71 H71        17.1333  -31.5487  -43.2338 H         1 UNK         0.1346 
     72 H72        20.0475  -32.2976  -46.2834 H         1 UNK         0.1412 
     73 H73        16.8082  -29.5845  -47.0334 H         1 UNK         0.1426 
     74 H74        18.2770  -30.9177  -48.9456 H         1 UNK         0.0716 
     75 H75        19.9013  -31.2796  -48.4138 H         1 UNK         0.0716 
     76 H76        20.5704  -29.1703  -46.2846 H         1 UNK         0.0695 
     77 H77        21.7245  -29.2001  -47.6006 H         1 UNK         0.0695 
     78 H78        21.3499  -26.7392  -47.9638 H         1 UNK         0.0983 
     79 H79        19.2641  -27.0488  -45.9904 H         1 UNK         0.3095 
     80 H80        18.8767  -23.6527  -45.2650 H         1 UNK         0.0454 
     81 H81        17.8049  -23.5890  -47.5311 H         1 UNK         0.0851 
     82 H82        17.0365  -25.1381  -47.2153 H         1 UNK         0.0851 
     83 H83        16.6101  -23.7211  -46.2541 H         1 UNK         0.0851 
     84 H84        17.0016  -25.6158  -44.7401 H         1 UNK         0.2976 
     85 H85        21.3303  -26.1874  -44.6125 H         1 UNK         0.3116 
     86 H86        22.7829  -25.3134  -43.2747 H         1 UNK         0.0646 
     87 H87        24.8383  -24.2547  -44.1044 H         1 UNK         0.0847 
     88 H88        23.5453  -24.0110  -45.2658 H         1 UNK         0.0847 
     89 H89        24.7994  -25.2124  -45.5740 H         1 UNK         0.0847 
     90 H90        23.2055  -28.4116  -44.1797 H         1 UNK         0.3040 
     91 H91        25.6736  -29.0398  -42.7364 H         1 UNK         0.1015 
     92 H92        24.9586  -30.4046  -44.6760 H         1 UNK         0.0786 
     93 H93        23.4547  -30.8265  -43.8616 H         1 UNK         0.0786 
     94 H94        24.9928  -31.3906  -43.2239 H         1 UNK         0.0786 
     95 H95        24.4032  -27.5285  -41.0406 H         1 UNK         0.3172 
     96 H96        22.2738  -28.4274  -39.5319 H         1 UNK         0.0595 
     97 H97        22.9219  -26.6122  -37.9389 H         1 UNK         0.0839 
     98 H98        23.0354  -26.0796  -39.6066 H         1 UNK         0.0839 
     99 H99        24.4980  -26.4908  -38.7095 H         1 UNK         0.0839 
    100 H100       25.4854  -29.6232  -39.2051 H         1 UNK         0.2998 
    101 H101       25.3988  -30.5552  -36.4891 H         1 UNK         0.0822 
    102 H102       27.5217  -30.3735  -37.7743 H         1 UNK         0.0787 
    103 H103       27.2730  -32.0288  -37.2456 H         1 UNK         0.0787 
    104 H104       26.9609  -31.5931  -38.9201 H         1 UNK         0.0787 
    105 H105       23.9612  -31.7299  -39.4752 H         1 UNK         0.3055 
    106 H106       22.8490  -34.1246  -38.0402 H         1 UNK         0.1106 
    107 H107       23.5563  -33.8369  -41.0139 H         1 UNK         0.0828 
    108 H108       24.4249  -34.8247  -39.8396 H         1 UNK         0.0828 
    109 H109       22.7710  -35.2262  -40.2744 H         1 UNK         0.0828 
    110 H110       22.3032  -31.5172  -40.4344 H         1 UNK         0.2931 
    111 H111       19.4380  -32.1097  -40.6079 H         1 UNK         0.0412 
    112 H112       20.8635  -30.5248  -38.1522 H         1 UNK         0.3472 
    113 H113       19.7153  -29.2274  -37.9633 H         1 UNK         0.3472 
    114 H114       21.1288  -30.0928  -42.1513 H         1 UNK         0.0970 
    115 H115       19.4740  -30.4934  -42.4918 H         1 UNK         0.0970 
    116 H116       18.7884  -33.2414  -42.8717 H         1 UNK         0.0612 
    117 H117       19.6105  -33.9111  -44.2598 H         1 UNK         0.0612 
@<TRIPOS>BOND
     1    1    2 1    
     2    1   62 1    
     3    1   63 1    
     4    1   64 1    
     5    2    3 2    
     6    2    4 am   BACKBONE|DICT|INTERRES
     7    4    5 1    
     8    4   65 1    
     9    5    6 1    
    10    5   25 1    
    11    5   66 1    
    12    6    7 1    
    13    6   67 1    
    14    6   68 1    
    15    7    8 1    
    16    8    9 1    
    17    8   69 1    
    18    8   70 1    
    19    9   10 ar   
    20    9   14 ar   
    21   10   11 ar   
    22   10   71 1    
    23   11   12 ar   
    24   11   61 1    
    25   12   13 ar   
    26   12   72 1    
    27   13   14 ar   
    28   13   15 1    
    29   14   73 1    
    30   15   16 1    
    31   15   74 1    
    32   15   75 1    
    33   16   17 1    
    34   17   18 1    
    35   17   76 1    
    36   17   77 1    
    37   18   19 1    
    38   18   27 1    
    39   18   78 1    
    40   19   20 am   BACKBONE|DICT|INTERRES
    41   19   79 1    
    42   20   21 2    
    43   20   22 1    
    44   22   23 1    
    45   22   24 1    
    46   22   80 1    
    47   23   81 1    
    48   23   82 1    
    49   23   83 1    
    50   24   25 am   BACKBONE|DICT|INTERRES
    51   24   84 1    
    52   25   26 2    
    53   27   28 2    
    54   27   29 am   BACKBONE|DICT|INTERRES
    55   29   30 1    
    56   29   85 1    
    57   30   31 1    
    58   30   32 1    
    59   30   86 1    
    60   31   87 1    
    61   31   88 1    
    62   31   89 1    
    63   32   33 2    
    64   32   34 am   BACKBONE|DICT|INTERRES
    65   34   35 1    
    66   34   90 1    
    67   35   36 1    
    68   35   37 1    
    69   35   91 1    
    70   36   92 1    
    71   36   93 1    
    72   36   94 1    
    73   37   38 2    
    74   37   39 am   BACKBONE|DICT|INTERRES
    75   39   40 1    
    76   39   95 1    
    77   40   41 1    
    78   40   42 1    
    79   40   96 1    
    80   41   97 1    
    81   41   98 1    
    82   41   99 1    
    83   42   43 2    
    84   42   44 am   BACKBONE|DICT|INTERRES
    85   44   45 1    
    86   44  100 1    
    87   45   46 1    
    88   45   47 1    
    89   45  101 1    
    90   46  102 1    
    91   46  103 1    
    92   46  104 1    
    93   47   48 2    
    94   47   49 am   BACKBONE|DICT|INTERRES
    95   49   50 1    
    96   49  105 1    
    97   50   51 1    
    98   50   52 1    
    99   50  106 1    
   100   51  107 1    
   101   51  108 1    
   102   51  109 1    
   103   52   53 2    
   104   52   54 am   BACKBONE|DICT|INTERRES
   105   54   55 1    
   106   54  110 1    
   107   55   56 1    
   108   55   59 1    
   109   55  111 1    
   110   56   57 am   BACKBONE|DICT|INTERRES
   111   56   58 2    
   112   57  112 1    
   113   57  113 1    
   114   59   60 1    
   115   59  114 1    
   116   59  115 1    
   117   60   61 1    
   118   61  116 1    
   119   61  117 1    
@<TRIPOS>SUBSTRUCTURE
     1 UNK         1 GROUP             0       ****    0 ROOT    
