@<TRIPOS>MOLECULE
3R8
117   119    1
SMALL
USER_CHARGES


@<TRIPOS>ATOM
      1 CA         16.5119  -22.7049  -47.0119 C.3       0 UNK        -0.2013 
      2 C          17.3595  -23.8275  -46.4335 C.2       0 UNK         0.4866 
      3 O          18.4447  -24.1046  -46.9465 O.2       0 UNK        -0.5176 
      4 N          16.8821  -24.4731  -45.3619 N.am      1 UNK        -0.4884 
      5 CA         17.5353  -25.5931  -44.6737 C.3       1 UNK         0.0853 
      6 C6         16.5212  -26.4310  -43.8486 C.3       10 UNK        -0.0849 
      7 S7         15.3164  -27.3296  -44.8792 S.3       10 UNK        -0.2776 
      8 C8         15.4296  -29.0218  -44.1780 C.3       10 UNK         0.0316 
      9 C9         16.7518  -29.7602  -44.4155 C.ar      10 UNK        -0.0863 
     10 C10        17.0837  -30.8473  -43.5957 C.ar      10 UNK        -0.1009 
     11 C11        18.2591  -31.5816  -43.8085 C.ar      10 UNK        -0.0712 
     12 C12        19.1183  -31.2054  -44.8449 C.ar      10 UNK        -0.0894 
     13 C13        18.7915  -30.1383  -45.6845 C.ar      10 UNK        -0.0745 
     14 C14        17.6110  -29.4247  -45.4677 C.ar      10 UNK        -0.0972 
     15 C15        19.6725  -29.7869  -46.8710 C.3       10 UNK         0.0209 
     16 S16        20.5077  -28.1923  -46.6362 S.3       10 UNK        -0.2568 
     17 C17        21.9305  -28.6577  -45.5867 C.3       10 UNK        -0.0983 
     18 CA         22.0225  -27.8982  -44.2356 C.3       3 UNK         0.0876 
     19 N          21.5922  -26.5072  -44.3543 N.am      3 UNK        -0.4424 
     20 C          21.7945  -25.5137  -43.4823 C.2       2 UNK         0.4918 
     21 O          22.4627  -25.6283  -42.4534 O.2       2 UNK        -0.4875 
     22 CA         21.0360  -24.2073  -43.7887 C.3       2 UNK         0.0481 
     23 CB         21.8725  -23.2975  -44.7002 C.3       2 UNK        -0.1831 
     24 N          19.7290  -24.4719  -44.4128 N.am      2 UNK        -0.4498 
     25 C          18.7316  -25.1326  -43.8071 C.2       1 UNK         0.5027 
     26 O          18.7708  -25.4265  -42.6129 O.2       1 UNK        -0.4969 
     27 C          21.3960  -28.6664  -43.0501 C.2       3 UNK         0.5005 
     28 O          21.9465  -29.7059  -42.6874 O.2       3 UNK        -0.5279 
     29 N          20.3538  -28.1277  -42.3890 N.am      4 UNK        -0.4463 
     30 CA         19.8774  -28.6400  -41.0955 C.3       4 UNK         0.0283 
     31 CB         18.5671  -27.9629  -40.6711 C.3       4 UNK        -0.1875 
     32 C          20.9299  -28.5125  -39.9773 C.2       4 UNK         0.4949 
     33 O          20.9093  -29.3090  -39.0410 O.2       4 UNK        -0.5039 
     34 N          21.8351  -27.5327  -40.1075 N.am      5 UNK        -0.4663 
     35 CA         23.0306  -27.3937  -39.2816 C.3       5 UNK         0.0242 
     36 CB         23.1827  -25.9281  -38.8401 C.3       5 UNK        -0.1982 
     37 C          24.2674  -27.8646  -40.0590 C.2       5 UNK         0.5017 
     38 O          25.0080  -28.7120  -39.5601 O.2       5 UNK        -0.5012 
     39 N          24.4724  -27.3131  -41.2659 N.am      6 UNK        -0.4439 
     40 CA         25.7034  -27.4658  -42.0508 C.3       6 UNK         0.0297 
     41 CB         25.7219  -26.4357  -43.1933 C.3       6 UNK        -0.2006 
     42 C          25.9917  -28.8844  -42.5788 C.2       6 UNK         0.4892 
     43 O          27.1545  -29.1737  -42.8629 O.2       6 UNK        -0.5089 
     44 N          24.9669  -29.7420  -42.6886 N.am      7 UNK        -0.4243 
     45 CA         25.1013  -31.1535  -43.0666 C.3       7 UNK         0.0196 
     46 CB         24.2912  -31.4259  -44.3481 C.3       7 UNK        -0.2007 
     47 C          24.6832  -32.0816  -41.9116 C.2       7 UNK         0.5020 
     48 O          24.3558  -33.2432  -42.1595 O.2       7 UNK        -0.5147 
     49 N          24.6918  -31.5632  -40.6731 N.am      8 UNK        -0.4734 
     50 CA         24.3457  -32.2036  -39.3953 C.3       8 UNK         0.0238 
     51 CB         25.2559  -33.4111  -39.0951 C.3       8 UNK        -0.1912 
     52 C          22.8594  -32.5709  -39.2385 C.2       8 UNK         0.5038 
     53 O          22.2828  -32.2543  -38.1979 O.2       8 UNK        -0.5046 
     54 N          22.2738  -33.2191  -40.2554 N.am      9 UNK        -0.4200 
     55 CA         20.8555  -33.6062  -40.3418 C.3       9 UNK         0.0839 
     56 C          20.3909  -34.5441  -39.1824 C.2       9 UNK         0.5513 
     57 N          21.2208  -35.4960  -38.7710 N.am      9 UNK        -0.7519 
     58 O          19.2911  -34.4251  -38.6488 O.2       9 UNK        -0.4960 
     59 C59        19.9644  -32.3578  -40.5983 C.3       10 UNK        -0.0876 
     60 S60        18.2868  -32.7193  -41.2219 S.3       10 UNK        -0.2414 
     61 C61        18.5560  -32.8554  -43.0188 C.3       10 UNK         0.0169 
     62 H62        17.0624  -21.7650  -46.9805 H         1 UNK         0.0903 
     63 H63        16.2640  -22.9202  -48.0509 H         1 UNK         0.0903 
     64 H64        15.5805  -22.5716  -46.4619 H         1 UNK         0.0903 
     65 H65        15.9898  -24.1944  -44.9780 H         1 UNK         0.3096 
     66 H66        17.9599  -26.2537  -45.4335 H         1 UNK         0.1121 
     67 H67        17.0495  -27.1745  -43.2538 H         1 UNK         0.0849 
     68 H68        15.9829  -25.8024  -43.1369 H         1 UNK         0.0849 
     69 H69        15.2278  -28.9648  -43.1070 H         1 UNK         0.0865 
     70 H70        14.6262  -29.6217  -44.6074 H         1 UNK         0.0865 
     71 H71        16.4056  -31.1471  -42.8083 H         1 UNK         0.1346 
     72 H72        20.0193  -31.7743  -45.0299 H         1 UNK         0.1412 
     73 H73        17.3616  -28.6185  -46.1426 H         1 UNK         0.1426 
     74 H74        19.0513  -29.7250  -47.7657 H         1 UNK         0.0716 
     75 H75        20.4079  -30.5684  -47.0683 H         1 UNK         0.0716 
     76 H76        21.9517  -29.7387  -45.4399 H         1 UNK         0.0695 
     77 H77        22.8247  -28.4370  -46.1717 H         1 UNK         0.0695 
     78 H78        23.0820  -27.8622  -43.9856 H         1 UNK         0.0983 
     79 H79        21.0293  -26.3152  -45.1713 H         1 UNK         0.3095 
     80 H80        20.8667  -23.6876  -42.8435 H         1 UNK         0.0454 
     81 H81        22.8415  -23.0792  -44.2492 H         1 UNK         0.0851 
     82 H82        22.0604  -23.7567  -45.6715 H         1 UNK         0.0851 
     83 H83        21.3741  -22.3433  -44.8717 H         1 UNK         0.0851 
     84 H84        19.6082  -24.2357  -45.3947 H         1 UNK         0.2976 
     85 H85        19.9541  -27.2532  -42.7046 H         1 UNK         0.3116 
     86 H86        19.6537  -29.6956  -41.2306 H         1 UNK         0.0646 
     87 H87        18.2125  -28.3729  -39.7245 H         1 UNK         0.0847 
     88 H88        17.7780  -28.1345  -41.3998 H         1 UNK         0.0847 
     89 H89        18.6876  -26.8895  -40.5275 H         1 UNK         0.0847 
     90 H90        21.7647  -26.9154  -40.9074 H         1 UNK         0.3040 
     91 H91        22.9505  -28.0096  -38.3827 H         1 UNK         0.1015 
     92 H92        23.2461  -25.2466  -39.6895 H         1 UNK         0.0786 
     93 H93        24.0855  -25.7921  -38.2429 H         1 UNK         0.0786 
     94 H94        22.3387  -25.6143  -38.2257 H         1 UNK         0.0786 
     95 H95        23.8021  -26.6292  -41.6092 H         1 UNK         0.3172 
     96 H96        26.5303  -27.2167  -41.3820 H         1 UNK         0.0595 
     97 H97        26.6689  -26.4731  -43.7338 H         1 UNK         0.0839 
     98 H98        24.9314  -26.6068  -43.9216 H         1 UNK         0.0839 
     99 H99        25.6108  -25.4198  -42.8136 H         1 UNK         0.0839 
    100 H100       24.0319  -29.4507  -42.4251 H         1 UNK         0.2998 
    101 H101       26.1445  -31.3932  -43.2813 H         1 UNK         0.0822 
    102 H102       24.5127  -32.4182  -44.7427 H         1 UNK         0.0787 
    103 H103       23.2178  -31.3881  -44.1655 H         1 UNK         0.0787 
    104 H104       24.5283  -30.7065  -45.1318 H         1 UNK         0.0787 
    105 H105       24.9527  -30.5868  -40.5831 H         1 UNK         0.3055 
    106 H106       24.5523  -31.4485  -38.6342 H         1 UNK         0.1106 
    107 H107       25.1098  -34.2246  -39.8060 H         1 UNK         0.0828 
    108 H108       26.3084  -33.1292  -39.1202 H         1 UNK         0.0828 
    109 H109       25.0521  -33.8119  -38.1012 H         1 UNK         0.0828 
    110 H110       22.8571  -33.4360  -41.0596 H         1 UNK         0.2931 
    111 H111       20.7921  -34.2244  -41.2378 H         1 UNK         0.0412 
    112 H112       20.9375  -36.1085  -38.0220 H         1 UNK         0.3472 
    113 H113       22.1279  -35.6044  -39.1966 H         1 UNK         0.3472 
    114 H114       20.4591  -31.7199  -41.3317 H         1 UNK         0.0970 
    115 H115       19.8765  -31.7638  -39.6871 H         1 UNK         0.0970 
    116 H116       17.9002  -33.6405  -43.3970 H         1 UNK         0.0612 
    117 H117       19.5746  -33.2000  -43.2034 H         1 UNK         0.0612 
@<TRIPOS>BOND
     1    1    2 1    
     2    1   62 1    
     3    1   63 1    
     4    1   64 1    
     5    2    3 2    
     6    2    4 am   BACKBONE|DICT|INTERRES
     7    4    5 1    
     8    4   65 1    
     9    5    6 1    
    10    5   25 1    
    11    5   66 1    
    12    6    7 1    
    13    6   67 1    
    14    6   68 1    
    15    7    8 1    
    16    8    9 1    
    17    8   69 1    
    18    8   70 1    
    19    9   10 ar   
    20    9   14 ar   
    21   10   11 ar   
    22   10   71 1    
    23   11   12 ar   
    24   11   61 1    
    25   12   13 ar   
    26   12   72 1    
    27   13   14 ar   
    28   13   15 1    
    29   14   73 1    
    30   15   16 1    
    31   15   74 1    
    32   15   75 1    
    33   16   17 1    
    34   17   18 1    
    35   17   76 1    
    36   17   77 1    
    37   18   19 1    
    38   18   27 1    
    39   18   78 1    
    40   19   20 am   BACKBONE|DICT|INTERRES
    41   19   79 1    
    42   20   21 2    
    43   20   22 1    
    44   22   23 1    
    45   22   24 1    
    46   22   80 1    
    47   23   81 1    
    48   23   82 1    
    49   23   83 1    
    50   24   25 am   BACKBONE|DICT|INTERRES
    51   24   84 1    
    52   25   26 2    
    53   27   28 2    
    54   27   29 am   BACKBONE|DICT|INTERRES
    55   29   30 1    
    56   29   85 1    
    57   30   31 1    
    58   30   32 1    
    59   30   86 1    
    60   31   87 1    
    61   31   88 1    
    62   31   89 1    
    63   32   33 2    
    64   32   34 am   BACKBONE|DICT|INTERRES
    65   34   35 1    
    66   34   90 1    
    67   35   36 1    
    68   35   37 1    
    69   35   91 1    
    70   36   92 1    
    71   36   93 1    
    72   36   94 1    
    73   37   38 2    
    74   37   39 am   BACKBONE|DICT|INTERRES
    75   39   40 1    
    76   39   95 1    
    77   40   41 1    
    78   40   42 1    
    79   40   96 1    
    80   41   97 1    
    81   41   98 1    
    82   41   99 1    
    83   42   43 2    
    84   42   44 am   BACKBONE|DICT|INTERRES
    85   44   45 1    
    86   44  100 1    
    87   45   46 1    
    88   45   47 1    
    89   45  101 1    
    90   46  102 1    
    91   46  103 1    
    92   46  104 1    
    93   47   48 2    
    94   47   49 am   BACKBONE|DICT|INTERRES
    95   49   50 1    
    96   49  105 1    
    97   50   51 1    
    98   50   52 1    
    99   50  106 1    
   100   51  107 1    
   101   51  108 1    
   102   51  109 1    
   103   52   53 2    
   104   52   54 am   BACKBONE|DICT|INTERRES
   105   54   55 1    
   106   54  110 1    
   107   55   56 1    
   108   55   59 1    
   109   55  111 1    
   110   56   57 am   BACKBONE|DICT|INTERRES
   111   56   58 2    
   112   57  112 1    
   113   57  113 1    
   114   59   60 1    
   115   59  114 1    
   116   59  115 1    
   117   60   61 1    
   118   61  116 1    
   119   61  117 1    
@<TRIPOS>SUBSTRUCTURE
     1 UNK         1 GROUP             0       ****    0 ROOT    
