@<TRIPOS>MOLECULE
3R8
117   119    1
SMALL
USER_CHARGES


@<TRIPOS>ATOM
      1 CA         14.5476  -24.5219  -47.9933 C.3       0 UNK        -0.2013 
      2 C          14.9634  -24.7429  -46.5467 C.2       0 UNK         0.4866 
      3 O          14.4711  -24.0481  -45.6581 O.2       0 UNK        -0.5176 
      4 N          15.8722  -25.7004  -46.3084 N.am      1 UNK        -0.4884 
      5 CA         16.4032  -26.0844  -44.9899 C.3       1 UNK         0.0853 
      6 C6         15.3013  -26.6375  -44.0412 C.3       10 UNK        -0.0849 
      7 S7         15.8878  -27.8392  -42.7959 S.3       10 UNK        -0.2776 
      8 C8         16.1749  -29.3527  -43.7725 C.3       10 UNK         0.0316 
      9 C9         17.6651  -29.6212  -43.9374 C.ar      10 UNK        -0.0863 
     10 C10        18.4037  -30.1341  -42.8670 C.ar      10 UNK        -0.1009 
     11 C11        19.7838  -30.3565  -42.9827 C.ar      10 UNK        -0.0712 
     12 C12        20.4125  -30.0656  -44.1982 C.ar      10 UNK        -0.0894 
     13 C13        19.6850  -29.5617  -45.2804 C.ar      10 UNK        -0.0745 
     14 C14        18.3086  -29.3589  -45.1484 C.ar      10 UNK        -0.0972 
     15 C15        20.3727  -29.2529  -46.6023 C.3       10 UNK         0.0209 
     16 S16        20.2711  -27.4831  -47.0263 S.3       10 UNK        -0.2568 
     17 C17        21.8133  -26.7905  -46.3226 C.3       10 UNK        -0.0983 
     18 CA         21.6273  -25.9188  -45.0473 C.3       3 UNK         0.0876 
     19 N          20.4713  -25.0291  -45.1727 N.am      3 UNK        -0.4424 
     20 C          20.2857  -23.8427  -44.5821 C.2       2 UNK         0.4918 
     21 O          21.1119  -23.3059  -43.8458 O.2       2 UNK        -0.4875 
     22 CA         18.9273  -23.1603  -44.8381 C.3       2 UNK         0.0481 
     23 CB         19.0576  -22.1021  -45.9444 C.3       2 UNK        -0.1831 
     24 N          17.8786  -24.1203  -45.2059 N.am      2 UNK        -0.4498 
     25 C          17.3212  -25.0048  -44.3629 C.2       1 UNK         0.5027 
     26 O          17.5631  -25.0137  -43.1561 O.2       1 UNK        -0.4969 
     27 C          21.6394  -26.7499  -43.7425 C.2       3 UNK         0.5005 
     28 O          22.4739  -27.6496  -43.6202 O.2       3 UNK        -0.5279 
     29 N          20.7623  -26.4372  -42.7738 N.am      4 UNK        -0.4463 
     30 CA         20.6463  -27.0777  -41.4564 C.3       4 UNK         0.0283 
     31 CB         19.2830  -26.7234  -40.8394 C.3       4 UNK        -0.1875 
     32 C          21.8272  -26.7846  -40.5042 C.2       4 UNK         0.4949 
     33 O          21.6274  -26.3434  -39.3717 O.2       4 UNK        -0.5039 
     34 N          23.0407  -27.0492  -40.9888 N.am      5 UNK        -0.4663 
     35 CA         24.3242  -26.9374  -40.3038 C.3       5 UNK         0.0242 
     36 CB         24.7976  -25.4699  -40.2935 C.3       5 UNK        -0.1982 
     37 C          25.3075  -27.8929  -40.9991 C.2       5 UNK         0.5017 
     38 O          26.4062  -27.4881  -41.3829 O.2       5 UNK        -0.5012 
     39 N          24.8602  -29.1383  -41.1928 N.am      6 UNK        -0.4439 
     40 CA         25.5589  -30.2132  -41.8902 C.3       6 UNK         0.0297 
     41 CB         24.9653  -30.3551  -43.3034 C.3       6 UNK        -0.2006 
     42 C          25.3852  -31.5116  -41.0950 C.2       6 UNK         0.4892 
     43 O          24.4836  -31.5966  -40.2572 O.2       6 UNK        -0.5089 
     44 N          26.2283  -32.5094  -41.3962 N.am      7 UNK        -0.4243 
     45 CA         26.2992  -33.8107  -40.7156 C.3       7 UNK         0.0196 
     46 CB         27.4151  -34.6550  -41.3519 C.3       7 UNK        -0.2007 
     47 C          24.9810  -34.6059  -40.6829 C.2       7 UNK         0.5020 
     48 O          24.7526  -35.3504  -39.7295 O.2       7 UNK        -0.5147 
     49 N          24.1161  -34.4034  -41.6871 N.am      8 UNK        -0.4734 
     50 CA         22.7621  -34.9667  -41.7567 C.3       8 UNK         0.0238 
     51 CB         22.1595  -34.6559  -43.1371 C.3       8 UNK        -0.1912 
     52 C          21.8217  -34.4829  -40.6333 C.2       8 UNK         0.5038 
     53 O          20.8631  -35.1866  -40.3133 O.2       8 UNK        -0.5046 
     54 N          22.1181  -33.3117  -40.0563 N.am      9 UNK        -0.4200 
     55 CA         21.4416  -32.7353  -38.8870 C.3       9 UNK         0.0839 
     56 C          22.1485  -33.0920  -37.5447 C.2       9 UNK         0.5513 
     57 N          23.2046  -33.8982  -37.5255 N.am      9 UNK        -0.7519 
     58 O          21.7144  -32.6449  -36.4861 O.2       9 UNK        -0.4960 
     59 C59        21.2531  -31.2019  -39.0601 C.3       10 UNK        -0.0876 
     60 S60        19.8750  -30.7793  -40.1768 S.3       10 UNK        -0.2414 
     61 C61        20.6352  -30.9061  -41.8337 C.3       10 UNK         0.0169 
     62 H62        13.4751  -24.6810  -48.1029 H         1 UNK         0.0903 
     63 H63        14.7727  -23.4998  -48.2965 H         1 UNK         0.0903 
     64 H64        15.0616  -25.1990  -48.6753 H         1 UNK         0.0903 
     65 H65        16.2341  -26.2320  -47.0895 H         1 UNK         0.3096 
     66 H66        17.0831  -26.9060  -45.2043 H         1 UNK         0.1121 
     67 H67        14.5201  -27.1318  -44.6209 H         1 UNK         0.0849 
     68 H68        14.8001  -25.8181  -43.5228 H         1 UNK         0.0849 
     69 H69        15.7122  -30.1963  -43.2580 H         1 UNK         0.0865 
     70 H70        15.6800  -29.2831  -44.7424 H         1 UNK         0.0865 
     71 H71        17.8882  -30.3442  -41.9411 H         1 UNK         0.1346 
     72 H72        21.4780  -30.2220  -44.2987 H         1 UNK         0.1412 
     73 H73        17.7449  -28.9842  -45.9916 H         1 UNK         0.1426 
     74 H74        19.8814  -29.8256  -47.3901 H         1 UNK         0.0716 
     75 H75        21.4135  -29.5799  -46.5959 H         1 UNK         0.0716 
     76 H76        22.5504  -27.5815  -46.1745 H         1 UNK         0.0695 
     77 H77        22.2419  -26.1608  -47.1037 H         1 UNK         0.0695 
     78 H78        22.5135  -25.2849  -44.9701 H         1 UNK         0.0983 
     79 H79        19.7356  -25.3859  -45.7648 H         1 UNK         0.3095 
     80 H80        18.6274  -22.6570  -43.9165 H         1 UNK         0.0454 
     81 H81        18.1187  -21.5694  -46.0968 H         1 UNK         0.0851 
     82 H82        19.8112  -21.3575  -45.6841 H         1 UNK         0.0851 
     83 H83        19.3527  -22.5440  -46.8970 H         1 UNK         0.0851 
     84 H84        17.6079  -24.1560  -46.1783 H         1 UNK         0.2976 
     85 H85        20.1248  -25.6730  -42.9469 H         1 UNK         0.3116 
     86 H86        20.6524  -28.1532  -41.6174 H         1 UNK         0.0646 
     87 H87        19.1797  -25.6508  -40.6727 H         1 UNK         0.0847 
     88 H88        19.1438  -27.2231  -39.8798 H         1 UNK         0.0847 
     89 H89        18.4663  -27.0443  -41.4853 H         1 UNK         0.0847 
     90 H90        23.0807  -27.3983  -41.9477 H         1 UNK         0.3040 
     91 H91        24.2122  -27.2790  -39.2725 H         1 UNK         0.1015 
     92 H92        24.0884  -24.8266  -39.7725 H         1 UNK         0.0786 
     93 H93        24.9213  -25.0815  -41.3051 H         1 UNK         0.0786 
     94 H94        25.7567  -25.3718  -39.7834 H         1 UNK         0.0786 
     95 H95        23.9864  -29.4151  -40.7659 H         1 UNK         0.3172 
     96 H96        26.6260  -29.9916  -41.9582 H         1 UNK         0.0595 
     97 H97        25.0602  -29.4257  -43.8658 H         1 UNK         0.0839 
     98 H98        23.9058  -30.6130  -43.2724 H         1 UNK         0.0839 
     99 H99        25.4764  -31.1312  -43.8741 H         1 UNK         0.0839 
    100 H100       26.9208  -32.3467  -42.1136 H         1 UNK         0.2998 
    101 H101       26.5729  -33.6119  -39.6772 H         1 UNK         0.0822 
    102 H102       27.2195  -34.8536  -42.4064 H         1 UNK         0.0787 
    103 H103       28.3827  -34.1584  -41.2761 H         1 UNK         0.0787 
    104 H104       27.5097  -35.6197  -40.8508 H         1 UNK         0.0787 
    105 H105       24.3901  -33.7765  -42.4295 H         1 UNK         0.3055 
    106 H106       22.8466  -36.0510  -41.6542 H         1 UNK         0.1106 
    107 H107       22.7468  -35.1082  -43.9363 H         1 UNK         0.0828 
    108 H108       21.1461  -35.0515  -43.2204 H         1 UNK         0.0828 
    109 H109       22.1071  -33.5833  -43.3258 H         1 UNK         0.0828 
    110 H110       22.9615  -32.8241  -40.3421 H         1 UNK         0.2931 
    111 H111       20.4482  -33.1791  -38.8006 H         1 UNK         0.0412 
    112 H112       23.6350  -34.1173  -36.6411 H         1 UNK         0.3472 
    113 H113       23.5734  -34.3056  -38.3760 H         1 UNK         0.3472 
    114 H114       22.1712  -30.7215  -39.3990 H         1 UNK         0.0970 
    115 H115       21.0141  -30.7294  -38.1056 H         1 UNK         0.0970 
    116 H116       21.5974  -30.3916  -41.8163 H         1 UNK         0.0612 
    117 H117       20.8417  -31.9542  -42.0433 H         1 UNK         0.0612 
@<TRIPOS>BOND
     1    1    2 1    
     2    1   62 1    
     3    1   63 1    
     4    1   64 1    
     5    2    3 2    
     6    2    4 am   BACKBONE|DICT|INTERRES
     7    4    5 1    
     8    4   65 1    
     9    5    6 1    
    10    5   25 1    
    11    5   66 1    
    12    6    7 1    
    13    6   67 1    
    14    6   68 1    
    15    7    8 1    
    16    8    9 1    
    17    8   69 1    
    18    8   70 1    
    19    9   10 ar   
    20    9   14 ar   
    21   10   11 ar   
    22   10   71 1    
    23   11   12 ar   
    24   11   61 1    
    25   12   13 ar   
    26   12   72 1    
    27   13   14 ar   
    28   13   15 1    
    29   14   73 1    
    30   15   16 1    
    31   15   74 1    
    32   15   75 1    
    33   16   17 1    
    34   17   18 1    
    35   17   76 1    
    36   17   77 1    
    37   18   19 1    
    38   18   27 1    
    39   18   78 1    
    40   19   20 am   BACKBONE|DICT|INTERRES
    41   19   79 1    
    42   20   21 2    
    43   20   22 1    
    44   22   23 1    
    45   22   24 1    
    46   22   80 1    
    47   23   81 1    
    48   23   82 1    
    49   23   83 1    
    50   24   25 am   BACKBONE|DICT|INTERRES
    51   24   84 1    
    52   25   26 2    
    53   27   28 2    
    54   27   29 am   BACKBONE|DICT|INTERRES
    55   29   30 1    
    56   29   85 1    
    57   30   31 1    
    58   30   32 1    
    59   30   86 1    
    60   31   87 1    
    61   31   88 1    
    62   31   89 1    
    63   32   33 2    
    64   32   34 am   BACKBONE|DICT|INTERRES
    65   34   35 1    
    66   34   90 1    
    67   35   36 1    
    68   35   37 1    
    69   35   91 1    
    70   36   92 1    
    71   36   93 1    
    72   36   94 1    
    73   37   38 2    
    74   37   39 am   BACKBONE|DICT|INTERRES
    75   39   40 1    
    76   39   95 1    
    77   40   41 1    
    78   40   42 1    
    79   40   96 1    
    80   41   97 1    
    81   41   98 1    
    82   41   99 1    
    83   42   43 2    
    84   42   44 am   BACKBONE|DICT|INTERRES
    85   44   45 1    
    86   44  100 1    
    87   45   46 1    
    88   45   47 1    
    89   45  101 1    
    90   46  102 1    
    91   46  103 1    
    92   46  104 1    
    93   47   48 2    
    94   47   49 am   BACKBONE|DICT|INTERRES
    95   49   50 1    
    96   49  105 1    
    97   50   51 1    
    98   50   52 1    
    99   50  106 1    
   100   51  107 1    
   101   51  108 1    
   102   51  109 1    
   103   52   53 2    
   104   52   54 am   BACKBONE|DICT|INTERRES
   105   54   55 1    
   106   54  110 1    
   107   55   56 1    
   108   55   59 1    
   109   55  111 1    
   110   56   57 am   BACKBONE|DICT|INTERRES
   111   56   58 2    
   112   57  112 1    
   113   57  113 1    
   114   59   60 1    
   115   59  114 1    
   116   59  115 1    
   117   60   61 1    
   118   61  116 1    
   119   61  117 1    
@<TRIPOS>SUBSTRUCTURE
     1 UNK         1 GROUP             0       ****    0 ROOT    
