@<TRIPOS>MOLECULE
3R8
117   119    1
SMALL
USER_CHARGES


@<TRIPOS>ATOM
      1 CA         16.4319  -29.2207  -41.3420 C.3       0 UNK        -0.2013 
      2 C          16.4308  -27.8649  -42.0286 C.2       0 UNK         0.4866 
      3 O          16.0153  -26.8753  -41.4243 O.2       0 UNK        -0.5176 
      4 N          16.8778  -27.8194  -43.2890 N.am      1 UNK        -0.4884 
      5 CA         16.9472  -26.6051  -44.1123 C.3       1 UNK         0.0853 
      6 C6         16.5860  -26.8757  -45.6011 C.3       10 UNK        -0.0849 
      7 S7         15.0623  -27.8729  -45.7875 S.3       10 UNK        -0.2776 
      8 C8         15.5821  -29.2479  -46.8704 C.3       10 UNK         0.0316 
      9 C9         16.8749  -29.9242  -46.4266 C.ar      10 UNK        -0.0863 
     10 C10        16.9265  -30.6740  -45.2459 C.ar      10 UNK        -0.1009 
     11 C11        18.1148  -31.3049  -44.8590 C.ar      10 UNK        -0.0712 
     12 C12        19.2488  -31.1897  -45.6680 C.ar      10 UNK        -0.0894 
     13 C13        19.2140  -30.4285  -46.8402 C.ar      10 UNK        -0.0745 
     14 C14        18.0225  -29.8062  -47.2174 C.ar      10 UNK        -0.0972 
     15 C15        20.4610  -30.2750  -47.7014 C.3       10 UNK         0.0209 
     16 S16        21.2745  -28.6631  -47.4471 S.3       10 UNK        -0.2568 
     17 C17        21.8534  -28.8448  -45.7285 C.3       10 UNK        -0.0983 
     18 CA         22.2243  -27.5151  -45.0292 C.3       3 UNK         0.0876 
     19 N          21.1775  -26.5000  -45.1695 N.am      3 UNK        -0.4424 
     20 C          21.2765  -25.2192  -44.7890 C.2       2 UNK         0.4918 
     21 O          22.3025  -24.7223  -44.3237 O.2       2 UNK        -0.4875 
     22 CA         20.0073  -24.3501  -44.9154 C.3       2 UNK         0.0481 
     23 CB         20.0786  -23.4908  -46.1876 C.3       2 UNK        -0.1831 
     24 N          18.7354  -25.0908  -44.9041 N.am      2 UNK        -0.4498 
     25 C          18.3284  -25.9309  -43.9386 C.2       1 UNK         0.5027 
     26 O          19.0238  -26.1956  -42.9552 O.2       1 UNK        -0.4969 
     27 C          22.5635  -27.8344  -43.5588 C.2       3 UNK         0.5005 
     28 O          23.6785  -28.2873  -43.2963 O.2       3 UNK        -0.5279 
     29 N          21.6071  -27.6414  -42.6328 N.am      4 UNK        -0.4463 
     30 CA         21.6643  -28.0888  -41.2343 C.3       4 UNK         0.0283 
     31 CB         20.3430  -27.7560  -40.5271 C.3       4 UNK        -0.1875 
     32 C          22.8568  -27.5643  -40.4180 C.2       4 UNK         0.4949 
     33 O          23.2283  -28.2065  -39.4377 O.2       4 UNK        -0.5039 
     34 N          23.4708  -26.4569  -40.8555 N.am      5 UNK        -0.4663 
     35 CA         24.7294  -25.9334  -40.3166 C.3       5 UNK         0.0242 
     36 CB         25.0232  -24.5717  -40.9662 C.3       5 UNK        -0.1982 
     37 C          25.9281  -26.8879  -40.4994 C.2       5 UNK         0.5017 
     38 O          26.8674  -26.8189  -39.7058 O.2       5 UNK        -0.5012 
     39 N          25.8733  -27.7528  -41.5224 N.am      6 UNK        -0.4439 
     40 CA         26.8684  -28.7871  -41.8095 C.3       6 UNK         0.0297 
     41 CB         27.4102  -28.5861  -43.2345 C.3       6 UNK        -0.2006 
     42 C          26.2761  -30.1972  -41.6578 C.2       6 UNK         0.4892 
     43 O          26.9555  -31.0782  -41.1303 O.2       6 UNK        -0.5089 
     44 N          25.0356  -30.3958  -42.1277 N.am      7 UNK        -0.4243 
     45 CA         24.3442  -31.6881  -42.1435 C.3       7 UNK         0.0196 
     46 CB         23.1747  -31.6243  -43.1420 C.3       7 UNK        -0.2007 
     47 C          23.8413  -32.1475  -40.7651 C.2       7 UNK         0.5020 
     48 O          23.6442  -33.3480  -40.5787 O.2       7 UNK        -0.5147 
     49 N          23.6154  -31.1990  -39.8417 N.am      8 UNK        -0.4734 
     50 CA         23.1004  -31.3903  -38.4762 C.3       8 UNK         0.0238 
     51 CB         24.1028  -32.1952  -37.6210 C.3       8 UNK        -0.1912 
     52 C          21.6700  -31.9682  -38.4080 C.2       8 UNK         0.5038 
     53 O          21.2806  -32.4909  -37.3622 O.2       8 UNK        -0.5046 
     54 N          20.9089  -31.8604  -39.5061 N.am      9 UNK        -0.4200 
     55 CA         19.5356  -32.3709  -39.6365 C.3       9 UNK         0.0839 
     56 C          18.4301  -31.4863  -38.9889 C.2       9 UNK         0.5513 
     57 N          18.7523  -30.3429  -38.3961 N.am      9 UNK        -0.7519 
     58 O          17.2587  -31.8550  -39.0087 O.2       9 UNK        -0.4960 
     59 C59        19.2145  -32.7797  -41.0984 C.3       10 UNK        -0.0876 
     60 S60        19.2542  -31.4181  -42.3171 S.3       10 UNK        -0.2414 
     61 C61        18.1740  -32.1470  -43.5927 C.3       10 UNK         0.0169 
     62 H62        17.2427  -29.2682  -40.6175 H         1 UNK         0.0903 
     63 H63        15.4927  -29.3807  -40.8134 H         1 UNK         0.0903 
     64 H64        16.5584  -30.0357  -42.0531 H         1 UNK         0.0903 
     65 H65        17.2237  -28.6602  -43.7296 H         1 UNK         0.3096 
     66 H66        16.2162  -25.8863  -43.7350 H         1 UNK         0.1121 
     67 H67        17.4167  -27.3567  -46.1169 H         1 UNK         0.0849 
     68 H68        16.4157  -25.9351  -46.1273 H         1 UNK         0.0849 
     69 H69        14.7841  -29.9910  -46.9017 H         1 UNK         0.0865 
     70 H70        15.6774  -28.8683  -47.8890 H         1 UNK         0.0865 
     71 H71        16.0379  -30.7702  -44.6365 H         1 UNK         0.1346 
     72 H72        20.1653  -31.6821  -45.3721 H         1 UNK         0.1412 
     73 H73        17.9949  -29.2225  -48.1278 H         1 UNK         0.1426 
     74 H74        21.1735  -31.0756  -47.4959 H         1 UNK         0.0716 
     75 H75        20.1899  -30.3714  -48.7537 H         1 UNK         0.0716 
     76 H76        21.0757  -29.3464  -45.1533 H         1 UNK         0.0695 
     77 H77        22.7100  -29.5219  -45.7365 H         1 UNK         0.0695 
     78 H78        23.1299  -27.1198  -45.4942 H         1 UNK         0.0983 
     79 H79        20.3085  -26.8170  -45.5719 H         1 UNK         0.3095 
     80 H80        19.9944  -23.6795  -44.0539 H         1 UNK         0.0454 
     81 H81        20.0584  -24.1029  -47.0902 H         1 UNK         0.0851 
     82 H82        19.2494  -22.7851  -46.2396 H         1 UNK         0.0851 
     83 H83        20.9988  -22.9051  -46.2129 H         1 UNK         0.0851 
     84 H84        18.1175  -24.9183  -45.6839 H         1 UNK         0.2976 
     85 H85        20.7310  -27.2134  -42.9206 H         1 UNK         0.3116 
     86 H86        21.7582  -29.1755  -41.2579 H         1 UNK         0.0646 
     87 H87        20.1518  -26.6824  -40.5160 H         1 UNK         0.0847 
     88 H88        19.4997  -28.2424  -41.0171 H         1 UNK         0.0847 
     89 H89        20.3535  -28.0943  -39.4906 H         1 UNK         0.0847 
     90 H90        23.0963  -25.9984  -41.6746 H         1 UNK         0.3040 
     91 H91        24.5963  -25.7838  -39.2428 H         1 UNK         0.1015 
     92 H92        25.1386  -24.6571  -42.0477 H         1 UNK         0.0786 
     93 H93        25.9452  -24.1414  -40.5723 H         1 UNK         0.0786 
     94 H94        24.2241  -23.8568  -40.7691 H         1 UNK         0.0786 
     95 H95        25.0484  -27.7440  -42.1175 H         1 UNK         0.3172 
     96 H96        27.7090  -28.7110  -41.1167 H         1 UNK         0.0595 
     97 H97        28.1497  -29.3486  -43.4830 H         1 UNK         0.0839 
     98 H98        27.8977  -27.6166  -43.3378 H         1 UNK         0.0839 
     99 H99        26.6174  -28.6426  -43.9819 H         1 UNK         0.0839 
    100 H100       24.5507  -29.6208  -42.5782 H         1 UNK         0.2998 
    101 H101       25.0493  -32.4434  -42.4977 H         1 UNK         0.0822 
    102 H102       22.6608  -32.5846  -43.2059 H         1 UNK         0.0787 
    103 H103       22.4325  -30.8799  -42.8542 H         1 UNK         0.0787 
    104 H104       23.5237  -31.3782  -44.1449 H         1 UNK         0.0787 
    105 H105       23.8090  -30.2355  -40.0880 H         1 UNK         0.3055 
    106 H106       23.0306  -30.3955  -38.0345 H         1 UNK         0.1106 
    107 H107       25.1026  -31.7640  -37.6715 H         1 UNK         0.0828 
    108 H108       23.8080  -32.2003  -36.5709 H         1 UNK         0.0828 
    109 H109       24.1687  -33.2348  -37.9430 H         1 UNK         0.0828 
    110 H110       21.2938  -31.4125  -40.3230 H         1 UNK         0.2931 
    111 H111       19.4987  -33.3001  -39.0644 H         1 UNK         0.0412 
    112 H112       18.0284  -29.7898  -37.9658 H         1 UNK         0.3472 
    113 H113       19.7132  -30.0499  -38.3433 H         1 UNK         0.3472 
    114 H114       19.9266  -33.5390  -41.4256 H         1 UNK         0.0970 
    115 H115       18.2378  -33.2660  -41.1363 H         1 UNK         0.0970 
    116 H116       18.5432  -33.1415  -43.8482 H         1 UNK         0.0612 
    117 H117       17.1749  -32.2856  -43.1767 H         1 UNK         0.0612 
@<TRIPOS>BOND
     1    1    2 1    
     2    1   62 1    
     3    1   63 1    
     4    1   64 1    
     5    2    3 2    
     6    2    4 am   BACKBONE|DICT|INTERRES
     7    4    5 1    
     8    4   65 1    
     9    5    6 1    
    10    5   25 1    
    11    5   66 1    
    12    6    7 1    
    13    6   67 1    
    14    6   68 1    
    15    7    8 1    
    16    8    9 1    
    17    8   69 1    
    18    8   70 1    
    19    9   10 ar   
    20    9   14 ar   
    21   10   11 ar   
    22   10   71 1    
    23   11   12 ar   
    24   11   61 1    
    25   12   13 ar   
    26   12   72 1    
    27   13   14 ar   
    28   13   15 1    
    29   14   73 1    
    30   15   16 1    
    31   15   74 1    
    32   15   75 1    
    33   16   17 1    
    34   17   18 1    
    35   17   76 1    
    36   17   77 1    
    37   18   19 1    
    38   18   27 1    
    39   18   78 1    
    40   19   20 am   BACKBONE|DICT|INTERRES
    41   19   79 1    
    42   20   21 2    
    43   20   22 1    
    44   22   23 1    
    45   22   24 1    
    46   22   80 1    
    47   23   81 1    
    48   23   82 1    
    49   23   83 1    
    50   24   25 am   BACKBONE|DICT|INTERRES
    51   24   84 1    
    52   25   26 2    
    53   27   28 2    
    54   27   29 am   BACKBONE|DICT|INTERRES
    55   29   30 1    
    56   29   85 1    
    57   30   31 1    
    58   30   32 1    
    59   30   86 1    
    60   31   87 1    
    61   31   88 1    
    62   31   89 1    
    63   32   33 2    
    64   32   34 am   BACKBONE|DICT|INTERRES
    65   34   35 1    
    66   34   90 1    
    67   35   36 1    
    68   35   37 1    
    69   35   91 1    
    70   36   92 1    
    71   36   93 1    
    72   36   94 1    
    73   37   38 2    
    74   37   39 am   BACKBONE|DICT|INTERRES
    75   39   40 1    
    76   39   95 1    
    77   40   41 1    
    78   40   42 1    
    79   40   96 1    
    80   41   97 1    
    81   41   98 1    
    82   41   99 1    
    83   42   43 2    
    84   42   44 am   BACKBONE|DICT|INTERRES
    85   44   45 1    
    86   44  100 1    
    87   45   46 1    
    88   45   47 1    
    89   45  101 1    
    90   46  102 1    
    91   46  103 1    
    92   46  104 1    
    93   47   48 2    
    94   47   49 am   BACKBONE|DICT|INTERRES
    95   49   50 1    
    96   49  105 1    
    97   50   51 1    
    98   50   52 1    
    99   50  106 1    
   100   51  107 1    
   101   51  108 1    
   102   51  109 1    
   103   52   53 2    
   104   52   54 am   BACKBONE|DICT|INTERRES
   105   54   55 1    
   106   54  110 1    
   107   55   56 1    
   108   55   59 1    
   109   55  111 1    
   110   56   57 am   BACKBONE|DICT|INTERRES
   111   56   58 2    
   112   57  112 1    
   113   57  113 1    
   114   59   60 1    
   115   59  114 1    
   116   59  115 1    
   117   60   61 1    
   118   61  116 1    
   119   61  117 1    
@<TRIPOS>SUBSTRUCTURE
     1 UNK         1 GROUP             0       ****    0 ROOT    
