@<TRIPOS>MOLECULE
3R8
117   119    1
SMALL
USER_CHARGES


@<TRIPOS>ATOM
      1 CA         17.8849  -22.1457  -41.5359 C.3       0 UNK        -0.2013 
      2 C          17.1752  -22.8959  -42.6534 C.2       0 UNK         0.4866 
      3 O          16.3185  -22.3215  -43.3266 O.2       0 UNK        -0.5176 
      4 N          17.5234  -24.1730  -42.8501 N.am      1 UNK        -0.4884 
      5 CA         17.0211  -25.0245  -43.9348 C.3       1 UNK         0.0853 
      6 C6         16.8561  -26.4862  -43.4431 C.3       10 UNK        -0.0849 
      7 S7         15.6562  -27.4369  -44.4421 S.3       10 UNK        -0.2776 
      8 C8         15.7889  -29.1008  -43.7076 C.3       10 UNK         0.0316 
      9 C9         17.2210  -29.6209  -43.6700 C.ar      10 UNK        -0.0863 
     10 C10        17.7750  -30.0474  -42.4610 C.ar      10 UNK        -0.1009 
     11 C11        19.0875  -30.5216  -42.4091 C.ar      10 UNK        -0.0712 
     12 C12        19.8532  -30.5612  -43.5789 C.ar      10 UNK        -0.0894 
     13 C13        19.3192  -30.1173  -44.7955 C.ar      10 UNK        -0.0745 
     14 C14        17.9950  -29.6695  -44.8335 C.ar      10 UNK        -0.0972 
     15 C15        20.1313  -30.1247  -46.0901 C.3       10 UNK         0.0209 
     16 S16        21.9135  -29.7534  -45.9185 S.3       10 UNK        -0.2568 
     17 C17        21.9793  -28.2552  -44.8784 C.3       10 UNK        -0.0983 
     18 CA         21.8296  -26.9226  -45.6597 C.3       3 UNK         0.0876 
     19 N          20.4486  -26.7481  -46.1232 N.am      3 UNK        -0.4424 
     20 C          20.0745  -26.0421  -47.1967 C.2       2 UNK         0.4918 
     21 O          20.8633  -25.5189  -47.9832 O.2       2 UNK        -0.4875 
     22 CA         18.5577  -25.8533  -47.4031 C.3       2 UNK         0.0481 
     23 CB         17.9942  -26.9570  -48.3116 C.3       2 UNK        -0.1831 
     24 N          17.7820  -25.8049  -46.1546 N.am      2 UNK        -0.4498 
     25 C          17.9269  -24.8902  -45.1848 C.2       1 UNK         0.5027 
     26 O          18.7586  -23.9828  -45.2528 O.2       1 UNK        -0.4969 
     27 C          22.2859  -25.7586  -44.7477 C.2       3 UNK         0.5005 
     28 O          23.4416  -25.7628  -44.3229 O.2       3 UNK        -0.5279 
     29 N          21.3724  -24.8413  -44.3856 N.am      4 UNK        -0.4463 
     30 CA         21.3681  -24.0080  -43.1774 C.3       4 UNK         0.0283 
     31 CB         22.5977  -23.0808  -43.0626 C.3       4 UNK        -0.1875 
     32 C          21.1522  -24.9117  -41.9531 C.2       4 UNK         0.4949 
     33 O          20.0170  -25.0401  -41.4927 O.2       4 UNK        -0.5039 
     34 N          22.2218  -25.5820  -41.5183 N.am      5 UNK        -0.4663 
     35 CA         22.2336  -26.6700  -40.5477 C.3       5 UNK         0.0242 
     36 CB         22.2399  -26.1076  -39.1155 C.3       5 UNK        -0.1982 
     37 C          23.4845  -27.5144  -40.8256 C.2       5 UNK         0.5017 
     38 O          24.4772  -26.9759  -41.3235 O.2       5 UNK        -0.5012 
     39 N          23.4312  -28.8075  -40.4940 N.am      6 UNK        -0.4439 
     40 CA         24.5264  -29.7575  -40.6741 C.3       6 UNK         0.0297 
     41 CB         24.5098  -30.3172  -42.1090 C.3       6 UNK        -0.2006 
     42 C          24.3875  -30.8746  -39.6371 C.2       6 UNK         0.4892 
     43 O          23.2614  -31.2096  -39.2578 O.2       6 UNK        -0.5089 
     44 N          25.5290  -31.4329  -39.2104 N.am      7 UNK        -0.4243 
     45 CA         25.6339  -32.5150  -38.2271 C.3       7 UNK         0.0196 
     46 CB         27.1169  -32.8000  -37.9365 C.3       7 UNK        -0.2007 
     47 C          24.9126  -33.7820  -38.7108 C.2       7 UNK         0.5020 
     48 O          25.3145  -34.3593  -39.7236 O.2       7 UNK        -0.5147 
     49 N          23.8200  -34.1380  -38.0184 N.am      8 UNK        -0.4734 
     50 CA         22.8687  -35.2123  -38.3498 C.3       8 UNK         0.0238 
     51 CB         23.5292  -36.5941  -38.1565 C.3       8 UNK        -0.1912 
     52 C          22.2200  -35.0644  -39.7451 C.2       8 UNK         0.5038 
     53 O          21.7497  -36.0568  -40.3045 O.2       8 UNK        -0.5046 
     54 N          22.2275  -33.8371  -40.2848 N.am      9 UNK        -0.4200 
     55 CA         21.8387  -33.4820  -41.6567 C.3       9 UNK         0.0839 
     56 C          22.7222  -34.1305  -42.7652 C.2       9 UNK         0.5513 
     57 N          23.9493  -34.5459  -42.4687 N.am      9 UNK        -0.7519 
     58 O          22.3077  -34.2309  -43.9169 O.2       9 UNK        -0.4960 
     59 C59        20.3109  -33.6154  -41.9161 C.3       10 UNK        -0.0876 
     60 S60        19.2901  -32.7064  -40.7018 S.3       10 UNK        -0.2414 
     61 C61        19.6760  -30.9657  -41.0793 C.3       10 UNK         0.0169 
     62 H62        17.1558  -21.6905  -40.8662 H         1 UNK         0.0903 
     63 H63        18.5215  -22.8026  -40.9437 H         1 UNK         0.0903 
     64 H64        18.5070  -21.3542  -41.9528 H         1 UNK         0.0903 
     65 H65        18.2789  -24.5666  -42.2944 H         1 UNK         0.3096 
     66 H66        16.0355  -24.6577  -44.2312 H         1 UNK         0.1121 
     67 H67        17.8216  -26.9944  -43.4089 H         1 UNK         0.0849 
     68 H68        16.4826  -26.4936  -42.4174 H         1 UNK         0.0849 
     69 H69        15.3590  -29.0727  -42.7050 H         1 UNK         0.0865 
     70 H70        15.1751  -29.7936  -44.2847 H         1 UNK         0.0865 
     71 H71        17.1856  -30.0134  -41.5547 H         1 UNK         0.1346 
     72 H72        20.8702  -30.9255  -43.5389 H         1 UNK         0.1412 
     73 H73        17.5627  -29.3443  -45.7699 H         1 UNK         0.1426 
     74 H74        19.7119  -29.4142  -46.8026 H         1 UNK         0.0716 
     75 H75        20.0306  -31.1080  -46.5509 H         1 UNK         0.0716 
     76 H76        22.9511  -28.3035  -44.3824 H         1 UNK         0.0695 
     77 H77        21.2479  -28.3111  -44.0720 H         1 UNK         0.0695 
     78 H78        22.5043  -26.9396  -46.5185 H         1 UNK         0.0983 
     79 H79        19.7310  -27.1568  -45.5439 H         1 UNK         0.3095 
     80 H80        18.4177  -24.8963  -47.9098 H         1 UNK         0.0454 
     81 H81        18.5460  -27.0093  -49.2513 H         1 UNK         0.0851 
     82 H82        16.9504  -26.7688  -48.5629 H         1 UNK         0.0851 
     83 H83        18.0537  -27.9398  -47.8443 H         1 UNK         0.0851 
     84 H84        17.0732  -26.5167  -46.0244 H         1 UNK         0.2976 
     85 H85        20.4768  -24.8540  -44.8629 H         1 UNK         0.3116 
     86 H86        20.4912  -23.3636  -43.2546 H         1 UNK         0.0646 
     87 H87        23.5357  -23.6222  -42.9444 H         1 UNK         0.0847 
     88 H88        22.4997  -22.4216  -42.1994 H         1 UNK         0.0847 
     89 H89        22.6917  -22.4463  -43.9436 H         1 UNK         0.0847 
     90 H90        23.0966  -25.4805  -42.0253 H         1 UNK         0.3040 
     91 H91        21.3480  -27.2919  -40.6986 H         1 UNK         0.1015 
     92 H92        23.1101  -25.4745  -38.9369 H         1 UNK         0.0786 
     93 H93        22.2622  -26.9116  -38.3788 H         1 UNK         0.0786 
     94 H94        21.3476  -25.5130  -38.9184 H         1 UNK         0.0786 
     95 H95        22.6218  -29.1878  -40.0187 H         1 UNK         0.3172 
     96 H96        25.4779  -29.2509  -40.4968 H         1 UNK         0.0595 
     97 H97        23.5371  -30.7320  -42.3712 H         1 UNK         0.0839 
     98 H98        25.2498  -31.1086  -42.2354 H         1 UNK         0.0839 
     99 H99        24.7419  -29.5395  -42.8369 H         1 UNK         0.0839 
    100 H100       26.3990  -31.1103  -39.6088 H         1 UNK         0.2998 
    101 H101       25.1679  -32.1695  -37.3018 H         1 UNK         0.0822 
    102 H102       27.6198  -31.9206  -37.5336 H         1 UNK         0.0787 
    103 H103       27.2228  -33.5983  -37.2005 H         1 UNK         0.0787 
    104 H104       27.6527  -33.1122  -38.8341 H         1 UNK         0.0787 
    105 H105       23.5596  -33.5651  -37.2263 H         1 UNK         0.3055 
    106 H106       22.0493  -35.1327  -37.6334 H         1 UNK         0.1106 
    107 H107       22.7990  -37.3975  -38.2615 H         1 UNK         0.0828 
    108 H108       24.3153  -36.7726  -38.8910 H         1 UNK         0.0828 
    109 H109       23.9695  -36.6888  -37.1640 H         1 UNK         0.0828 
    110 H110       22.6229  -33.0762  -39.7430 H         1 UNK         0.2931 
    111 H111       22.0826  -32.4259  -41.7413 H         1 UNK         0.0412 
    112 H112       24.3149  -34.4686  -41.5257 H         1 UNK         0.3472 
    113 H113       24.5176  -34.9547  -43.1932 H         1 UNK         0.3472 
    114 H114       20.0518  -33.2661  -42.9162 H         1 UNK         0.0970 
    115 H115       20.0169  -34.6656  -41.8878 H         1 UNK         0.0970 
    116 H116       19.2679  -30.3462  -40.2793 H         1 UNK         0.0612 
    117 H117       20.7522  -30.7960  -41.0566 H         1 UNK         0.0612 
@<TRIPOS>BOND
     1    1    2 1    
     2    1   62 1    
     3    1   63 1    
     4    1   64 1    
     5    2    3 2    
     6    2    4 am   BACKBONE|DICT|INTERRES
     7    4    5 1    
     8    4   65 1    
     9    5    6 1    
    10    5   25 1    
    11    5   66 1    
    12    6    7 1    
    13    6   67 1    
    14    6   68 1    
    15    7    8 1    
    16    8    9 1    
    17    8   69 1    
    18    8   70 1    
    19    9   10 ar   
    20    9   14 ar   
    21   10   11 ar   
    22   10   71 1    
    23   11   12 ar   
    24   11   61 1    
    25   12   13 ar   
    26   12   72 1    
    27   13   14 ar   
    28   13   15 1    
    29   14   73 1    
    30   15   16 1    
    31   15   74 1    
    32   15   75 1    
    33   16   17 1    
    34   17   18 1    
    35   17   76 1    
    36   17   77 1    
    37   18   19 1    
    38   18   27 1    
    39   18   78 1    
    40   19   20 am   BACKBONE|DICT|INTERRES
    41   19   79 1    
    42   20   21 2    
    43   20   22 1    
    44   22   23 1    
    45   22   24 1    
    46   22   80 1    
    47   23   81 1    
    48   23   82 1    
    49   23   83 1    
    50   24   25 am   BACKBONE|DICT|INTERRES
    51   24   84 1    
    52   25   26 2    
    53   27   28 2    
    54   27   29 am   BACKBONE|DICT|INTERRES
    55   29   30 1    
    56   29   85 1    
    57   30   31 1    
    58   30   32 1    
    59   30   86 1    
    60   31   87 1    
    61   31   88 1    
    62   31   89 1    
    63   32   33 2    
    64   32   34 am   BACKBONE|DICT|INTERRES
    65   34   35 1    
    66   34   90 1    
    67   35   36 1    
    68   35   37 1    
    69   35   91 1    
    70   36   92 1    
    71   36   93 1    
    72   36   94 1    
    73   37   38 2    
    74   37   39 am   BACKBONE|DICT|INTERRES
    75   39   40 1    
    76   39   95 1    
    77   40   41 1    
    78   40   42 1    
    79   40   96 1    
    80   41   97 1    
    81   41   98 1    
    82   41   99 1    
    83   42   43 2    
    84   42   44 am   BACKBONE|DICT|INTERRES
    85   44   45 1    
    86   44  100 1    
    87   45   46 1    
    88   45   47 1    
    89   45  101 1    
    90   46  102 1    
    91   46  103 1    
    92   46  104 1    
    93   47   48 2    
    94   47   49 am   BACKBONE|DICT|INTERRES
    95   49   50 1    
    96   49  105 1    
    97   50   51 1    
    98   50   52 1    
    99   50  106 1    
   100   51  107 1    
   101   51  108 1    
   102   51  109 1    
   103   52   53 2    
   104   52   54 am   BACKBONE|DICT|INTERRES
   105   54   55 1    
   106   54  110 1    
   107   55   56 1    
   108   55   59 1    
   109   55  111 1    
   110   56   57 am   BACKBONE|DICT|INTERRES
   111   56   58 2    
   112   57  112 1    
   113   57  113 1    
   114   59   60 1    
   115   59  114 1    
   116   59  115 1    
   117   60   61 1    
   118   61  116 1    
   119   61  117 1    
@<TRIPOS>SUBSTRUCTURE
     1 UNK         1 GROUP             0       ****    0 ROOT    
