@<TRIPOS>MOLECULE
3R8
117   119    1
SMALL
USER_CHARGES


@<TRIPOS>ATOM
      1 CA         22.4981  -30.8476  -47.3464 C.3       0 UNK        -0.2013 
      2 C          21.3889  -29.8305  -47.1232 C.2       0 UNK         0.4866 
      3 O          21.1974  -28.9445  -47.9558 O.2       0 UNK        -0.5176 
      4 N          20.6726  -29.9497  -45.9957 N.am      1 UNK        -0.4884 
      5 CA         19.5504  -29.0948  -45.5696 C.3       1 UNK         0.0853 
      6 C6         18.3113  -29.1776  -46.5061 C.3       10 UNK        -0.0849 
      7 S7         17.6316  -30.8686  -46.6297 S.3       10 UNK        -0.2776 
      8 C8         16.1274  -30.7486  -45.6059 C.3       10 UNK         0.0316 
      9 C9         16.4584  -30.7547  -44.1205 C.ar      10 UNK        -0.0863 
     10 C10        16.5809  -31.9674  -43.4390 C.ar      10 UNK        -0.1009 
     11 C11        16.9137  -31.9863  -42.0828 C.ar      10 UNK        -0.0712 
     12 C12        17.1167  -30.7796  -41.4072 C.ar      10 UNK        -0.0894 
     13 C13        16.9865  -29.5536  -42.0680 C.ar      10 UNK        -0.0745 
     14 C14        16.6428  -29.5538  -43.4283 C.ar      10 UNK        -0.0972 
     15 C15        17.2304  -28.2725  -41.2646 C.3       10 UNK         0.0209 
     16 S16        17.3638  -26.7423  -42.2521 S.3       10 UNK        -0.2568 
     17 C17        18.2885  -25.6500  -41.1212 C.3       10 UNK        -0.0983 
     18 CA         19.8195  -25.8667  -41.2113 C.3       3 UNK         0.0876 
     19 N          20.3103  -25.8202  -42.5937 N.am      3 UNK        -0.4424 
     20 C          21.5797  -25.9843  -42.9844 C.2       2 UNK         0.4918 
     21 O          22.5280  -26.0868  -42.2073 O.2       2 UNK        -0.4875 
     22 CA         21.8091  -26.1416  -44.4958 C.3       2 UNK         0.0481 
     23 CB         23.3004  -26.0850  -44.8744 C.3       2 UNK        -0.1831 
     24 N          21.2547  -27.4226  -44.9361 N.am      2 UNK        -0.4498 
     25 C          19.9736  -27.6353  -45.2714 C.2       1 UNK         0.5027 
     26 O          19.1372  -26.7311  -45.3104 O.2       1 UNK        -0.4969 
     27 C          20.5751  -24.9018  -40.2737 C.2       3 UNK         0.5005 
     28 O          20.8688  -23.7700  -40.6660 O.2       3 UNK        -0.5279 
     29 N          20.9126  -25.3934  -39.0725 N.am      4 UNK        -0.4463 
     30 CA         21.7490  -24.7842  -38.0265 C.3       4 UNK         0.0283 
     31 CB         21.1879  -23.4286  -37.5534 C.3       4 UNK        -0.1875 
     32 C          23.2467  -24.6746  -38.3788 C.2       4 UNK         0.4949 
     33 O          24.0763  -24.8536  -37.4871 O.2       4 UNK        -0.5039 
     34 N          23.5783  -24.3945  -39.6455 N.am      5 UNK        -0.4663 
     35 CA         24.9512  -24.2812  -40.1437 C.3       5 UNK         0.0242 
     36 CB         24.9530  -23.5033  -41.4706 C.3       5 UNK        -0.1982 
     37 C          25.6334  -25.6492  -40.3086 C.2       5 UNK         0.5017 
     38 O          26.7553  -25.8294  -39.8335 O.2       5 UNK        -0.5012 
     39 N          24.9446  -26.5808  -40.9760 N.am      6 UNK        -0.4439 
     40 CA         25.3991  -27.9324  -41.2867 C.3       6 UNK         0.0297 
     41 CB         26.4298  -27.9065  -42.4345 C.3       6 UNK        -0.2006 
     42 C          24.1646  -28.7797  -41.6170 C.2       6 UNK         0.4892 
     43 O          23.9376  -29.1281  -42.7788 O.2       6 UNK        -0.5089 
     44 N          23.3568  -29.0654  -40.5871 N.am      7 UNK        -0.4243 
     45 CA         22.1094  -29.8326  -40.6685 C.3       7 UNK         0.0196 
     46 CB         21.2578  -29.5376  -39.4197 C.3       7 UNK        -0.2007 
     47 C          22.3598  -31.3422  -40.8711 C.2       7 UNK         0.5020 
     48 O          21.9763  -32.1569  -40.0316 O.2       7 UNK        -0.5147 
     49 N          23.0145  -31.6855  -41.9864 N.am      8 UNK        -0.4734 
     50 CA         23.3300  -33.0561  -42.4031 C.3       8 UNK         0.0238 
     51 CB         24.5015  -33.0091  -43.3987 C.3       8 UNK        -0.1912 
     52 C          22.1300  -33.8019  -43.0169 C.2       8 UNK         0.5038 
     53 O          22.2059  -35.0190  -43.1871 O.2       8 UNK        -0.5046 
     54 N          21.0653  -33.0601  -43.3514 N.am      9 UNK        -0.4200 
     55 CA         19.7924  -33.5334  -43.9249 C.3       9 UNK         0.0839 
     56 C          19.8765  -34.0653  -45.3880 C.2       9 UNK         0.5513 
     57 N          21.0000  -33.9328  -46.0829 N.am      9 UNK        -0.7519 
     58 O          18.8955  -34.5833  -45.9149 O.2       9 UNK        -0.4960 
     59 C59        19.0213  -34.5131  -42.9912 C.3       10 UNK        -0.0876 
     60 S60        18.7796  -33.8747  -41.2956 S.3       10 UNK        -0.2414 
     61 C61        17.0515  -33.3076  -41.3425 C.3       10 UNK         0.0169 
     62 H62        23.4111  -30.3452  -47.6651 H         1 UNK         0.0903 
     63 H63        22.7246  -31.4095  -46.4409 H         1 UNK         0.0903 
     64 H64        22.2075  -31.5531  -48.1243 H         1 UNK         0.0903 
     65 H65        20.8796  -30.7178  -45.3758 H         1 UNK         0.3096 
     66 H66        19.2405  -29.4852  -44.5991 H         1 UNK         0.1121 
     67 H67        18.5674  -28.8365  -47.5100 H         1 UNK         0.0849 
     68 H68        17.5176  -28.5103  -46.1673 H         1 UNK         0.0849 
     69 H69        15.5604  -29.8555  -45.8733 H         1 UNK         0.0865 
     70 H70        15.4786  -31.5942  -45.8395 H         1 UNK         0.0865 
     71 H71        16.4329  -32.8980  -43.9700 H         1 UNK         0.1346 
     72 H72        17.3804  -30.7979  -40.3582 H         1 UNK         0.1412 
     73 H73        16.5280  -28.6241  -43.9660 H         1 UNK         0.1426 
     74 H74        18.1494  -28.3986  -40.6908 H         1 UNK         0.0716 
     75 H75        16.4252  -28.1491  -40.5391 H         1 UNK         0.0716 
     76 H76        17.9305  -25.8093  -40.1021 H         1 UNK         0.0695 
     77 H77        18.0359  -24.6189  -41.3765 H         1 UNK         0.0695 
     78 H78        20.0307  -26.8816  -40.8714 H         1 UNK         0.0983 
     79 H79        19.5956  -25.7823  -43.3100 H         1 UNK         0.3095 
     80 H80        21.3020  -25.3190  -45.0042 H         1 UNK         0.0454 
     81 H81        23.8662  -26.8967  -44.4163 H         1 UNK         0.0851 
     82 H82        23.7514  -25.1476  -44.5467 H         1 UNK         0.0851 
     83 H83        23.4370  -26.1508  -45.9537 H         1 UNK         0.0851 
     84 H84        21.8775  -28.2171  -44.9003 H         1 UNK         0.2976 
     85 H85        20.6180  -26.3358  -38.8591 H         1 UNK         0.3116 
     86 H86        21.6864  -25.4686  -37.1787 H         1 UNK         0.0646 
     87 H87        21.2584  -22.6621  -38.3254 H         1 UNK         0.0847 
     88 H88        21.7418  -23.0622  -36.6881 H         1 UNK         0.0847 
     89 H89        20.1425  -23.5121  -37.2566 H         1 UNK         0.0847 
     90 H90        22.8252  -24.2467  -40.3099 H         1 UNK         0.3040 
     91 H91        25.5337  -23.7085  -39.4181 H         1 UNK         0.1015 
     92 H92        24.3549  -24.0002  -42.2351 H         1 UNK         0.0786 
     93 H93        25.9660  -23.4028  -41.8627 H         1 UNK         0.0786 
     94 H94        24.5556  -22.4968  -41.3387 H         1 UNK         0.0786 
     95 H95        24.0203  -26.3412  -41.3423 H         1 UNK         0.3172 
     96 H96        25.8716  -28.3652  -40.4026 H         1 UNK         0.0595 
     97 H97        26.0274  -27.4264  -43.3268 H         1 UNK         0.0839 
     98 H98        26.7284  -28.9178  -42.7133 H         1 UNK         0.0839 
     99 H99        27.3347  -27.3713  -42.1472 H         1 UNK         0.0839 
    100 H100       23.6297  -28.7500  -39.6673 H         1 UNK         0.2998 
    101 H101       21.5492  -29.4800  -41.5376 H         1 UNK         0.0822 
    102 H102       21.0596  -28.4725  -39.3147 H         1 UNK         0.0787 
    103 H103       20.2925  -30.0430  -39.4780 H         1 UNK         0.0787 
    104 H104       21.7491  -29.8770  -38.5068 H         1 UNK         0.0787 
    105 H105       23.3533  -30.9274  -42.5751 H         1 UNK         0.3055 
    106 H106       23.6453  -33.6241  -41.5247 H         1 UNK         0.1106 
    107 H107       24.7873  -34.0130  -43.7163 H         1 UNK         0.0828 
    108 H108       24.2494  -32.4418  -44.2954 H         1 UNK         0.0828 
    109 H109       25.3834  -32.5510  -42.9505 H         1 UNK         0.0828 
    110 H110       21.1100  -32.0761  -43.1399 H         1 UNK         0.2931 
    111 H111       19.1893  -32.6302  -44.0097 H         1 UNK         0.0412 
    112 H112       21.0324  -34.2772  -47.0296 H         1 UNK         0.3472 
    113 H113       21.8298  -33.5662  -45.6490 H         1 UNK         0.3472 
    114 H114       18.0471  -34.7608  -43.4155 H         1 UNK         0.0970 
    115 H115       19.5561  -35.4613  -42.9187 H         1 UNK         0.0970 
    116 H116       16.4191  -34.0737  -41.7938 H         1 UNK         0.0612 
    117 H117       16.6968  -33.1895  -40.3176 H         1 UNK         0.0612 
@<TRIPOS>BOND
     1    1    2 1    
     2    1   62 1    
     3    1   63 1    
     4    1   64 1    
     5    2    3 2    
     6    2    4 am   BACKBONE|DICT|INTERRES
     7    4    5 1    
     8    4   65 1    
     9    5    6 1    
    10    5   25 1    
    11    5   66 1    
    12    6    7 1    
    13    6   67 1    
    14    6   68 1    
    15    7    8 1    
    16    8    9 1    
    17    8   69 1    
    18    8   70 1    
    19    9   10 ar   
    20    9   14 ar   
    21   10   11 ar   
    22   10   71 1    
    23   11   12 ar   
    24   11   61 1    
    25   12   13 ar   
    26   12   72 1    
    27   13   14 ar   
    28   13   15 1    
    29   14   73 1    
    30   15   16 1    
    31   15   74 1    
    32   15   75 1    
    33   16   17 1    
    34   17   18 1    
    35   17   76 1    
    36   17   77 1    
    37   18   19 1    
    38   18   27 1    
    39   18   78 1    
    40   19   20 am   BACKBONE|DICT|INTERRES
    41   19   79 1    
    42   20   21 2    
    43   20   22 1    
    44   22   23 1    
    45   22   24 1    
    46   22   80 1    
    47   23   81 1    
    48   23   82 1    
    49   23   83 1    
    50   24   25 am   BACKBONE|DICT|INTERRES
    51   24   84 1    
    52   25   26 2    
    53   27   28 2    
    54   27   29 am   BACKBONE|DICT|INTERRES
    55   29   30 1    
    56   29   85 1    
    57   30   31 1    
    58   30   32 1    
    59   30   86 1    
    60   31   87 1    
    61   31   88 1    
    62   31   89 1    
    63   32   33 2    
    64   32   34 am   BACKBONE|DICT|INTERRES
    65   34   35 1    
    66   34   90 1    
    67   35   36 1    
    68   35   37 1    
    69   35   91 1    
    70   36   92 1    
    71   36   93 1    
    72   36   94 1    
    73   37   38 2    
    74   37   39 am   BACKBONE|DICT|INTERRES
    75   39   40 1    
    76   39   95 1    
    77   40   41 1    
    78   40   42 1    
    79   40   96 1    
    80   41   97 1    
    81   41   98 1    
    82   41   99 1    
    83   42   43 2    
    84   42   44 am   BACKBONE|DICT|INTERRES
    85   44   45 1    
    86   44  100 1    
    87   45   46 1    
    88   45   47 1    
    89   45  101 1    
    90   46  102 1    
    91   46  103 1    
    92   46  104 1    
    93   47   48 2    
    94   47   49 am   BACKBONE|DICT|INTERRES
    95   49   50 1    
    96   49  105 1    
    97   50   51 1    
    98   50   52 1    
    99   50  106 1    
   100   51  107 1    
   101   51  108 1    
   102   51  109 1    
   103   52   53 2    
   104   52   54 am   BACKBONE|DICT|INTERRES
   105   54   55 1    
   106   54  110 1    
   107   55   56 1    
   108   55   59 1    
   109   55  111 1    
   110   56   57 am   BACKBONE|DICT|INTERRES
   111   56   58 2    
   112   57  112 1    
   113   57  113 1    
   114   59   60 1    
   115   59  114 1    
   116   59  115 1    
   117   60   61 1    
   118   61  116 1    
   119   61  117 1    
@<TRIPOS>SUBSTRUCTURE
     1 UNK         1 GROUP             0       ****    0 ROOT    
