@<TRIPOS>MOLECULE
3R8
117   119    1
SMALL
USER_CHARGES


@<TRIPOS>ATOM
      1 CA         23.6393  -30.3126  -46.4623 C.3       0 UNK        -0.2013 
      2 C          22.2085  -29.9403  -46.1096 C.2       0 UNK         0.4866 
      3 O          21.6653  -30.4393  -45.1227 O.2       0 UNK        -0.5176 
      4 N          21.6023  -29.0585  -46.9116 N.am      1 UNK        -0.4884 
      5 CA         20.2543  -28.5228  -46.7179 C.3       1 UNK         0.0853 
      6 C6         19.3971  -28.7110  -47.9953 C.3       10 UNK        -0.0849 
      7 S7         17.6163  -28.3800  -47.7652 S.3       10 UNK        -0.2776 
      8 C8         17.0323  -29.8868  -46.9193 C.3       10 UNK         0.0316 
      9 C9         17.1366  -29.7686  -45.4036 C.ar      10 UNK        -0.0863 
     10 C10        17.9529  -30.6375  -44.6719 C.ar      10 UNK        -0.1009 
     11 C11        18.0219  -30.5401  -43.2781 C.ar      10 UNK        -0.0712 
     12 C12        17.2773  -29.5582  -42.6161 C.ar      10 UNK        -0.0894 
     13 C13        16.4662  -28.6788  -43.3369 C.ar      10 UNK        -0.0745 
     14 C14        16.3926  -28.7966  -44.7277 C.ar      10 UNK        -0.0972 
     15 C15        15.6541  -27.6080  -42.6245 C.3       10 UNK         0.0209 
     16 S16        16.4165  -25.9662  -42.8163 S.3       10 UNK        -0.2568 
     17 C17        17.3640  -25.7652  -41.2665 C.3       10 UNK        -0.0983 
     18 CA         18.8310  -26.2681  -41.3304 C.3       3 UNK         0.0876 
     19 N          19.5141  -25.8423  -42.5575 N.am      3 UNK        -0.4424 
     20 C          20.8086  -25.9960  -42.8672 C.2       2 UNK         0.4918 
     21 O          21.6692  -26.4530  -42.1124 O.2       2 UNK        -0.4875 
     22 CA         21.1769  -25.6787  -44.3164 C.3       2 UNK         0.0481 
     23 CB         22.6298  -25.1980  -44.4662 C.3       2 UNK        -0.1831 
     24 N          20.9998  -26.9247  -45.0490 N.am      2 UNK        -0.4498 
     25 C          20.3843  -27.0686  -46.2264 C.2       1 UNK         0.5027 
     26 O          19.9820  -26.1264  -46.9111 O.2       1 UNK        -0.4969 
     27 C          19.5974  -25.8481  -40.0589 C.2       3 UNK         0.5005 
     28 O          19.7660  -24.6490  -39.8251 O.2       3 UNK        -0.5279 
     29 N          20.0935  -26.8388  -39.3027 N.am      4 UNK        -0.4463 
     30 CA         20.9448  -26.7529  -38.1041 C.3       4 UNK         0.0283 
     31 CB         20.2278  -26.0126  -36.9583 C.3       4 UNK        -0.1875 
     32 C          22.3571  -26.1721  -38.3313 C.2       4 UNK         0.4949 
     33 O          23.2957  -26.6267  -37.6778 O.2       4 UNK        -0.5039 
     34 N          22.4915  -25.1904  -39.2311 N.am      5 UNK        -0.4663 
     35 CA         23.7303  -24.4805  -39.5577 C.3       5 UNK         0.0242 
     36 CB         23.4041  -23.2988  -40.4853 C.3       5 UNK        -0.1982 
     37 C          24.8134  -25.3745  -40.1827 C.2       5 UNK         0.5017 
     38 O          25.9809  -25.2533  -39.8090 O.2       5 UNK        -0.5012 
     39 N          24.4120  -26.2535  -41.1080 N.am      6 UNK        -0.4439 
     40 CA         25.2791  -27.2208  -41.7815 C.3       6 UNK         0.0297 
     41 CB         26.1507  -26.5352  -42.8556 C.3       6 UNK        -0.2006 
     42 C          24.4109  -28.3593  -42.3299 C.2       6 UNK         0.4892 
     43 O          24.4316  -28.6399  -43.5288 O.2       6 UNK        -0.5089 
     44 N          23.6196  -28.9568  -41.4322 N.am      7 UNK        -0.4243 
     45 CA         22.6730  -30.0258  -41.7299 C.3       7 UNK         0.0196 
     46 CB         21.7094  -30.1728  -40.5403 C.3       7 UNK        -0.2007 
     47 C          23.3825  -31.3585  -42.0110 C.2       7 UNK         0.5020 
     48 O          24.1794  -31.8056  -41.1842 O.2       7 UNK        -0.5147 
     49 N          23.0325  -31.9980  -43.1335 N.am      8 UNK        -0.4734 
     50 CA         23.4308  -33.3749  -43.4565 C.3       8 UNK         0.0238 
     51 CB         23.4450  -33.5584  -44.9829 C.3       8 UNK        -0.1912 
     52 C          22.5246  -34.4319  -42.7960 C.2       8 UNK         0.5038 
     53 O          22.8765  -35.6123  -42.8072 O.2       8 UNK        -0.5046 
     54 N          21.3772  -33.9968  -42.2582 N.am      9 UNK        -0.4200 
     55 CA         20.3821  -34.8069  -41.5424 C.3       9 UNK         0.0839 
     56 C          20.9753  -35.5431  -40.3093 C.2       9 UNK         0.5513 
     57 N          20.5846  -36.7896  -40.0827 N.am      9 UNK        -0.7519 
     58 O          21.7427  -34.9763  -39.5342 O.2       9 UNK        -0.4960 
     59 C59        19.1677  -33.9446  -41.1098 C.3       10 UNK        -0.0876 
     60 S60        18.2698  -33.1918  -42.5111 S.3       10 UNK        -0.2414 
     61 C61        18.9068  -31.4868  -42.4841 C.3       10 UNK         0.0169 
     62 H62        24.1265  -29.5287  -47.0417 H         1 UNK         0.0903 
     63 H63        24.2245  -30.4668  -45.5561 H         1 UNK         0.0903 
     64 H64        23.6554  -31.2316  -47.0467 H         1 UNK         0.0903 
     65 H65        22.1167  -28.6627  -47.6869 H         1 UNK         0.3096 
     66 H66        19.7619  -29.0661  -45.9123 H         1 UNK         0.1121 
     67 H67        19.5012  -29.7336  -48.3616 H         1 UNK         0.0849 
     68 H68        19.7653  -28.0735  -48.8013 H         1 UNK         0.0849 
     69 H69        15.9863  -30.0501  -47.1826 H         1 UNK         0.0865 
     70 H70        17.5757  -30.7582  -47.2881 H         1 UNK         0.0865 
     71 H71        18.5329  -31.3956  -45.1811 H         1 UNK         0.1346 
     72 H72        17.3259  -29.4793  -41.5388 H         1 UNK         0.1412 
     73 H73        15.7609  -28.1206  -45.2885 H         1 UNK         0.1426 
     74 H74        15.5225  -27.8503  -41.5691 H         1 UNK         0.0716 
     75 H75        14.6511  -27.5773  -43.0528 H         1 UNK         0.0716 
     76 H76        16.8293  -26.2532  -40.4497 H         1 UNK         0.0695 
     77 H77        17.3421  -24.6980  -41.0360 H         1 UNK         0.0695 
     78 H78        18.8040  -27.3580  -41.3703 H         1 UNK         0.0983 
     79 H79        18.8963  -25.4770  -43.2679 H         1 UNK         0.3095 
     80 H80        20.5055  -24.9020  -44.6887 H         1 UNK         0.0454 
     81 H81        23.3364  -25.9709  -44.1666 H         1 UNK         0.0851 
     82 H82        22.8195  -24.3179  -43.8512 H         1 UNK         0.0851 
     83 H83        22.8509  -24.9294  -45.4990 H         1 UNK         0.0851 
     84 H84        21.3162  -27.7574  -44.5685 H         1 UNK         0.2976 
     85 H85        19.9180  -27.7833  -39.6133 H         1 UNK         0.3116 
     86 H86        21.0903  -27.7850  -37.7808 H         1 UNK         0.0646 
     87 H87        20.0613  -24.9606  -37.1916 H         1 UNK         0.0847 
     88 H88        20.8195  -26.0489  -36.0426 H         1 UNK         0.0847 
     89 H89        19.2611  -26.4645  -36.7365 H         1 UNK         0.0847 
     90 H90        21.6402  -24.8703  -39.6855 H         1 UNK         0.3040 
     91 H91        24.1361  -24.0819  -38.6253 H         1 UNK         0.1015 
     92 H92        22.9423  -23.6323  -41.4152 H         1 UNK         0.0786 
     93 H93        24.3068  -22.7449  -40.7472 H         1 UNK         0.0786 
     94 H94        22.7210  -22.5968  -40.0065 H         1 UNK         0.0786 
     95 H95        23.4231  -26.2966  -41.3539 H         1 UNK         0.3172 
     96 H96        25.9444  -27.6693  -41.0407 H         1 UNK         0.0595 
     97 H97        25.5488  -26.0250  -43.6060 H         1 UNK         0.0839 
     98 H98        26.7720  -27.2645  -43.3768 H         1 UNK         0.0839 
     99 H99        26.8238  -25.8003  -42.4144 H         1 UNK         0.0839 
    100 H100       23.6915  -28.6723  -40.4665 H         1 UNK         0.2998 
    101 H101       22.0923  -29.7355  -42.6078 H         1 UNK         0.0822 
    102 H102       21.1078  -31.0768  -40.6239 H         1 UNK         0.0787 
    103 H103       22.2452  -30.2408  -39.5925 H         1 UNK         0.0787 
    104 H104       21.0273  -29.3260  -40.4836 H         1 UNK         0.0787 
    105 H105       22.4274  -31.5234  -43.8031 H         1 UNK         0.3055 
    106 H106       24.4432  -33.5526  -43.0862 H         1 UNK         0.1106 
    107 H107       22.4892  -33.2889  -45.4339 H         1 UNK         0.0828 
    108 H108       23.6541  -34.5941  -45.2549 H         1 UNK         0.0828 
    109 H109       24.2239  -32.9511  -45.4413 H         1 UNK         0.0828 
    110 H110       21.1879  -33.0098  -42.3089 H         1 UNK         0.2931 
    111 H111       20.0290  -35.5609  -42.2489 H         1 UNK         0.0412 
    112 H112       20.9447  -37.2781  -39.2773 H         1 UNK         0.3472 
    113 H113       19.9462  -37.2578  -40.7076 H         1 UNK         0.3472 
    114 H114       18.4461  -34.5631  -40.5721 H         1 UNK         0.0970 
    115 H115       19.4743  -33.1723  -40.4020 H         1 UNK         0.0970 
    116 H116       18.9697  -31.1465  -41.4504 H         1 UNK         0.0612 
    117 H117       19.9178  -31.4648  -42.8919 H         1 UNK         0.0612 
@<TRIPOS>BOND
     1    1    2 1    
     2    1   62 1    
     3    1   63 1    
     4    1   64 1    
     5    2    3 2    
     6    2    4 am   BACKBONE|DICT|INTERRES
     7    4    5 1    
     8    4   65 1    
     9    5    6 1    
    10    5   25 1    
    11    5   66 1    
    12    6    7 1    
    13    6   67 1    
    14    6   68 1    
    15    7    8 1    
    16    8    9 1    
    17    8   69 1    
    18    8   70 1    
    19    9   10 ar   
    20    9   14 ar   
    21   10   11 ar   
    22   10   71 1    
    23   11   12 ar   
    24   11   61 1    
    25   12   13 ar   
    26   12   72 1    
    27   13   14 ar   
    28   13   15 1    
    29   14   73 1    
    30   15   16 1    
    31   15   74 1    
    32   15   75 1    
    33   16   17 1    
    34   17   18 1    
    35   17   76 1    
    36   17   77 1    
    37   18   19 1    
    38   18   27 1    
    39   18   78 1    
    40   19   20 am   BACKBONE|DICT|INTERRES
    41   19   79 1    
    42   20   21 2    
    43   20   22 1    
    44   22   23 1    
    45   22   24 1    
    46   22   80 1    
    47   23   81 1    
    48   23   82 1    
    49   23   83 1    
    50   24   25 am   BACKBONE|DICT|INTERRES
    51   24   84 1    
    52   25   26 2    
    53   27   28 2    
    54   27   29 am   BACKBONE|DICT|INTERRES
    55   29   30 1    
    56   29   85 1    
    57   30   31 1    
    58   30   32 1    
    59   30   86 1    
    60   31   87 1    
    61   31   88 1    
    62   31   89 1    
    63   32   33 2    
    64   32   34 am   BACKBONE|DICT|INTERRES
    65   34   35 1    
    66   34   90 1    
    67   35   36 1    
    68   35   37 1    
    69   35   91 1    
    70   36   92 1    
    71   36   93 1    
    72   36   94 1    
    73   37   38 2    
    74   37   39 am   BACKBONE|DICT|INTERRES
    75   39   40 1    
    76   39   95 1    
    77   40   41 1    
    78   40   42 1    
    79   40   96 1    
    80   41   97 1    
    81   41   98 1    
    82   41   99 1    
    83   42   43 2    
    84   42   44 am   BACKBONE|DICT|INTERRES
    85   44   45 1    
    86   44  100 1    
    87   45   46 1    
    88   45   47 1    
    89   45  101 1    
    90   46  102 1    
    91   46  103 1    
    92   46  104 1    
    93   47   48 2    
    94   47   49 am   BACKBONE|DICT|INTERRES
    95   49   50 1    
    96   49  105 1    
    97   50   51 1    
    98   50   52 1    
    99   50  106 1    
   100   51  107 1    
   101   51  108 1    
   102   51  109 1    
   103   52   53 2    
   104   52   54 am   BACKBONE|DICT|INTERRES
   105   54   55 1    
   106   54  110 1    
   107   55   56 1    
   108   55   59 1    
   109   55  111 1    
   110   56   57 am   BACKBONE|DICT|INTERRES
   111   56   58 2    
   112   57  112 1    
   113   57  113 1    
   114   59   60 1    
   115   59  114 1    
   116   59  115 1    
   117   60   61 1    
   118   61  116 1    
   119   61  117 1    
@<TRIPOS>SUBSTRUCTURE
     1 UNK         1 GROUP             0       ****    0 ROOT    
