@<TRIPOS>MOLECULE
3R8
117   119    1
SMALL
USER_CHARGES


@<TRIPOS>ATOM
      1 CA         14.6176  -24.4318  -45.3658 C.3       0 UNK        -0.2013 
      2 C          15.9914  -24.4868  -46.0157 C.2       0 UNK         0.4866 
      3 O          16.7189  -23.4930  -46.0019 O.2       0 UNK        -0.5176 
      4 N          16.3574  -25.6425  -46.5828 N.am      1 UNK        -0.4884 
      5 CA         17.6317  -25.9318  -47.2540 C.3       1 UNK         0.0853 
      6 C6         17.5085  -27.1107  -48.2669 C.3       10 UNK        -0.0849 
      7 S7         16.3923  -28.4833  -47.7908 S.3       10 UNK        -0.2776 
      8 C8         17.5003  -29.6432  -46.9108 C.3       10 UNK         0.0316 
      9 C9         17.3358  -29.6980  -45.3878 C.ar      10 UNK        -0.0863 
     10 C10        18.1240  -30.6052  -44.6710 C.ar      10 UNK        -0.1009 
     11 C11        17.9995  -30.7267  -43.2836 C.ar      10 UNK        -0.0712 
     12 C12        17.0794  -29.9269  -42.6013 C.ar      10 UNK        -0.0894 
     13 C13        16.2930  -29.0064  -43.2976 C.ar      10 UNK        -0.0745 
     14 C14        16.4215  -28.9005  -44.6848 C.ar      10 UNK        -0.0972 
     15 C15        15.2948  -28.1263  -42.5617 C.3       10 UNK         0.0209 
     16 S16        15.8943  -26.4144  -42.4229 S.3       10 UNK        -0.2568 
     17 C17        17.1466  -26.5587  -41.1021 C.3       10 UNK        -0.0983 
     18 CA         18.5916  -26.7807  -41.6201 C.3       3 UNK         0.0876 
     19 N          18.9457  -25.8339  -42.6878 N.am      3 UNK        -0.4424 
     20 C          20.0880  -25.8293  -43.3867 C.2       2 UNK         0.4918 
     21 O          21.0420  -26.5670  -43.1422 O.2       2 UNK        -0.4875 
     22 CA         20.1644  -24.8117  -44.5378 C.3       2 UNK         0.0481 
     23 CB         21.5392  -24.8037  -45.2399 C.3       2 UNK        -0.1831 
     24 N          19.0788  -24.9895  -45.5093 N.am      2 UNK        -0.4498 
     25 C          18.8188  -26.0656  -46.2682 C.2       1 UNK         0.5027 
     26 O          19.4831  -27.1014  -46.2326 O.2       1 UNK        -0.4969 
     27 C          19.5766  -26.8001  -40.4282 C.2       3 UNK         0.5005 
     28 O          19.6478  -27.8027  -39.7166 O.2       3 UNK        -0.5279 
     29 N          20.3144  -25.6982  -40.2287 N.am      4 UNK        -0.4463 
     30 CA         21.3538  -25.5473  -39.2092 C.3       4 UNK         0.0283 
     31 CB         21.6615  -24.0514  -39.0312 C.3       4 UNK        -0.1875 
     32 C          22.6490  -26.3263  -39.5114 C.2       4 UNK         0.4949 
     33 O          23.4671  -26.4843  -38.6034 O.2       4 UNK        -0.5039 
     34 N          22.8410  -26.7921  -40.7557 N.am      5 UNK        -0.4663 
     35 CA         24.0155  -27.5513  -41.1941 C.3       5 UNK         0.0242 
     36 CB         24.1355  -27.4679  -42.7273 C.3       5 UNK        -0.1982 
     37 C          23.9730  -29.0060  -40.6917 C.2       5 UNK         0.5017 
     38 O          23.8223  -29.9335  -41.4880 O.2       5 UNK        -0.5012 
     39 N          24.1289  -29.1847  -39.3733 N.am      6 UNK        -0.4439 
     40 CA         24.1214  -30.4738  -38.6707 C.3       6 UNK         0.0297 
     41 CB         24.3387  -30.2362  -37.1684 C.3       6 UNK        -0.2006 
     42 C          25.1407  -31.4965  -39.2068 C.2       6 UNK         0.4892 
     43 O          24.8554  -32.6932  -39.1945 O.2       6 UNK        -0.5089 
     44 N          26.2852  -31.0081  -39.7054 N.am      7 UNK        -0.4243 
     45 CA         27.3179  -31.8091  -40.3671 C.3       7 UNK         0.0196 
     46 CB         28.5807  -30.9513  -40.5478 C.3       7 UNK        -0.2007 
     47 C          26.8723  -32.3995  -41.7190 C.2       7 UNK         0.5020 
     48 O          27.3969  -33.4406  -42.1148 O.2       7 UNK        -0.5147 
     49 N          25.9275  -31.7381  -42.4023 N.am      8 UNK        -0.4734 
     50 CA         25.3251  -32.2152  -43.6481 C.3       8 UNK         0.0238 
     51 CB         24.9693  -31.0183  -44.5464 C.3       8 UNK        -0.1912 
     52 C          24.0838  -33.0734  -43.3654 C.2       8 UNK         0.5038 
     53 O          23.9117  -34.1079  -44.0116 O.2       8 UNK        -0.5046 
     54 N          23.2497  -32.6353  -42.4116 N.am      9 UNK        -0.4200 
     55 CA         22.0421  -33.3490  -41.9685 C.3       9 UNK         0.0839 
     56 C          22.3276  -34.6993  -41.2539 C.2       9 UNK         0.5513 
     57 N          23.4035  -34.8272  -40.4883 N.am      9 UNK        -0.7519 
     58 O          21.5589  -35.6459  -41.4008 O.2       9 UNK        -0.4960 
     59 C59        21.1253  -32.4547  -41.0966 C.3       10 UNK        -0.0876 
     60 S60        20.4401  -31.0375  -42.0185 S.3       10 UNK        -0.2414 
     61 C61        18.8407  -31.7388  -42.5237 C.3       10 UNK         0.0169 
     62 H62        14.1282  -25.4057  -45.3646 H         1 UNK         0.0903 
     63 H63        14.7055  -24.0988  -44.3319 H         1 UNK         0.0903 
     64 H64        13.9781  -23.7282  -45.8979 H         1 UNK         0.0903 
     65 H65        15.7178  -26.4246  -46.5678 H         1 UNK         0.3096 
     66 H66        17.8795  -25.0514  -47.8524 H         1 UNK         0.1121 
     67 H67        17.0942  -26.7103  -49.1936 H         1 UNK         0.0849 
     68 H68        18.4833  -27.5050  -48.5603 H         1 UNK         0.0849 
     69 H69        17.3091  -30.6414  -47.3072 H         1 UNK         0.0865 
     70 H70        18.5400  -29.4202  -47.1521 H         1 UNK         0.0865 
     71 H71        18.8353  -31.2284  -45.1962 H         1 UNK         0.1346 
     72 H72        16.9827  -30.0163  -41.5278 H         1 UNK         0.1412 
     73 H73        15.7967  -28.1879  -45.2004 H         1 UNK         0.1426 
     74 H74        15.0719  -28.5247  -41.5708 H         1 UNK         0.0716 
     75 H75        14.3496  -28.1228  -43.1067 H         1 UNK         0.0716 
     76 H76        16.8571  -27.3636  -40.4238 H         1 UNK         0.0695 
     77 H77        17.0951  -25.6401  -40.5142 H         1 UNK         0.0695 
     78 H78        18.6489  -27.7727  -42.0702 H         1 UNK         0.0983 
     79 H79        18.2046  -25.2100  -42.9729 H         1 UNK         0.3095 
     80 H80        20.0197  -23.8266  -44.0921 H         1 UNK         0.0454 
     81 H81        22.3364  -24.5763  -44.5311 H         1 UNK         0.0851 
     82 H82        21.5800  -24.0501  -46.0259 H         1 UNK         0.0851 
     83 H83        21.7739  -25.7698  -45.6881 H         1 UNK         0.0851 
     84 H84        18.4269  -24.2128  -45.5989 H         1 UNK         0.2976 
     85 H85        20.1823  -24.9224  -40.8613 H         1 UNK         0.3116 
     86 H86        20.9612  -25.9285  -38.2641 H         1 UNK         0.0646 
     87 H87        20.7711  -23.4930  -38.7418 H         1 UNK         0.0847 
     88 H88        22.0560  -23.6076  -39.9462 H         1 UNK         0.0847 
     89 H89        22.4054  -23.8959  -38.2484 H         1 UNK         0.0847 
     90 H90        22.1119  -26.6622  -41.4512 H         1 UNK         0.3040 
     91 H91        24.9086  -27.0853  -40.7716 H         1 UNK         0.1015 
     92 H92        25.0450  -27.9600  -43.0744 H         1 UNK         0.0786 
     93 H93        24.1745  -26.4335  -43.0688 H         1 UNK         0.0786 
     94 H94        23.2952  -27.9528  -43.2258 H         1 UNK         0.0786 
     95 H95        24.1750  -28.3460  -38.8017 H         1 UNK         0.3172 
     96 H96        23.1280  -30.9043  -38.8034 H         1 UNK         0.0595 
     97 H97        25.3036  -29.7687  -36.9682 H         1 UNK         0.0839 
     98 H98        24.3110  -31.1769  -36.6163 H         1 UNK         0.0839 
     99 H99        23.5617  -29.5952  -36.7510 H         1 UNK         0.0839 
    100 H100       26.4340  -30.0104  -39.6673 H         1 UNK         0.2998 
    101 H101       27.5634  -32.6471  -39.7109 H         1 UNK         0.0822 
    102 H102       28.9579  -30.5920  -39.5900 H         1 UNK         0.0787 
    103 H103       29.3811  -31.5290  -41.0126 H         1 UNK         0.0787 
    104 H104       28.3933  -30.0849  -41.1834 H         1 UNK         0.0787 
    105 H105       25.4940  -30.9240  -41.9805 H         1 UNK         0.3055 
    106 H106       26.0440  -32.8361  -44.1880 H         1 UNK         0.1106 
    107 H107       25.8480  -30.4118  -44.7655 H         1 UNK         0.0828 
    108 H108       24.5635  -31.3575  -45.5004 H         1 UNK         0.0828 
    109 H109       24.2207  -30.3705  -44.0893 H         1 UNK         0.0828 
    110 H110       23.4360  -31.7398  -41.9701 H         1 UNK         0.2931 
    111 H111       21.4812  -33.6001  -42.8713 H         1 UNK         0.0412 
    112 H112       23.9948  -34.0293  -40.2752 H         1 UNK         0.3472 
    113 H113       23.5801  -35.7095  -40.0354 H         1 UNK         0.3472 
    114 H114       20.2985  -33.0331  -40.6794 H         1 UNK         0.0970 
    115 H115       21.6788  -32.0715  -40.2388 H         1 UNK         0.0970 
    116 H116       19.0134  -32.6209  -43.1423 H         1 UNK         0.0612 
    117 H117       18.2991  -32.0816  -41.6406 H         1 UNK         0.0612 
@<TRIPOS>BOND
     1    1    2 1    
     2    1   62 1    
     3    1   63 1    
     4    1   64 1    
     5    2    3 2    
     6    2    4 am   BACKBONE|DICT|INTERRES
     7    4    5 1    
     8    4   65 1    
     9    5    6 1    
    10    5   25 1    
    11    5   66 1    
    12    6    7 1    
    13    6   67 1    
    14    6   68 1    
    15    7    8 1    
    16    8    9 1    
    17    8   69 1    
    18    8   70 1    
    19    9   10 ar   
    20    9   14 ar   
    21   10   11 ar   
    22   10   71 1    
    23   11   12 ar   
    24   11   61 1    
    25   12   13 ar   
    26   12   72 1    
    27   13   14 ar   
    28   13   15 1    
    29   14   73 1    
    30   15   16 1    
    31   15   74 1    
    32   15   75 1    
    33   16   17 1    
    34   17   18 1    
    35   17   76 1    
    36   17   77 1    
    37   18   19 1    
    38   18   27 1    
    39   18   78 1    
    40   19   20 am   BACKBONE|DICT|INTERRES
    41   19   79 1    
    42   20   21 2    
    43   20   22 1    
    44   22   23 1    
    45   22   24 1    
    46   22   80 1    
    47   23   81 1    
    48   23   82 1    
    49   23   83 1    
    50   24   25 am   BACKBONE|DICT|INTERRES
    51   24   84 1    
    52   25   26 2    
    53   27   28 2    
    54   27   29 am   BACKBONE|DICT|INTERRES
    55   29   30 1    
    56   29   85 1    
    57   30   31 1    
    58   30   32 1    
    59   30   86 1    
    60   31   87 1    
    61   31   88 1    
    62   31   89 1    
    63   32   33 2    
    64   32   34 am   BACKBONE|DICT|INTERRES
    65   34   35 1    
    66   34   90 1    
    67   35   36 1    
    68   35   37 1    
    69   35   91 1    
    70   36   92 1    
    71   36   93 1    
    72   36   94 1    
    73   37   38 2    
    74   37   39 am   BACKBONE|DICT|INTERRES
    75   39   40 1    
    76   39   95 1    
    77   40   41 1    
    78   40   42 1    
    79   40   96 1    
    80   41   97 1    
    81   41   98 1    
    82   41   99 1    
    83   42   43 2    
    84   42   44 am   BACKBONE|DICT|INTERRES
    85   44   45 1    
    86   44  100 1    
    87   45   46 1    
    88   45   47 1    
    89   45  101 1    
    90   46  102 1    
    91   46  103 1    
    92   46  104 1    
    93   47   48 2    
    94   47   49 am   BACKBONE|DICT|INTERRES
    95   49   50 1    
    96   49  105 1    
    97   50   51 1    
    98   50   52 1    
    99   50  106 1    
   100   51  107 1    
   101   51  108 1    
   102   51  109 1    
   103   52   53 2    
   104   52   54 am   BACKBONE|DICT|INTERRES
   105   54   55 1    
   106   54  110 1    
   107   55   56 1    
   108   55   59 1    
   109   55  111 1    
   110   56   57 am   BACKBONE|DICT|INTERRES
   111   56   58 2    
   112   57  112 1    
   113   57  113 1    
   114   59   60 1    
   115   59  114 1    
   116   59  115 1    
   117   60   61 1    
   118   61  116 1    
   119   61  117 1    
@<TRIPOS>SUBSTRUCTURE
     1 UNK         1 GROUP             0       ****    0 ROOT    
