@<TRIPOS>MOLECULE
3R8
117   119    1
SMALL
USER_CHARGES


@<TRIPOS>ATOM
      1 CA         15.7096  -22.4534  -45.3423 C.3       0 UNK        -0.2013 
      2 C          16.5274  -23.4017  -44.4783 C.2       0 UNK         0.4866 
      3 O          17.1318  -22.9641  -43.4994 O.2       0 UNK        -0.5176 
      4 N          16.5540  -24.6923  -44.8428 N.am      1 UNK        -0.4884 
      5 CA         17.2519  -25.7878  -44.1457 C.3       1 UNK         0.0853 
      6 C6         16.6828  -26.0852  -42.7305 C.3       10 UNK        -0.0849 
      7 S7         14.9531  -26.6602  -42.8337 S.3       10 UNK        -0.2776 
      8 C8         15.0540  -28.3369  -42.1149 C.3       10 UNK         0.0316 
      9 C9         16.0741  -29.2607  -42.7809 C.ar      10 UNK        -0.0863 
     10 C10        16.8730  -30.0850  -41.9807 C.ar      10 UNK        -0.1009 
     11 C11        17.7834  -30.9763  -42.5550 C.ar      10 UNK        -0.0712 
     12 C12        17.8959  -31.0360  -43.9467 C.ar      10 UNK        -0.0894 
     13 C13        17.1366  -30.1908  -44.7609 C.ar      10 UNK        -0.0745 
     14 C14        16.2090  -29.3239  -44.1738 C.ar      10 UNK        -0.0972 
     15 C15        17.3149  -30.2243  -46.2741 C.3       10 UNK         0.0209 
     16 S16        18.4685  -28.9387  -46.8658 S.3       10 UNK        -0.2568 
     17 C17        20.0674  -29.5428  -46.2174 C.3       10 UNK        -0.0983 
     18 CA         21.2428  -28.5359  -46.3688 C.3       3 UNK         0.0876 
     19 N          20.8670  -27.2236  -45.8305 N.am      3 UNK        -0.4424 
     20 C          21.3921  -26.0315  -46.1345 C.2       2 UNK         0.4918 
     21 O          22.3582  -25.9000  -46.8870 O.2       2 UNK        -0.4875 
     22 CA         20.7455  -24.7903  -45.4802 C.3       2 UNK         0.0481 
     23 CB         20.9321  -23.5238  -46.3349 C.3       2 UNK        -0.1831 
     24 N          19.3156  -24.9669  -45.2015 N.am      2 UNK        -0.4498 
     25 C          18.7896  -25.6411  -44.1683 C.2       1 UNK         0.5027 
     26 O          19.4798  -26.1926  -43.3104 O.2       1 UNK        -0.4969 
     27 C          22.5309  -29.0635  -45.6875 C.2       3 UNK         0.5005 
     28 O          22.5579  -30.2101  -45.2451 O.2       3 UNK        -0.5279 
     29 N          23.5322  -28.1850  -45.5272 N.am      4 UNK        -0.4463 
     30 CA         24.6760  -28.2270  -44.5984 C.3       4 UNK         0.0283 
     31 CB         25.4079  -29.5853  -44.5831 C.3       4 UNK        -0.1875 
     32 C          24.3072  -27.7675  -43.1720 C.2       4 UNK         0.4949 
     33 O          25.1984  -27.3235  -42.4478 O.2       4 UNK        -0.5039 
     34 N          23.0116  -27.8289  -42.8237 N.am      5 UNK        -0.4663 
     35 CA         22.3746  -27.4040  -41.5691 C.3       5 UNK         0.0242 
     36 CB         22.4867  -25.8708  -41.4137 C.3       5 UNK        -0.1982 
     37 C          22.8772  -28.1663  -40.3241 C.2       5 UNK         0.5017 
     38 O          23.5819  -29.1694  -40.4538 O.2       5 UNK        -0.5012 
     39 N          22.4801  -27.6839  -39.1352 N.am      6 UNK        -0.4439 
     40 CA         22.8496  -28.1836  -37.8036 C.3       6 UNK         0.0297 
     41 CB         24.3059  -27.7746  -37.4799 C.3       6 UNK        -0.2006 
     42 C          22.5640  -29.6926  -37.6442 C.2       6 UNK         0.4892 
     43 O          21.4558  -30.1280  -37.9586 O.2       6 UNK        -0.5089 
     44 N          23.5583  -30.4581  -37.1770 N.am      7 UNK        -0.4243 
     45 CA         23.5463  -31.9229  -37.1719 C.3       7 UNK         0.0196 
     46 CB         24.3201  -32.4219  -35.9401 C.3       7 UNK        -0.2007 
     47 C          24.1538  -32.5120  -38.4595 C.2       7 UNK         0.5020 
     48 O          23.9687  -33.7015  -38.7183 O.2       7 UNK        -0.5147 
     49 N          24.8734  -31.6917  -39.2414 N.am      8 UNK        -0.4734 
     50 CA         25.5724  -32.0916  -40.4675 C.3       8 UNK         0.0238 
     51 CB         26.5140  -30.9616  -40.9172 C.3       8 UNK        -0.1912 
     52 C          24.6284  -32.4965  -41.6107 C.2       8 UNK         0.5038 
     53 O          25.0284  -33.2977  -42.4565 O.2       8 UNK        -0.5046 
     54 N          23.4008  -31.9612  -41.6068 N.am      9 UNK        -0.4200 
     55 CA         22.3269  -32.3408  -42.5335 C.3       9 UNK         0.0839 
     56 C          21.7561  -33.7778  -42.3387 C.2       9 UNK         0.5513 
     57 N          22.0713  -34.4853  -41.2586 N.am      9 UNK        -0.7519 
     58 O          21.0210  -34.2640  -43.1940 O.2       9 UNK        -0.4960 
     59 C59        21.2194  -31.2583  -42.6075 C.3       10 UNK        -0.0876 
     60 S60        20.1710  -31.1004  -41.1209 S.3       10 UNK        -0.2414 
     61 C61        18.6211  -31.8900  -41.6690 C.3       10 UNK         0.0169 
     62 H62        16.3492  -21.6711  -45.7501 H         1 UNK         0.0903 
     63 H63        15.2304  -22.9682  -46.1749 H         1 UNK         0.0903 
     64 H64        14.9312  -21.9799  -44.7445 H         1 UNK         0.0903 
     65 H65        16.0246  -24.9770  -45.6560 H         1 UNK         0.3096 
     66 H66        17.0746  -26.6760  -44.7534 H         1 UNK         0.1121 
     67 H67        16.7270  -25.1996  -42.0954 H         1 UNK         0.0849 
     68 H68        17.2749  -26.8456  -42.2184 H         1 UNK         0.0849 
     69 H69        15.2714  -28.2343  -41.0504 H         1 UNK         0.0865 
     70 H70        14.0704  -28.8036  -42.1806 H         1 UNK         0.0865 
     71 H71        16.7790  -30.0462  -40.9038 H         1 UNK         0.1346 
     72 H72        18.5849  -31.7336  -44.4016 H         1 UNK         0.1412 
     73 H73        15.5973  -28.6923  -44.8032 H         1 UNK         0.1426 
     74 H74        16.3483  -30.0773  -46.7584 H         1 UNK         0.0716 
     75 H75        17.6691  -31.2044  -46.5974 H         1 UNK         0.0716 
     76 H76        20.3033  -30.4852  -46.7154 H         1 UNK         0.0695 
     77 H77        19.9299  -29.7753  -45.1618 H         1 UNK         0.0695 
     78 H78        21.4632  -28.4245  -47.4326 H         1 UNK         0.0983 
     79 H79        20.1152  -27.2330  -45.1553 H         1 UNK         0.3095 
     80 H80        21.2634  -24.6283  -44.5331 H         1 UNK         0.0454 
     81 H81        21.9895  -23.3041  -46.4883 H         1 UNK         0.0851 
     82 H82        20.4921  -22.6508  -45.8526 H         1 UNK         0.0851 
     83 H83        20.4752  -23.6307  -47.3194 H         1 UNK         0.0851 
     84 H84        18.6745  -24.5733  -45.8755 H         1 UNK         0.2976 
     85 H85        23.3866  -27.2812  -45.9704 H         1 UNK         0.3116 
     86 H86        25.3797  -27.4876  -44.9838 H         1 UNK         0.0646 
     87 H87        24.8278  -30.3578  -44.0771 H         1 UNK         0.0847 
     88 H88        25.6296  -29.9329  -45.5918 H         1 UNK         0.0847 
     89 H89        26.3557  -29.5041  -44.0498 H         1 UNK         0.0847 
     90 H90        22.3889  -28.2498  -43.4959 H         1 UNK         0.3040 
     91 H91        21.3172  -27.6552  -41.6719 H         1 UNK         0.1015 
     92 H92        21.8403  -25.4970  -40.6196 H         1 UNK         0.0786 
     93 H93        22.1826  -25.3607  -42.3276 H         1 UNK         0.0786 
     94 H94        23.5065  -25.5608  -41.1823 H         1 UNK         0.0786 
     95 H95        21.8547  -26.8909  -39.1380 H         1 UNK         0.3172 
     96 H96        22.1973  -27.6764  -37.0912 H         1 UNK         0.0595 
     97 H97        25.0250  -28.2499  -38.1486 H         1 UNK         0.0839 
     98 H98        24.5761  -28.0284  -36.4541 H         1 UNK         0.0839 
     99 H99        24.4368  -26.6968  -37.5782 H         1 UNK         0.0839 
    100 H100       24.4233  -30.0109  -36.9093 H         1 UNK         0.2998 
    101 H101       22.5186  -32.2855  -37.0985 H         1 UNK         0.0822 
    102 H102       24.3088  -33.5116  -35.8874 H         1 UNK         0.0787 
    103 H103       25.3643  -32.1076  -35.9624 H         1 UNK         0.0787 
    104 H104       23.8764  -32.0502  -35.0162 H         1 UNK         0.0787 
    105 H105       24.8959  -30.7073  -39.0166 H         1 UNK         0.3055 
    106 H106       26.1804  -32.9676  -40.2304 H         1 UNK         0.1106 
    107 H107       27.2366  -30.7119  -40.1404 H         1 UNK         0.0828 
    108 H108       27.0801  -31.2563  -41.8019 H         1 UNK         0.0828 
    109 H109       25.9671  -30.0532  -41.1728 H         1 UNK         0.0828 
    110 H110       23.1778  -31.2626  -40.9080 H         1 UNK         0.2931 
    111 H111       22.7882  -32.3588  -43.5229 H         1 UNK         0.0412 
    112 H112       21.6973  -35.4149  -41.1525 H         1 UNK         0.3472 
    113 H113       22.6811  -34.1035  -40.5480 H         1 UNK         0.3472 
    114 H114       21.6784  -30.2864  -42.7798 H         1 UNK         0.0970 
    115 H115       20.6015  -31.4386  -43.4844 H         1 UNK         0.0970 
    116 H116       18.0450  -32.1671  -40.7849 H         1 UNK         0.0612 
    117 H117       18.8431  -32.8244  -42.1859 H         1 UNK         0.0612 
@<TRIPOS>BOND
     1    1    2 1    
     2    1   62 1    
     3    1   63 1    
     4    1   64 1    
     5    2    3 2    
     6    2    4 am   BACKBONE|DICT|INTERRES
     7    4    5 1    
     8    4   65 1    
     9    5    6 1    
    10    5   25 1    
    11    5   66 1    
    12    6    7 1    
    13    6   67 1    
    14    6   68 1    
    15    7    8 1    
    16    8    9 1    
    17    8   69 1    
    18    8   70 1    
    19    9   10 ar   
    20    9   14 ar   
    21   10   11 ar   
    22   10   71 1    
    23   11   12 ar   
    24   11   61 1    
    25   12   13 ar   
    26   12   72 1    
    27   13   14 ar   
    28   13   15 1    
    29   14   73 1    
    30   15   16 1    
    31   15   74 1    
    32   15   75 1    
    33   16   17 1    
    34   17   18 1    
    35   17   76 1    
    36   17   77 1    
    37   18   19 1    
    38   18   27 1    
    39   18   78 1    
    40   19   20 am   BACKBONE|DICT|INTERRES
    41   19   79 1    
    42   20   21 2    
    43   20   22 1    
    44   22   23 1    
    45   22   24 1    
    46   22   80 1    
    47   23   81 1    
    48   23   82 1    
    49   23   83 1    
    50   24   25 am   BACKBONE|DICT|INTERRES
    51   24   84 1    
    52   25   26 2    
    53   27   28 2    
    54   27   29 am   BACKBONE|DICT|INTERRES
    55   29   30 1    
    56   29   85 1    
    57   30   31 1    
    58   30   32 1    
    59   30   86 1    
    60   31   87 1    
    61   31   88 1    
    62   31   89 1    
    63   32   33 2    
    64   32   34 am   BACKBONE|DICT|INTERRES
    65   34   35 1    
    66   34   90 1    
    67   35   36 1    
    68   35   37 1    
    69   35   91 1    
    70   36   92 1    
    71   36   93 1    
    72   36   94 1    
    73   37   38 2    
    74   37   39 am   BACKBONE|DICT|INTERRES
    75   39   40 1    
    76   39   95 1    
    77   40   41 1    
    78   40   42 1    
    79   40   96 1    
    80   41   97 1    
    81   41   98 1    
    82   41   99 1    
    83   42   43 2    
    84   42   44 am   BACKBONE|DICT|INTERRES
    85   44   45 1    
    86   44  100 1    
    87   45   46 1    
    88   45   47 1    
    89   45  101 1    
    90   46  102 1    
    91   46  103 1    
    92   46  104 1    
    93   47   48 2    
    94   47   49 am   BACKBONE|DICT|INTERRES
    95   49   50 1    
    96   49  105 1    
    97   50   51 1    
    98   50   52 1    
    99   50  106 1    
   100   51  107 1    
   101   51  108 1    
   102   51  109 1    
   103   52   53 2    
   104   52   54 am   BACKBONE|DICT|INTERRES
   105   54   55 1    
   106   54  110 1    
   107   55   56 1    
   108   55   59 1    
   109   55  111 1    
   110   56   57 am   BACKBONE|DICT|INTERRES
   111   56   58 2    
   112   57  112 1    
   113   57  113 1    
   114   59   60 1    
   115   59  114 1    
   116   59  115 1    
   117   60   61 1    
   118   61  116 1    
   119   61  117 1    
@<TRIPOS>SUBSTRUCTURE
     1 UNK         1 GROUP             0       ****    0 ROOT    
