@<TRIPOS>MOLECULE
3R8
117   119    1
SMALL
USER_CHARGES


@<TRIPOS>ATOM
      1 CA         12.6931  -24.1317  -46.1820 C.3       0 UNK        -0.2013 
      2 C          14.1149  -24.6129  -46.4301 C.2       0 UNK         0.4866 
      3 O          14.7772  -24.1228  -47.3456 O.2       0 UNK        -0.5176 
      4 N          14.5863  -25.5751  -45.6284 N.am      1 UNK        -0.4884 
      5 CA         15.9519  -26.1069  -45.6639 C.3       1 UNK         0.0853 
      6 C6         16.0602  -27.4723  -44.9337 C.3       10 UNK        -0.0849 
      7 S7         15.3621  -27.4780  -43.2439 S.3       10 UNK        -0.2776 
      8 C8         15.6664  -29.1992  -42.7370 C.3       10 UNK         0.0316 
      9 C9         17.1422  -29.4668  -42.4783 C.ar      10 UNK        -0.0863 
     10 C10        17.8678  -30.3150  -43.3195 C.ar      10 UNK        -0.1009 
     11 C11        19.2139  -30.5912  -43.0600 C.ar      10 UNK        -0.0712 
     12 C12        19.8338  -30.0089  -41.9501 C.ar      10 UNK        -0.0894 
     13 C13        19.1291  -29.1261  -41.1237 C.ar      10 UNK        -0.0745 
     14 C14        17.7800  -28.8722  -41.3861 C.ar      10 UNK        -0.0972 
     15 C15        19.8155  -28.4363  -39.9504 C.3       10 UNK         0.0209 
     16 S16        21.3327  -27.5460  -40.4381 S.3       10 UNK        -0.2568 
     17 C17        20.6867  -26.3082  -41.6183 C.3       10 UNK        -0.0983 
     18 CA         20.9504  -26.6837  -43.1033 C.3       3 UNK         0.0876 
     19 N          20.1288  -25.9252  -44.0569 N.am      3 UNK        -0.4424 
     20 C          20.0859  -24.5971  -44.2381 C.2       2 UNK         0.4918 
     21 O          20.7310  -23.7919  -43.5654 O.2       2 UNK        -0.4875 
     22 CA         19.2188  -24.0752  -45.3967 C.3       2 UNK         0.0481 
     23 CB         20.0984  -23.8038  -46.6282 C.3       2 UNK        -0.1831 
     24 N          18.1370  -24.9924  -45.7700 N.am      2 UNK        -0.4498 
     25 C          16.9665  -25.0757  -45.1219 C.2       1 UNK         0.5027 
     26 O          16.6800  -24.3871  -44.1386 O.2       1 UNK        -0.4969 
     27 C          22.4528  -26.6641  -43.4613 C.2       3 UNK         0.5005 
     28 O          23.0635  -27.7288  -43.5572 O.2       3 UNK        -0.5279 
     29 N          23.0265  -25.4640  -43.6426 N.am      4 UNK        -0.4463 
     30 CA         24.4318  -25.1851  -43.9784 C.3       4 UNK         0.0283 
     31 CB         24.7315  -25.6184  -45.4288 C.3       4 UNK        -0.1875 
     32 C          25.4339  -25.7789  -42.9647 C.2       4 UNK         0.4949 
     33 O          26.5420  -26.1591  -43.3438 O.2       4 UNK        -0.5039 
     34 N          24.9990  -25.8739  -41.6987 N.am      5 UNK        -0.4663 
     35 CA         25.6638  -26.5054  -40.5514 C.3       5 UNK         0.0242 
     36 CB         27.0047  -25.8121  -40.2293 C.3       5 UNK        -0.1982 
     37 C          25.8140  -28.0385  -40.6533 C.2       5 UNK         0.5017 
     38 O          26.4302  -28.6323  -39.7665 O.2       5 UNK        -0.5012 
     39 N          25.2219  -28.6783  -41.6734 N.am      6 UNK        -0.4439 
     40 CA         25.2096  -30.1318  -41.8582 C.3       6 UNK         0.0297 
     41 CB         25.1618  -30.4517  -43.3638 C.3       6 UNK        -0.2006 
     42 C          24.0346  -30.7515  -41.0829 C.2       6 UNK         0.4892 
     43 O          23.1728  -31.3994  -41.6775 O.2       6 UNK        -0.5089 
     44 N          24.0168  -30.5198  -39.7629 N.am      7 UNK        -0.4243 
     45 CA         22.9127  -30.8252  -38.8469 C.3       7 UNK         0.0196 
     46 CB         23.2408  -30.2581  -37.4570 C.3       7 UNK        -0.2007 
     47 C          22.5193  -32.3088  -38.7520 C.2       7 UNK         0.5020 
     48 O          21.3760  -32.6026  -38.4027 O.2       7 UNK        -0.5147 
     49 N          23.4516  -33.2153  -39.0751 N.am      8 UNK        -0.4734 
     50 CA         23.1947  -34.6539  -39.1876 C.3       8 UNK         0.0238 
     51 CB         24.5338  -35.4053  -39.2614 C.3       8 UNK        -0.1912 
     52 C          22.3069  -35.0140  -40.3940 C.2       8 UNK         0.5038 
     53 O          21.5786  -36.0046  -40.3228 O.2       8 UNK        -0.5046 
     54 N          22.3816  -34.2064  -41.4633 N.am      9 UNK        -0.4200 
     55 CA         21.6166  -34.3326  -42.7125 C.3       9 UNK         0.0839 
     56 C          21.8003  -35.6921  -43.4586 C.2       9 UNK         0.5513 
     57 N          22.9717  -36.3128  -43.3787 N.am      9 UNK        -0.7519 
     58 O          20.8943  -36.1892  -44.1225 O.2       9 UNK        -0.4960 
     59 C59        20.1404  -33.8796  -42.5204 C.3       10 UNK        -0.0876 
     60 S60        19.4090  -33.1944  -44.0457 S.3       10 UNK        -0.2414 
     61 C61        20.0089  -31.4744  -44.0111 C.3       10 UNK         0.0169 
     62 H62        12.2217  -24.6620  -45.3546 H         1 UNK         0.0903 
     63 H63        12.6932  -23.0677  -45.9465 H         1 UNK         0.0903 
     64 H64        12.0842  -24.2838  -47.0728 H         1 UNK         0.0903 
     65 H65        14.0190  -25.9184  -44.8654 H         1 UNK         0.3096 
     66 H66        16.1970  -26.2828  -46.7141 H         1 UNK         0.1121 
     67 H67        17.0982  -27.8082  -44.8937 H         1 UNK         0.0849 
     68 H68        15.5298  -28.2293  -45.5137 H         1 UNK         0.0849 
     69 H69        15.1044  -29.4016  -41.8241 H         1 UNK         0.0865 
     70 H70        15.2696  -29.8778  -43.4939 H         1 UNK         0.0865 
     71 H71        17.3874  -30.7670  -44.1767 H         1 UNK         0.1346 
     72 H72        20.8776  -30.2082  -41.7502 H         1 UNK         0.1412 
     73 H73        17.2216  -28.2020  -40.7464 H         1 UNK         0.1426 
     74 H74        20.0577  -29.1825  -39.1941 H         1 UNK         0.0716 
     75 H75        19.1407  -27.7273  -39.4681 H         1 UNK         0.0716 
     76 H76        21.1259  -25.3397  -41.3744 H         1 UNK         0.0695 
     77 H77        19.6143  -26.1951  -41.4516 H         1 UNK         0.0695 
     78 H78        20.6281  -27.7161  -43.2393 H         1 UNK         0.0983 
     79 H79        19.5779  -26.4913  -44.6847 H         1 UNK         0.3095 
     80 H80        18.7837  -23.1245  -45.0807 H         1 UNK         0.0454 
     81 H81        20.5707  -24.7138  -47.0004 H         1 UNK         0.0851 
     82 H82        20.8961  -23.0984  -46.3903 H         1 UNK         0.0851 
     83 H83        19.5183  -23.3685  -47.4422 H         1 UNK         0.0851 
     84 H84        18.2932  -25.5708  -46.5838 H         1 UNK         0.2976 
     85 H85        22.4194  -24.6532  -43.5411 H         1 UNK         0.3116 
     86 H86        24.5511  -24.1021  -43.9241 H         1 UNK         0.0646 
     87 H87        25.7281  -25.2992  -45.7362 H         1 UNK         0.0847 
     88 H88        24.0223  -25.1782  -46.1295 H         1 UNK         0.0847 
     89 H89        24.6880  -26.7021  -45.5433 H         1 UNK         0.0847 
     90 H90        24.0637  -25.5363  -41.5165 H         1 UNK         0.3040 
     91 H91        25.0006  -26.3386  -39.7009 H         1 UNK         0.1015 
     92 H92        27.7562  -26.0016  -40.9960 H         1 UNK         0.0786 
     93 H93        27.4133  -26.1708  -39.2837 H         1 UNK         0.0786 
     94 H94        26.8822  -24.7329  -40.1374 H         1 UNK         0.0786 
     95 H95        24.6564  -28.1448  -42.3275 H         1 UNK         0.3172 
     96 H96        26.1313  -30.5608  -41.4597 H         1 UNK         0.0595 
     97 H97        25.2122  -31.5277  -43.5351 H         1 UNK         0.0839 
     98 H98        26.0001  -29.9986  -43.8930 H         1 UNK         0.0839 
     99 H99        24.2412  -30.0933  -43.8259 H         1 UNK         0.0839 
    100 H100       24.7881  -29.9849  -39.3810 H         1 UNK         0.2998 
    101 H101       22.0382  -30.3011  -39.2308 H         1 UNK         0.0822 
    102 H102       22.4246  -30.4410  -36.7565 H         1 UNK         0.0787 
    103 H103       24.1393  -30.7133  -37.0383 H         1 UNK         0.0787 
    104 H104       23.3953  -29.1795  -37.4956 H         1 UNK         0.0787 
    105 H105       24.3697  -32.8852  -39.3356 H         1 UNK         0.3055 
    106 H106       22.6675  -34.9784  -38.2873 H         1 UNK         0.1106 
    107 H107       24.3729  -36.4824  -39.3266 H         1 UNK         0.0828 
    108 H108       25.1176  -35.1100  -40.1341 H         1 UNK         0.0828 
    109 H109       25.1402  -35.2242  -38.3738 H         1 UNK         0.0828 
    110 H110       22.9582  -33.3740  -41.4043 H         1 UNK         0.2931 
    111 H111       22.0912  -33.6051  -43.3714 H         1 UNK         0.0412 
    112 H112       23.7258  -35.9158  -42.8414 H         1 UNK         0.3472 
    113 H113       23.0997  -37.1900  -43.8587 H         1 UNK         0.3472 
    114 H114       20.0745  -33.1110  -41.7481 H         1 UNK         0.0970 
    115 H115       19.5252  -34.7078  -42.1647 H         1 UNK         0.0970 
    116 H116       19.9297  -31.0608  -45.0173 H         1 UNK         0.0612 
    117 H117       21.0712  -31.4608  -43.7613 H         1 UNK         0.0612 
@<TRIPOS>BOND
     1    1    2 1    
     2    1   62 1    
     3    1   63 1    
     4    1   64 1    
     5    2    3 2    
     6    2    4 am   BACKBONE|DICT|INTERRES
     7    4    5 1    
     8    4   65 1    
     9    5    6 1    
    10    5   25 1    
    11    5   66 1    
    12    6    7 1    
    13    6   67 1    
    14    6   68 1    
    15    7    8 1    
    16    8    9 1    
    17    8   69 1    
    18    8   70 1    
    19    9   10 ar   
    20    9   14 ar   
    21   10   11 ar   
    22   10   71 1    
    23   11   12 ar   
    24   11   61 1    
    25   12   13 ar   
    26   12   72 1    
    27   13   14 ar   
    28   13   15 1    
    29   14   73 1    
    30   15   16 1    
    31   15   74 1    
    32   15   75 1    
    33   16   17 1    
    34   17   18 1    
    35   17   76 1    
    36   17   77 1    
    37   18   19 1    
    38   18   27 1    
    39   18   78 1    
    40   19   20 am   BACKBONE|DICT|INTERRES
    41   19   79 1    
    42   20   21 2    
    43   20   22 1    
    44   22   23 1    
    45   22   24 1    
    46   22   80 1    
    47   23   81 1    
    48   23   82 1    
    49   23   83 1    
    50   24   25 am   BACKBONE|DICT|INTERRES
    51   24   84 1    
    52   25   26 2    
    53   27   28 2    
    54   27   29 am   BACKBONE|DICT|INTERRES
    55   29   30 1    
    56   29   85 1    
    57   30   31 1    
    58   30   32 1    
    59   30   86 1    
    60   31   87 1    
    61   31   88 1    
    62   31   89 1    
    63   32   33 2    
    64   32   34 am   BACKBONE|DICT|INTERRES
    65   34   35 1    
    66   34   90 1    
    67   35   36 1    
    68   35   37 1    
    69   35   91 1    
    70   36   92 1    
    71   36   93 1    
    72   36   94 1    
    73   37   38 2    
    74   37   39 am   BACKBONE|DICT|INTERRES
    75   39   40 1    
    76   39   95 1    
    77   40   41 1    
    78   40   42 1    
    79   40   96 1    
    80   41   97 1    
    81   41   98 1    
    82   41   99 1    
    83   42   43 2    
    84   42   44 am   BACKBONE|DICT|INTERRES
    85   44   45 1    
    86   44  100 1    
    87   45   46 1    
    88   45   47 1    
    89   45  101 1    
    90   46  102 1    
    91   46  103 1    
    92   46  104 1    
    93   47   48 2    
    94   47   49 am   BACKBONE|DICT|INTERRES
    95   49   50 1    
    96   49  105 1    
    97   50   51 1    
    98   50   52 1    
    99   50  106 1    
   100   51  107 1    
   101   51  108 1    
   102   51  109 1    
   103   52   53 2    
   104   52   54 am   BACKBONE|DICT|INTERRES
   105   54   55 1    
   106   54  110 1    
   107   55   56 1    
   108   55   59 1    
   109   55  111 1    
   110   56   57 am   BACKBONE|DICT|INTERRES
   111   56   58 2    
   112   57  112 1    
   113   57  113 1    
   114   59   60 1    
   115   59  114 1    
   116   59  115 1    
   117   60   61 1    
   118   61  116 1    
   119   61  117 1    
@<TRIPOS>SUBSTRUCTURE
     1 UNK         1 GROUP             0       ****    0 ROOT    
