@<TRIPOS>MOLECULE
3R8
117   119    1
SMALL
USER_CHARGES


@<TRIPOS>ATOM
      1 CA         13.5820  -24.7441  -42.1034 C.3       0 UNK        -0.2013 
      2 C          14.5448  -24.9937  -43.2547 C.2       0 UNK         0.4866 
      3 O          14.3799  -24.4123  -44.3280 O.2       0 UNK        -0.5176 
      4 N          15.5427  -25.8607  -43.0442 N.am      1 UNK        -0.4884 
      5 CA         16.5877  -26.1904  -44.0202 C.3       1 UNK         0.0853 
      6 C6         17.3740  -27.4620  -43.6142 C.3       10 UNK        -0.0849 
      7 S7         16.3000  -28.9335  -43.4831 S.3       10 UNK        -0.2776 
      8 C8         16.7936  -29.9099  -44.9421 C.3       10 UNK         0.0316 
      9 C9         18.2103  -30.4527  -44.8124 C.ar      10 UNK        -0.0863 
     10 C10        18.4989  -31.4387  -43.8638 C.ar      10 UNK        -0.1009 
     11 C11        19.8003  -31.9260  -43.7235 C.ar      10 UNK        -0.0712 
     12 C12        20.8133  -31.4304  -44.5481 C.ar      10 UNK        -0.0894 
     13 C13        20.5450  -30.4355  -45.4916 C.ar      10 UNK        -0.0745 
     14 C14        19.2343  -29.9640  -45.6310 C.ar      10 UNK        -0.0972 
     15 C15        21.6813  -29.8970  -46.3566 C.3       10 UNK         0.0209 
     16 S16        21.6748  -28.0823  -46.5419 S.3       10 UNK        -0.2568 
     17 C17        22.0132  -27.5093  -44.8419 C.3       10 UNK        -0.0983 
     18 CA         22.0182  -25.9609  -44.7675 C.3       3 UNK         0.0876 
     19 N          20.7155  -25.4099  -45.1492 N.am      3 UNK        -0.4424 
     20 C          20.4530  -24.1250  -45.4188 C.2       2 UNK         0.4918 
     21 O          21.3020  -23.2328  -45.3982 O.2       2 UNK        -0.4875 
     22 CA         19.0041  -23.7743  -45.8121 C.3       2 UNK         0.0481 
     23 CB         18.9124  -23.5120  -47.3244 C.3       2 UNK        -0.1831 
     24 N          18.0302  -24.8111  -45.4484 N.am      2 UNK        -0.4498 
     25 C          17.5554  -25.0035  -44.2096 C.2       1 UNK         0.5027 
     26 O          17.8762  -24.3140  -43.2382 O.2       1 UNK        -0.4969 
     27 C          22.4560  -25.4635  -43.3726 C.2       3 UNK         0.5005 
     28 O          21.6063  -25.2239  -42.5109 O.2       3 UNK        -0.5279 
     29 N          23.7759  -25.3212  -43.1850 N.am      4 UNK        -0.4463 
     30 CA         24.4131  -24.8883  -41.9384 C.3       4 UNK         0.0283 
     31 CB         25.6711  -24.0625  -42.2803 C.3       4 UNK        -0.1875 
     32 C          24.6859  -26.1049  -41.0330 C.2       4 UNK         0.4949 
     33 O          23.7441  -26.8051  -40.6659 O.2       4 UNK        -0.5039 
     34 N          25.9588  -26.3733  -40.7032 N.am      5 UNK        -0.4663 
     35 CA         26.3946  -27.5013  -39.8636 C.3       5 UNK         0.0242 
     36 CB         27.9105  -27.4008  -39.6299 C.3       5 UNK        -0.1982 
     37 C          26.0274  -28.8891  -40.4259 C.2       5 UNK         0.5017 
     38 O          25.8895  -29.8409  -39.6570 O.2       5 UNK        -0.5012 
     39 N          25.8366  -28.9662  -41.7501 N.am      6 UNK        -0.4439 
     40 CA         25.3523  -30.1404  -42.4753 C.3       6 UNK         0.0297 
     41 CB         25.5627  -29.9215  -43.9832 C.3       6 UNK        -0.2006 
     42 C          23.8852  -30.5125  -42.1799 C.2       6 UNK         0.4892 
     43 O          23.4913  -31.6228  -42.5300 O.2       6 UNK        -0.5089 
     44 N          23.1076  -29.6206  -41.5405 N.am      7 UNK        -0.4243 
     45 CA         21.6979  -29.8304  -41.1782 C.3       7 UNK         0.0196 
     46 CB         21.0601  -28.4891  -40.7846 C.3       7 UNK        -0.2007 
     47 C          21.4509  -30.8904  -40.0837 C.2       7 UNK         0.5020 
     48 O          20.2926  -31.1766  -39.7786 O.2       7 UNK        -0.5147 
     49 N          22.5125  -31.4705  -39.5112 N.am      8 UNK        -0.4734 
     50 CA         22.4555  -32.5893  -38.5705 C.3       8 UNK         0.0238 
     51 CB         23.7622  -32.6094  -37.7552 C.3       8 UNK        -0.1912 
     52 C          22.1968  -33.9230  -39.3030 C.2       8 UNK         0.5038 
     53 O          23.1159  -34.7317  -39.4472 O.2       8 UNK        -0.5046 
     54 N          20.9558  -34.1271  -39.7577 N.am      9 UNK        -0.4200 
     55 CA         20.4639  -35.3596  -40.3903 C.3       9 UNK         0.0839 
     56 C          18.9427  -35.5522  -40.1494 C.2       9 UNK         0.5513 
     57 N          18.4044  -36.7177  -40.4809 N.am      9 UNK        -0.7519 
     58 O          18.2470  -34.6625  -39.6623 O.2       9 UNK        -0.4960 
     59 C59        20.9155  -35.5164  -41.8778 C.3       10 UNK        -0.0876 
     60 S60        19.9394  -34.6463  -43.1626 S.3       10 UNK        -0.2414 
     61 C61        20.1342  -32.9266  -42.6301 C.3       10 UNK         0.0169 
     62 H62        13.8373  -25.3336  -41.2229 H         1 UNK         0.0903 
     63 H63        13.5980  -23.6913  -41.8228 H         1 UNK         0.0903 
     64 H64        12.5660  -25.0025  -42.4010 H         1 UNK         0.0903 
     65 H65        15.6353  -26.3064  -42.1426 H         1 UNK         0.3096 
     66 H66        16.0953  -26.3827  -44.9765 H         1 UNK         0.1121 
     67 H67        18.1741  -27.6633  -44.3276 H         1 UNK         0.0849 
     68 H68        17.8673  -27.3171  -42.6507 H         1 UNK         0.0849 
     69 H69        16.1019  -30.7456  -45.0578 H         1 UNK         0.0865 
     70 H70        16.6858  -29.2996  -45.8403 H         1 UNK         0.0865 
     71 H71        17.7141  -31.8085  -43.2178 H         1 UNK         0.1346 
     72 H72        21.8204  -31.8068  -44.4363 H         1 UNK         0.1412 
     73 H73        19.0160  -29.2039  -46.3685 H         1 UNK         0.1426 
     74 H74        21.6050  -30.3482  -47.3466 H         1 UNK         0.0716 
     75 H75        22.6500  -30.1978  -45.9538 H         1 UNK         0.0716 
     76 H76        21.2649  -27.9287  -44.1661 H         1 UNK         0.0695 
     77 H77        22.9749  -27.9172  -44.5292 H         1 UNK         0.0695 
     78 H78        22.7457  -25.5864  -45.4915 H         1 UNK         0.0983 
     79 H79        19.9569  -26.0702  -45.1950 H         1 UNK         0.3095 
     80 H80        18.7391  -22.8504  -45.2936 H         1 UNK         0.0454 
     81 H81        19.5975  -22.7180  -47.6251 H         1 UNK         0.0851 
     82 H82        19.1682  -24.3986  -47.9059 H         1 UNK         0.0851 
     83 H83        17.9098  -23.1966  -47.6134 H         1 UNK         0.0851 
     84 H84        17.7110  -25.4095  -46.1976 H         1 UNK         0.2976 
     85 H85        24.3994  -25.5578  -43.9437 H         1 UNK         0.3116 
     86 H86        23.7306  -24.2354  -41.3902 H         1 UNK         0.0646 
     87 H87        26.1569  -23.6870  -41.3785 H         1 UNK         0.0847 
     88 H88        25.4106  -23.1898  -42.8797 H         1 UNK         0.0847 
     89 H89        26.4057  -24.6381  -42.8450 H         1 UNK         0.0847 
     90 H90        26.6827  -25.7537  -41.0386 H         1 UNK         0.3040 
     91 H91        25.8907  -27.4071  -38.8990 H         1 UNK         0.1015 
     92 H92        28.1760  -26.4644  -39.1386 H         1 UNK         0.0786 
     93 H93        28.4687  -27.4613  -40.5650 H         1 UNK         0.0786 
     94 H94        28.2612  -28.2106  -38.9882 H         1 UNK         0.0786 
     95 H95        25.9841  -28.1261  -42.2896 H         1 UNK         0.3172 
     96 H96        25.9624  -30.9933  -42.1703 H         1 UNK         0.0595 
     97 H97        26.6178  -29.7831  -44.2200 H         1 UNK         0.0839 
     98 H98        25.0203  -29.0499  -44.3482 H         1 UNK         0.0839 
     99 H99        25.2168  -30.7829  -44.5566 H         1 UNK         0.0839 
    100 H100       23.5041  -28.7265  -41.2667 H         1 UNK         0.2998 
    101 H101       21.1843  -30.1788  -42.0732 H         1 UNK         0.0822 
    102 H102       21.1763  -27.7473  -41.5739 H         1 UNK         0.0787 
    103 H103       19.9898  -28.6001  -40.6055 H         1 UNK         0.0787 
    104 H104       21.5036  -28.0846  -39.8743 H         1 UNK         0.0787 
    105 H105       23.4312  -31.1924  -39.8274 H         1 UNK         0.3055 
    106 H106       21.6305  -32.4295  -37.8722 H         1 UNK         0.1106 
    107 H107       24.6380  -32.7299  -38.3945 H         1 UNK         0.0828 
    108 H108       23.8892  -31.6873  -37.1877 H         1 UNK         0.0828 
    109 H109       23.7638  -33.4325  -37.0394 H         1 UNK         0.0828 
    110 H110       20.2528  -33.4105  -39.6122 H         1 UNK         0.2931 
    111 H111       20.9279  -36.1760  -39.8326 H         1 UNK         0.0412 
    112 H112       18.9615  -37.4556  -40.8830 H         1 UNK         0.3472 
    113 H113       17.4175  -36.8609  -40.3322 H         1 UNK         0.3472 
    114 H114       20.8949  -36.5754  -42.1391 H         1 UNK         0.0970 
    115 H115       21.9614  -35.2251  -41.9859 H         1 UNK         0.0970 
    116 H116       21.1604  -32.7780  -42.2964 H         1 UNK         0.0612 
    117 H117       19.4927  -32.7530  -41.7659 H         1 UNK         0.0612 
@<TRIPOS>BOND
     1    1    2 1    
     2    1   62 1    
     3    1   63 1    
     4    1   64 1    
     5    2    3 2    
     6    2    4 am   BACKBONE|DICT|INTERRES
     7    4    5 1    
     8    4   65 1    
     9    5    6 1    
    10    5   25 1    
    11    5   66 1    
    12    6    7 1    
    13    6   67 1    
    14    6   68 1    
    15    7    8 1    
    16    8    9 1    
    17    8   69 1    
    18    8   70 1    
    19    9   10 ar   
    20    9   14 ar   
    21   10   11 ar   
    22   10   71 1    
    23   11   12 ar   
    24   11   61 1    
    25   12   13 ar   
    26   12   72 1    
    27   13   14 ar   
    28   13   15 1    
    29   14   73 1    
    30   15   16 1    
    31   15   74 1    
    32   15   75 1    
    33   16   17 1    
    34   17   18 1    
    35   17   76 1    
    36   17   77 1    
    37   18   19 1    
    38   18   27 1    
    39   18   78 1    
    40   19   20 am   BACKBONE|DICT|INTERRES
    41   19   79 1    
    42   20   21 2    
    43   20   22 1    
    44   22   23 1    
    45   22   24 1    
    46   22   80 1    
    47   23   81 1    
    48   23   82 1    
    49   23   83 1    
    50   24   25 am   BACKBONE|DICT|INTERRES
    51   24   84 1    
    52   25   26 2    
    53   27   28 2    
    54   27   29 am   BACKBONE|DICT|INTERRES
    55   29   30 1    
    56   29   85 1    
    57   30   31 1    
    58   30   32 1    
    59   30   86 1    
    60   31   87 1    
    61   31   88 1    
    62   31   89 1    
    63   32   33 2    
    64   32   34 am   BACKBONE|DICT|INTERRES
    65   34   35 1    
    66   34   90 1    
    67   35   36 1    
    68   35   37 1    
    69   35   91 1    
    70   36   92 1    
    71   36   93 1    
    72   36   94 1    
    73   37   38 2    
    74   37   39 am   BACKBONE|DICT|INTERRES
    75   39   40 1    
    76   39   95 1    
    77   40   41 1    
    78   40   42 1    
    79   40   96 1    
    80   41   97 1    
    81   41   98 1    
    82   41   99 1    
    83   42   43 2    
    84   42   44 am   BACKBONE|DICT|INTERRES
    85   44   45 1    
    86   44  100 1    
    87   45   46 1    
    88   45   47 1    
    89   45  101 1    
    90   46  102 1    
    91   46  103 1    
    92   46  104 1    
    93   47   48 2    
    94   47   49 am   BACKBONE|DICT|INTERRES
    95   49   50 1    
    96   49  105 1    
    97   50   51 1    
    98   50   52 1    
    99   50  106 1    
   100   51  107 1    
   101   51  108 1    
   102   51  109 1    
   103   52   53 2    
   104   52   54 am   BACKBONE|DICT|INTERRES
   105   54   55 1    
   106   54  110 1    
   107   55   56 1    
   108   55   59 1    
   109   55  111 1    
   110   56   57 am   BACKBONE|DICT|INTERRES
   111   56   58 2    
   112   57  112 1    
   113   57  113 1    
   114   59   60 1    
   115   59  114 1    
   116   59  115 1    
   117   60   61 1    
   118   61  116 1    
   119   61  117 1    
@<TRIPOS>SUBSTRUCTURE
     1 UNK         1 GROUP             0       ****    0 ROOT    
