@<TRIPOS>MOLECULE
3R8
117   119    1
SMALL
USER_CHARGES


@<TRIPOS>ATOM
      1 CA         18.9524  -26.2533  -39.9619 C.3       0 UNK        -0.2013 
      2 C          18.9902  -26.3694  -41.4781 C.2       0 UNK         0.4866 
      3 O          20.0431  -26.6949  -42.0307 O.2       0 UNK        -0.5176 
      4 N          17.8538  -26.0975  -42.1390 N.am      1 UNK        -0.4884 
      5 CA         17.6373  -26.1420  -43.5954 C.3       1 UNK         0.0853 
      6 C6         17.8686  -27.5629  -44.1920 C.3       10 UNK        -0.0849 
      7 S7         16.7357  -28.8228  -43.5190 S.3       10 UNK        -0.2776 
      8 C8         16.7775  -30.0701  -44.8493 C.3       10 UNK         0.0316 
      9 C9         18.0630  -30.8873  -44.8210 C.ar      10 UNK        -0.0863 
     10 C10        18.0803  -32.1367  -44.1961 C.ar      10 UNK        -0.1009 
     11 C11        19.2520  -32.9026  -44.1591 C.ar      10 UNK        -0.0712 
     12 C12        20.4070  -32.3970  -44.7661 C.ar      10 UNK        -0.0894 
     13 C13        20.4144  -31.1474  -45.3951 C.ar      10 UNK        -0.0745 
     14 C14        19.2264  -30.4054  -45.4296 C.ar      10 UNK        -0.0972 
     15 C15        21.7213  -30.6714  -46.0391 C.3       10 UNK         0.0209 
     16 S16        21.7536  -28.9447  -46.6384 S.3       10 UNK        -0.2568 
     17 C17        22.2054  -28.0132  -45.1345 C.3       10 UNK        -0.0983 
     18 CA         22.3038  -26.4920  -45.4219 C.3       3 UNK         0.0876 
     19 N          21.0148  -25.9590  -45.8667 N.am      3 UNK        -0.4424 
     20 C          20.7851  -24.7726  -46.4459 C.2       2 UNK         0.4918 
     21 O          21.6716  -24.0021  -46.8127 O.2       2 UNK        -0.4875 
     22 CA         19.3038  -24.3604  -46.5911 C.3       2 UNK         0.0481 
     23 CB         18.8360  -24.5457  -48.0431 C.3       2 UNK        -0.1831 
     24 N          18.4063  -25.1041  -45.6929 N.am      2 UNK        -0.4498 
     25 C          18.4568  -25.0648  -44.3507 C.2       1 UNK         0.5027 
     26 O          19.1567  -24.2540  -43.7378 O.2       1 UNK        -0.4969 
     27 C          22.8914  -25.7227  -44.2129 C.2       3 UNK         0.5005 
     28 O          24.0542  -25.9502  -43.8808 O.2       3 UNK        -0.5279 
     29 N          22.1121  -24.8260  -43.5825 N.am      4 UNK        -0.4463 
     30 CA         22.5147  -23.8758  -42.5382 C.3       4 UNK         0.0283 
     31 CB         23.4398  -22.7912  -43.1293 C.3       4 UNK        -0.1875 
     32 C          23.1086  -24.5548  -41.2910 C.2       4 UNK         0.4949 
     33 O          24.1407  -24.1194  -40.7790 O.2       4 UNK        -0.5039 
     34 N          22.4417  -25.6272  -40.8440 N.am      5 UNK        -0.4663 
     35 CA         22.7748  -26.4709  -39.6898 C.3       5 UNK         0.0242 
     36 CB         22.8253  -25.6563  -38.3792 C.3       5 UNK        -0.1982 
     37 C          24.0163  -27.3638  -39.8832 C.2       5 UNK         0.5017 
     38 O          24.4374  -28.0090  -38.9225 O.2       5 UNK        -0.5012 
     39 N          24.5400  -27.4597  -41.1166 N.am      6 UNK        -0.4439 
     40 CA         25.5071  -28.4919  -41.5165 C.3       6 UNK         0.0297 
     41 CB         26.2784  -28.0258  -42.7618 C.3       6 UNK        -0.2006 
     42 C          24.8326  -29.8556  -41.7770 C.2       6 UNK         0.4892 
     43 O          25.5343  -30.8534  -41.9468 O.2       6 UNK        -0.5089 
     44 N          23.4923  -29.8684  -41.8163 N.am      7 UNK        -0.4243 
     45 CA         22.6303  -31.0393  -41.9443 C.3       7 UNK         0.0196 
     46 CB         21.1694  -30.5552  -41.9725 C.3       7 UNK        -0.2007 
     47 C          22.8139  -32.0369  -40.7887 C.2       7 UNK         0.5020 
     48 O          22.9059  -31.6237  -39.6314 O.2       7 UNK        -0.5147 
     49 N          22.7889  -33.3350  -41.1172 N.am      8 UNK        -0.4734 
     50 CA         22.7264  -34.4281  -40.1373 C.3       8 UNK         0.0238 
     51 CB         23.1877  -35.7323  -40.8085 C.3       8 UNK        -0.1912 
     52 C          21.3178  -34.6028  -39.5353 C.2       8 UNK         0.5038 
     53 O          21.1829  -35.2020  -38.4681 O.2       8 UNK        -0.5046 
     54 N          20.3054  -34.0882  -40.2431 N.am      9 UNK        -0.4200 
     55 CA         18.8934  -34.0428  -39.8552 C.3       9 UNK         0.0839 
     56 C          18.6643  -33.1504  -38.6059 C.2       9 UNK         0.5513 
     57 N          17.8244  -33.5861  -37.6773 N.am      9 UNK        -0.7519 
     58 O          19.2023  -32.0510  -38.4977 O.2       9 UNK        -0.4960 
     59 C59        18.0265  -33.5503  -41.0427 C.3       10 UNK        -0.0876 
     60 S60        17.9364  -34.7591  -42.4103 S.3       10 UNK        -0.2414 
     61 C61        19.3249  -34.2852  -43.5052 C.3       10 UNK         0.0169 
     62 H62        19.2681  -27.1919  -39.5073 H         1 UNK         0.0903 
     63 H63        17.9534  -26.0195  -39.5947 H         1 UNK         0.0903 
     64 H64        19.6291  -25.4669  -39.6287 H         1 UNK         0.0903 
     65 H65        17.0446  -25.8121  -41.6054 H         1 UNK         0.3096 
     66 H66        16.5908  -25.8757  -43.7536 H         1 UNK         0.1121 
     67 H67        18.8931  -27.8960  -44.0207 H         1 UNK         0.0849 
     68 H68        17.7265  -27.5601  -45.2728 H         1 UNK         0.0849 
     69 H69        15.9154  -30.7287  -44.7323 H         1 UNK         0.0865 
     70 H70        16.6535  -29.5920  -45.8220 H         1 UNK         0.0865 
     71 H71        17.1710  -32.5060  -43.7442 H         1 UNK         0.1346 
     72 H72        21.3139  -32.9862  -44.7523 H         1 UNK         0.1412 
     73 H73        19.1954  -29.4494  -45.9295 H         1 UNK         0.1426 
     74 H74        22.5465  -30.8136  -45.3397 H         1 UNK         0.0716 
     75 H75        21.9287  -31.3200  -46.8911 H         1 UNK         0.0716 
     76 H76        23.1583  -28.4028  -44.7703 H         1 UNK         0.0695 
     77 H77        21.4682  -28.2104  -44.3548 H         1 UNK         0.0695 
     78 H78        23.0144  -26.3474  -46.2387 H         1 UNK         0.0983 
     79 H79        20.2165  -26.5315  -45.6452 H         1 UNK         0.3095 
     80 H80        19.2309  -23.3006  -46.3386 H         1 UNK         0.0454 
     81 H81        17.8137  -24.1931  -48.1803 H         1 UNK         0.0851 
     82 H82        18.8772  -25.5909  -48.3524 H         1 UNK         0.0851 
     83 H83        19.4657  -23.9788  -48.7305 H         1 UNK         0.0851 
     84 H84        17.7711  -25.7513  -46.1382 H         1 UNK         0.2976 
     85 H85        21.1376  -24.7585  -43.8584 H         1 UNK         0.3116 
     86 H86        21.5988  -23.3834  -42.2080 H         1 UNK         0.0646 
     87 H87        22.9814  -22.3057  -43.9908 H         1 UNK         0.0847 
     88 H88        23.6513  -22.0136  -42.3944 H         1 UNK         0.0847 
     89 H89        24.3966  -23.2063  -43.4481 H         1 UNK         0.0847 
     90 H90        21.6197  -25.9231  -41.3704 H         1 UNK         0.3040 
     91 H91        21.9402  -27.1676  -39.5972 H         1 UNK         0.1015 
     92 H92        23.6926  -24.9970  -38.3413 H         1 UNK         0.0786 
     93 H93        22.8860  -26.3154  -37.5123 H         1 UNK         0.0786 
     94 H94        21.9315  -25.0450  -38.2559 H         1 UNK         0.0786 
     95 H95        24.1871  -26.8562  -41.8517 H         1 UNK         0.3172 
     96 H96        26.2282  -28.6288  -40.7079 H         1 UNK         0.0595 
     97 H97        26.7045  -27.0323  -42.6216 H         1 UNK         0.0839 
     98 H98        25.6414  -27.9982  -43.6461 H         1 UNK         0.0839 
     99 H99        27.1029  -28.7049  -42.9825 H         1 UNK         0.0839 
    100 H100       23.0219  -28.9928  -41.6500 H         1 UNK         0.2998 
    101 H101       22.8674  -31.5306  -42.8897 H         1 UNK         0.0822 
    102 H102       20.4760  -31.3919  -42.0474 H         1 UNK         0.0787 
    103 H103       20.9078  -30.0061  -41.0666 H         1 UNK         0.0787 
    104 H104       20.9757  -29.9024  -42.8222 H         1 UNK         0.0787 
    105 H105       22.7556  -33.5967  -42.0923 H         1 UNK         0.3055 
    106 H106       23.4082  -34.2038  -39.3135 H         1 UNK         0.1106 
    107 H107       24.2054  -35.6445  -41.1896 H         1 UNK         0.0828 
    108 H108       23.1812  -36.5596  -40.0974 H         1 UNK         0.0828 
    109 H109       22.5393  -36.0132  -41.6394 H         1 UNK         0.0828 
    110 H110       20.5390  -33.5935  -41.0876 H         1 UNK         0.2931 
    111 H111       18.5922  -35.0624  -39.6056 H         1 UNK         0.0412 
    112 H112       17.3702  -34.4825  -37.7640 H         1 UNK         0.3472 
    113 H113       17.6492  -33.0128  -36.8665 H         1 UNK         0.3472 
    114 H114       16.9993  -33.3812  -40.7132 H         1 UNK         0.0970 
    115 H115       18.3788  -32.5851  -41.4099 H         1 UNK         0.0970 
    116 H116       20.2573  -34.3782  -42.9492 H         1 UNK         0.0612 
    117 H117       19.3789  -35.0267  -44.3033 H         1 UNK         0.0612 
@<TRIPOS>BOND
     1    1    2 1    
     2    1   62 1    
     3    1   63 1    
     4    1   64 1    
     5    2    3 2    
     6    2    4 am   BACKBONE|DICT|INTERRES
     7    4    5 1    
     8    4   65 1    
     9    5    6 1    
    10    5   25 1    
    11    5   66 1    
    12    6    7 1    
    13    6   67 1    
    14    6   68 1    
    15    7    8 1    
    16    8    9 1    
    17    8   69 1    
    18    8   70 1    
    19    9   10 ar   
    20    9   14 ar   
    21   10   11 ar   
    22   10   71 1    
    23   11   12 ar   
    24   11   61 1    
    25   12   13 ar   
    26   12   72 1    
    27   13   14 ar   
    28   13   15 1    
    29   14   73 1    
    30   15   16 1    
    31   15   74 1    
    32   15   75 1    
    33   16   17 1    
    34   17   18 1    
    35   17   76 1    
    36   17   77 1    
    37   18   19 1    
    38   18   27 1    
    39   18   78 1    
    40   19   20 am   BACKBONE|DICT|INTERRES
    41   19   79 1    
    42   20   21 2    
    43   20   22 1    
    44   22   23 1    
    45   22   24 1    
    46   22   80 1    
    47   23   81 1    
    48   23   82 1    
    49   23   83 1    
    50   24   25 am   BACKBONE|DICT|INTERRES
    51   24   84 1    
    52   25   26 2    
    53   27   28 2    
    54   27   29 am   BACKBONE|DICT|INTERRES
    55   29   30 1    
    56   29   85 1    
    57   30   31 1    
    58   30   32 1    
    59   30   86 1    
    60   31   87 1    
    61   31   88 1    
    62   31   89 1    
    63   32   33 2    
    64   32   34 am   BACKBONE|DICT|INTERRES
    65   34   35 1    
    66   34   90 1    
    67   35   36 1    
    68   35   37 1    
    69   35   91 1    
    70   36   92 1    
    71   36   93 1    
    72   36   94 1    
    73   37   38 2    
    74   37   39 am   BACKBONE|DICT|INTERRES
    75   39   40 1    
    76   39   95 1    
    77   40   41 1    
    78   40   42 1    
    79   40   96 1    
    80   41   97 1    
    81   41   98 1    
    82   41   99 1    
    83   42   43 2    
    84   42   44 am   BACKBONE|DICT|INTERRES
    85   44   45 1    
    86   44  100 1    
    87   45   46 1    
    88   45   47 1    
    89   45  101 1    
    90   46  102 1    
    91   46  103 1    
    92   46  104 1    
    93   47   48 2    
    94   47   49 am   BACKBONE|DICT|INTERRES
    95   49   50 1    
    96   49  105 1    
    97   50   51 1    
    98   50   52 1    
    99   50  106 1    
   100   51  107 1    
   101   51  108 1    
   102   51  109 1    
   103   52   53 2    
   104   52   54 am   BACKBONE|DICT|INTERRES
   105   54   55 1    
   106   54  110 1    
   107   55   56 1    
   108   55   59 1    
   109   55  111 1    
   110   56   57 am   BACKBONE|DICT|INTERRES
   111   56   58 2    
   112   57  112 1    
   113   57  113 1    
   114   59   60 1    
   115   59  114 1    
   116   59  115 1    
   117   60   61 1    
   118   61  116 1    
   119   61  117 1    
@<TRIPOS>SUBSTRUCTURE
     1 UNK         1 GROUP             0       ****    0 ROOT    
