@<TRIPOS>MOLECULE
3R8
117   119    1
SMALL
USER_CHARGES


@<TRIPOS>ATOM
      1 CA         18.3092  -23.0037  -48.7166 C.3       0 UNK        -0.2013 
      2 C          18.2469  -24.2474  -47.8416 C.2       0 UNK         0.4866 
      3 O          17.7861  -24.1619  -46.7031 O.2       0 UNK        -0.5176 
      4 N          18.6951  -25.3918  -48.3797 N.am      1 UNK        -0.4884 
      5 CA         18.8083  -26.7091  -47.7342 C.3       1 UNK         0.0853 
      6 C6         17.4980  -27.1664  -47.0269 C.3       10 UNK        -0.0849 
      7 S7         17.2938  -28.9801  -46.9720 S.3       10 UNK        -0.2776 
      8 C8         15.8788  -29.1595  -45.8330 C.3       10 UNK         0.0316 
      9 C9         16.2883  -29.2104  -44.3631 C.ar      10 UNK        -0.0863 
     10 C10        16.5110  -30.4430  -43.7344 C.ar      10 UNK        -0.1009 
     11 C11        16.8116  -30.5007  -42.3687 C.ar      10 UNK        -0.0712 
     12 C12        16.8849  -29.3154  -41.6335 C.ar      10 UNK        -0.0894 
     13 C13        16.7248  -28.0735  -42.2566 C.ar      10 UNK        -0.0745 
     14 C14        16.4050  -28.0309  -43.6180 C.ar      10 UNK        -0.0972 
     15 C15        16.8743  -26.7775  -41.4635 C.3       10 UNK         0.0209 
     16 S16        18.3337  -26.7588  -40.3611 S.3       10 UNK        -0.2568 
     17 C17        19.7302  -26.7312  -41.5394 C.3       10 UNK        -0.0983 
     18 CA         20.2887  -28.1385  -41.8799 C.3       3 UNK         0.0876 
     19 N          21.0541  -28.1105  -43.1284 N.am      3 UNK        -0.4424 
     20 C          20.5915  -28.5840  -44.2881 C.2       2 UNK         0.4918 
     21 O          19.5230  -29.1787  -44.4056 O.2       2 UNK        -0.4875 
     22 CA         21.4541  -28.3852  -45.5416 C.3       2 UNK         0.0481 
     23 CB         22.1799  -29.6903  -45.9052 C.3       2 UNK        -0.1831 
     24 N          20.5710  -28.0074  -46.6451 N.am      2 UNK        -0.4498 
     25 C          20.0299  -26.7915  -46.7901 C.2       1 UNK         0.5027 
     26 O          20.4418  -25.7929  -46.1938 O.2       1 UNK        -0.4969 
     27 C          21.1344  -28.7596  -40.7566 C.2       3 UNK         0.5005 
     28 O          22.3547  -28.8996  -40.9049 O.2       3 UNK        -0.5279 
     29 N          20.4613  -29.1367  -39.6608 N.am      4 UNK        -0.4463 
     30 CA         20.9431  -29.9045  -38.5041 C.3       4 UNK         0.0283 
     31 CB         19.7224  -30.4182  -37.7164 C.3       4 UNK        -0.1875 
     32 C          21.9420  -29.1617  -37.5897 C.2       4 UNK         0.4949 
     33 O          21.8906  -29.3086  -36.3679 O.2       4 UNK        -0.5039 
     34 N          22.8410  -28.3893  -38.1979 N.am      5 UNK        -0.4663 
     35 CA         23.9234  -27.6371  -37.5670 C.3       5 UNK         0.0242 
     36 CB         23.3809  -26.4305  -36.7755 C.3       5 UNK        -0.1982 
     37 C          24.9136  -27.1825  -38.6424 C.2       5 UNK         0.5017 
     38 O          26.1228  -27.2833  -38.4370 O.2       5 UNK        -0.5012 
     39 N          24.3750  -26.7112  -39.7769 N.am      6 UNK        -0.4439 
     40 CA         25.1344  -26.2693  -40.9448 C.3       6 UNK         0.0297 
     41 CB         24.2035  -25.5101  -41.9051 C.3       6 UNK        -0.2006 
     42 C          25.8440  -27.4208  -41.6753 C.2       6 UNK         0.4892 
     43 O          27.0072  -27.2596  -42.0474 O.2       6 UNK        -0.5089 
     44 N          25.1421  -28.5466  -41.8769 N.am      7 UNK        -0.4243 
     45 CA         25.6498  -29.6938  -42.6385 C.3       7 UNK         0.0196 
     46 CB         25.6404  -29.3752  -44.1505 C.3       7 UNK        -0.2007 
     47 C          24.9317  -31.0110  -42.2932 C.2       7 UNK         0.5020 
     48 O          24.8822  -31.9097  -43.1331 O.2       7 UNK        -0.5147 
     49 N          24.3835  -31.1159  -41.0721 N.am      8 UNK        -0.4734 
     50 CA         23.7224  -32.3011  -40.4951 C.3       8 UNK         0.0238 
     51 CB         24.7729  -33.3878  -40.1804 C.3       8 UNK        -0.1912 
     52 C          22.5432  -32.8510  -41.3314 C.2       8 UNK         0.5038 
     53 O          22.3169  -34.0622  -41.3449 O.2       8 UNK        -0.5046 
     54 N          21.8366  -31.9524  -42.0300 N.am      9 UNK        -0.4200 
     55 CA         20.7907  -32.2477  -43.0291 C.3       9 UNK         0.0839 
     56 C          21.3109  -32.9412  -44.3275 C.2       9 UNK         0.5513 
     57 N          22.6112  -32.9880  -44.5930 N.am      9 UNK        -0.7519 
     58 O          20.5194  -33.4222  -45.1341 O.2       9 UNK        -0.4960 
     59 C59        19.5304  -32.9560  -42.4508 C.3       10 UNK        -0.0876 
     60 S60        18.7424  -32.0462  -41.0795 S.3       10 UNK        -0.2414 
     61 C61        17.0243  -31.8332  -41.6619 C.3       10 UNK         0.0169 
     62 H62        18.9353  -22.2461  -48.2459 H         1 UNK         0.0903 
     63 H63        18.7195  -23.2164  -49.7037 H         1 UNK         0.0903 
     64 H64        17.3110  -22.5869  -48.8479 H         1 UNK         0.0903 
     65 H65        19.0687  -25.3587  -49.3189 H         1 UNK         0.3096 
     66 H66        19.0009  -27.3947  -48.5617 H         1 UNK         0.1121 
     67 H67        17.4424  -26.7583  -46.0172 H         1 UNK         0.0849 
     68 H68        16.6306  -26.7701  -47.5572 H         1 UNK         0.0849 
     69 H69        15.1673  -28.3489  -45.9981 H         1 UNK         0.0865 
     70 H70        15.3457  -30.0756  -46.0918 H         1 UNK         0.0865 
     71 H71        16.4355  -31.3574  -44.3063 H         1 UNK         0.1346 
     72 H72        17.1014  -29.3627  -40.5754 H         1 UNK         0.1412 
     73 H73        16.2398  -27.0765  -44.0973 H         1 UNK         0.1426 
     74 H74        15.9786  -26.6396  -40.8567 H         1 UNK         0.0716 
     75 H75        16.9289  -25.9169  -42.1322 H         1 UNK         0.0716 
     76 H76        19.3819  -26.2406  -42.4502 H         1 UNK         0.0695 
     77 H77        20.5160  -26.0866  -41.1413 H         1 UNK         0.0695 
     78 H78        19.4500  -28.8223  -42.0056 H         1 UNK         0.0983 
     79 H79        21.9739  -27.6996  -43.0775 H         1 UNK         0.3095 
     80 H80        22.1918  -27.6000  -45.3629 H         1 UNK         0.0454 
     81 H81        21.4801  -30.4682  -46.2135 H         1 UNK         0.0851 
     82 H82        22.8890  -29.5371  -46.7186 H         1 UNK         0.0851 
     83 H83        22.7355  -30.0857  -45.0552 H         1 UNK         0.0851 
     84 H84        20.1202  -28.7772  -47.1199 H         1 UNK         0.2976 
     85 H85        19.4816  -28.8894  -39.6283 H         1 UNK         0.3116 
     86 H86        21.4669  -30.7767  -38.8940 H         1 UNK         0.0646 
     87 H87        20.0262  -31.0835  -36.9071 H         1 UNK         0.0847 
     88 H88        19.0419  -30.9850  -38.3502 H         1 UNK         0.0847 
     89 H89        19.1589  -29.5979  -37.2700 H         1 UNK         0.0847 
     90 H90        22.8324  -28.4121  -39.2147 H         1 UNK         0.3040 
     91 H91        24.4553  -28.3018  -36.8825 H         1 UNK         0.1015 
     92 H92        22.7567  -26.7474  -35.9401 H         1 UNK         0.0786 
     93 H93        22.7847  -25.7683  -37.4042 H         1 UNK         0.0786 
     94 H94        24.1971  -25.8394  -36.3580 H         1 UNK         0.0786 
     95 H95        23.3714  -26.6255  -39.8322 H         1 UNK         0.3172 
     96 H96        25.9020  -25.5728  -40.6003 H         1 UNK         0.0595 
     97 H97        23.7768  -24.6273  -41.4285 H         1 UNK         0.0839 
     98 H98        23.3804  -26.1333  -42.2543 H         1 UNK         0.0839 
     99 H99        24.7485  -25.1671  -42.7858 H         1 UNK         0.0839 
    100 H100       24.1836  -28.6057  -41.5443 H         1 UNK         0.2998 
    101 H101       26.6876  -29.8644  -42.3440 H         1 UNK         0.0822 
    102 H102       26.3500  -28.5837  -44.3910 H         1 UNK         0.0787 
    103 H103       25.9227  -30.2392  -44.7533 H         1 UNK         0.0787 
    104 H104       24.6590  -29.0426  -44.4821 H         1 UNK         0.0787 
    105 H105       24.4555  -30.3178  -40.4574 H         1 UNK         0.3055 
    106 H106       23.2942  -31.9855  -39.5440 H         1 UNK         0.1106 
    107 H107       25.2116  -33.7992  -41.0902 H         1 UNK         0.0828 
    108 H108       25.5824  -32.9926  -39.5669 H         1 UNK         0.0828 
    109 H109       24.3290  -34.2178  -39.6293 H         1 UNK         0.0828 
    110 H110       22.1125  -30.9836  -41.9515 H         1 UNK         0.2931 
    111 H111       20.4585  -31.2714  -43.3666 H         1 UNK         0.0412 
    112 H112       22.9174  -33.4351  -45.4419 H         1 UNK         0.3472 
    113 H113       23.3029  -32.6045  -43.9552 H         1 UNK         0.3472 
    114 H114       19.7801  -33.9584  -42.1007 H         1 UNK         0.0970 
    115 H115       18.7892  -33.0953  -43.2392 H         1 UNK         0.0970 
    116 H116       16.7309  -32.6701  -42.2970 H         1 UNK         0.0612 
    117 H117       16.3642  -31.8729  -40.7943 H         1 UNK         0.0612 
@<TRIPOS>BOND
     1    1    2 1    
     2    1   62 1    
     3    1   63 1    
     4    1   64 1    
     5    2    3 2    
     6    2    4 am   BACKBONE|DICT|INTERRES
     7    4    5 1    
     8    4   65 1    
     9    5    6 1    
    10    5   25 1    
    11    5   66 1    
    12    6    7 1    
    13    6   67 1    
    14    6   68 1    
    15    7    8 1    
    16    8    9 1    
    17    8   69 1    
    18    8   70 1    
    19    9   10 ar   
    20    9   14 ar   
    21   10   11 ar   
    22   10   71 1    
    23   11   12 ar   
    24   11   61 1    
    25   12   13 ar   
    26   12   72 1    
    27   13   14 ar   
    28   13   15 1    
    29   14   73 1    
    30   15   16 1    
    31   15   74 1    
    32   15   75 1    
    33   16   17 1    
    34   17   18 1    
    35   17   76 1    
    36   17   77 1    
    37   18   19 1    
    38   18   27 1    
    39   18   78 1    
    40   19   20 am   BACKBONE|DICT|INTERRES
    41   19   79 1    
    42   20   21 2    
    43   20   22 1    
    44   22   23 1    
    45   22   24 1    
    46   22   80 1    
    47   23   81 1    
    48   23   82 1    
    49   23   83 1    
    50   24   25 am   BACKBONE|DICT|INTERRES
    51   24   84 1    
    52   25   26 2    
    53   27   28 2    
    54   27   29 am   BACKBONE|DICT|INTERRES
    55   29   30 1    
    56   29   85 1    
    57   30   31 1    
    58   30   32 1    
    59   30   86 1    
    60   31   87 1    
    61   31   88 1    
    62   31   89 1    
    63   32   33 2    
    64   32   34 am   BACKBONE|DICT|INTERRES
    65   34   35 1    
    66   34   90 1    
    67   35   36 1    
    68   35   37 1    
    69   35   91 1    
    70   36   92 1    
    71   36   93 1    
    72   36   94 1    
    73   37   38 2    
    74   37   39 am   BACKBONE|DICT|INTERRES
    75   39   40 1    
    76   39   95 1    
    77   40   41 1    
    78   40   42 1    
    79   40   96 1    
    80   41   97 1    
    81   41   98 1    
    82   41   99 1    
    83   42   43 2    
    84   42   44 am   BACKBONE|DICT|INTERRES
    85   44   45 1    
    86   44  100 1    
    87   45   46 1    
    88   45   47 1    
    89   45  101 1    
    90   46  102 1    
    91   46  103 1    
    92   46  104 1    
    93   47   48 2    
    94   47   49 am   BACKBONE|DICT|INTERRES
    95   49   50 1    
    96   49  105 1    
    97   50   51 1    
    98   50   52 1    
    99   50  106 1    
   100   51  107 1    
   101   51  108 1    
   102   51  109 1    
   103   52   53 2    
   104   52   54 am   BACKBONE|DICT|INTERRES
   105   54   55 1    
   106   54  110 1    
   107   55   56 1    
   108   55   59 1    
   109   55  111 1    
   110   56   57 am   BACKBONE|DICT|INTERRES
   111   56   58 2    
   112   57  112 1    
   113   57  113 1    
   114   59   60 1    
   115   59  114 1    
   116   59  115 1    
   117   60   61 1    
   118   61  116 1    
   119   61  117 1    
@<TRIPOS>SUBSTRUCTURE
     1 UNK         1 GROUP             0       ****    0 ROOT    
