@<TRIPOS>MOLECULE
3R8
117   119    1
SMALL
USER_CHARGES


@<TRIPOS>ATOM
      1 CA         18.4882  -22.1028  -42.9657 C.3       0 UNK        -0.2013 
      2 C          18.8066  -23.2423  -43.9220 C.2       0 UNK         0.4866 
      3 O          19.6774  -23.0949  -44.7799 O.2       0 UNK        -0.5176 
      4 N          18.1056  -24.3744  -43.7818 N.am      1 UNK        -0.4884 
      5 CA         18.3649  -25.6140  -44.5231 C.3       1 UNK         0.0853 
      6 C6         17.0643  -26.4368  -44.6986 C.3       10 UNK        -0.0849 
      7 S7         17.0857  -27.4577  -46.2138 S.3       10 UNK        -0.2776 
      8 C8         15.8360  -28.7255  -45.8310 C.3       10 UNK         0.0316 
      9 C9         16.3668  -29.7535  -44.8439 C.ar      10 UNK        -0.0863 
     10 C10        17.1085  -30.8482  -45.2964 C.ar      10 UNK        -0.1009 
     11 C11        17.6204  -31.7885  -44.3930 C.ar      10 UNK        -0.0712 
     12 C12        17.3727  -31.6225  -43.0251 C.ar      10 UNK        -0.0894 
     13 C13        16.6188  -30.5383  -42.5637 C.ar      10 UNK        -0.0745 
     14 C14        16.1109  -29.6152  -43.4787 C.ar      10 UNK        -0.0972 
     15 C15        16.3264  -30.3591  -41.0822 C.3       10 UNK         0.0209 
     16 S16        17.4049  -29.0977  -40.3340 S.3       10 UNK        -0.2568 
     17 C17        18.9340  -30.0545  -40.0573 C.3       10 UNK        -0.0983 
     18 CA         20.2245  -29.3588  -40.5494 C.3       3 UNK         0.0876 
     19 N          20.1898  -29.0226  -41.9767 N.am      3 UNK        -0.4424 
     20 C          21.2855  -28.7477  -42.6968 C.2       2 UNK         0.4918 
     21 O          22.4270  -28.7820  -42.2354 O.2       2 UNK        -0.4875 
     22 CA         21.0930  -28.3418  -44.1683 C.3       2 UNK         0.0481 
     23 CB         21.0854  -29.5975  -45.0467 C.3       2 UNK        -0.1831 
     24 N          19.9065  -27.5311  -44.4791 N.am      2 UNK        -0.4498 
     25 C          19.5009  -26.4196  -43.8497 C.2       1 UNK         0.5027 
     26 O          19.9884  -26.0273  -42.7869 O.2       1 UNK        -0.4969 
     27 C          20.6425  -28.1787  -39.6428 C.2       3 UNK         0.5005 
     28 O          21.1980  -28.4168  -38.5694 O.2       3 UNK        -0.5279 
     29 N          20.3935  -26.9398  -40.0880 N.am      4 UNK        -0.4463 
     30 CA         20.8076  -25.7119  -39.4100 C.3       4 UNK         0.0283 
     31 CB         19.6909  -24.6614  -39.5351 C.3       4 UNK        -0.1875 
     32 C          22.1185  -25.1708  -39.9987 C.2       4 UNK         0.4949 
     33 O          22.9783  -24.7168  -39.2442 O.2       4 UNK        -0.5039 
     34 N          22.2408  -25.2113  -41.3327 N.am      5 UNK        -0.4663 
     35 CA         23.3642  -24.6535  -42.0876 C.3       5 UNK         0.0242 
     36 CB         22.9640  -24.5274  -43.5660 C.3       5 UNK        -0.1982 
     37 C          24.6690  -25.4540  -41.9533 C.2       5 UNK         0.5017 
     38 O          25.7413  -24.8505  -42.0126 O.2       5 UNK        -0.5012 
     39 N          24.5626  -26.7787  -41.7914 N.am      6 UNK        -0.4439 
     40 CA         25.6927  -27.6928  -41.6500 C.3       6 UNK         0.0297 
     41 CB         25.8280  -28.5630  -42.9160 C.3       6 UNK        -0.2006 
     42 C          25.5236  -28.5193  -40.3710 C.2       6 UNK         0.4892 
     43 O          26.1697  -28.2103  -39.3694 O.2       6 UNK        -0.5089 
     44 N          24.6617  -29.5411  -40.4281 N.am      7 UNK        -0.4243 
     45 CA         24.3742  -30.4971  -39.3539 C.3       7 UNK         0.0196 
     46 CB         25.6349  -31.2740  -38.9151 C.3       7 UNK        -0.2007 
     47 C          23.2984  -31.4899  -39.8056 C.2       7 UNK         0.5020 
     48 O          22.4140  -31.8243  -39.0184 O.2       7 UNK        -0.5147 
     49 N          23.3776  -31.9269  -41.0678 N.am      8 UNK        -0.4734 
     50 CA         22.4494  -32.8381  -41.7322 C.3       8 UNK         0.0238 
     51 CB         22.5884  -34.2637  -41.1568 C.3       8 UNK        -0.1912 
     52 C          22.7585  -32.8284  -43.2351 C.2       8 UNK         0.5038 
     53 O          23.7995  -32.3027  -43.6412 O.2       8 UNK        -0.5046 
     54 N          21.8603  -33.4260  -44.0247 N.am      9 UNK        -0.4200 
     55 CA         22.0547  -33.6907  -45.4578 C.3       9 UNK         0.0839 
     56 C          23.1095  -34.8046  -45.6982 C.2       9 UNK         0.5513 
     57 N          23.8847  -34.7033  -46.7688 N.am      9 UNK        -0.7519 
     58 O          23.1998  -35.7761  -44.9500 O.2       9 UNK        -0.4960 
     59 C59        20.7160  -34.0456  -46.1558 C.3       10 UNK        -0.0876 
     60 S60        19.5885  -32.6161  -46.2133 S.3       10 UNK        -0.2414 
     61 C61        18.4114  -33.0035  -44.8750 C.3       10 UNK         0.0169 
     62 H62        18.1842  -21.2176  -43.5237 H         1 UNK         0.0903 
     63 H63        17.6856  -22.3610  -42.2750 H         1 UNK         0.0903 
     64 H64        19.3713  -21.8504  -42.3792 H         1 UNK         0.0903 
     65 H65        17.4282  -24.4450  -43.0360 H         1 UNK         0.3096 
     66 H66        18.7274  -25.3337  -45.5152 H         1 UNK         0.1121 
     67 H67        16.8693  -27.0431  -43.8147 H         1 UNK         0.0849 
     68 H68        16.2062  -25.7688  -44.7929 H         1 UNK         0.0849 
     69 H69        14.9324  -28.2490  -45.4473 H         1 UNK         0.0865 
     70 H70        15.5445  -29.2241  -46.7568 H         1 UNK         0.0865 
     71 H71        17.2897  -30.9636  -46.3562 H         1 UNK         0.1346 
     72 H72        17.7545  -32.3462  -42.3182 H         1 UNK         0.1412 
     73 H73        15.5201  -28.7830  -43.1207 H         1 UNK         0.1426 
     74 H74        16.4271  -31.3034  -40.5447 H         1 UNK         0.0716 
     75 H75        15.2878  -30.0500  -40.9546 H         1 UNK         0.0716 
     76 H76        18.8495  -31.0219  -40.5528 H         1 UNK         0.0695 
     77 H77        19.0062  -30.2857  -38.9928 H         1 UNK         0.0695 
     78 H78        21.0165  -30.0955  -40.4366 H         1 UNK         0.0983 
     79 H79        19.2790  -28.9689  -42.4101 H         1 UNK         0.3095 
     80 H80        21.9617  -27.7442  -44.4488 H         1 UNK         0.0454 
     81 H81        20.2162  -30.2164  -44.8269 H         1 UNK         0.0851 
     82 H82        21.0640  -29.3496  -46.1078 H         1 UNK         0.0851 
     83 H83        21.9738  -30.2073  -44.8753 H         1 UNK         0.0851 
     84 H84        19.3962  -27.7986  -45.3109 H         1 UNK         0.2976 
     85 H85        19.9820  -26.8271  -41.0095 H         1 UNK         0.3116 
     86 H86        20.9684  -25.9048  -38.3471 H         1 UNK         0.0646 
     87 H87        19.4800  -24.4112  -40.5756 H         1 UNK         0.0847 
     88 H88        19.9677  -23.7365  -39.0275 H         1 UNK         0.0847 
     89 H89        18.7644  -25.0144  -39.0824 H         1 UNK         0.0847 
     90 H90        21.4565  -25.5620  -41.8796 H         1 UNK         0.3040 
     91 H91        23.5598  -23.6498  -41.7032 H         1 UNK         0.1015 
     92 H92        22.7361  -25.4977  -44.0073 H         1 UNK         0.0786 
     93 H93        23.7682  -24.0818  -44.1531 H         1 UNK         0.0786 
     94 H94        22.0866  -23.8918  -43.6852 H         1 UNK         0.0786 
     95 H95        23.6396  -27.1982  -41.7495 H         1 UNK         0.3172 
     96 H96        26.6253  -27.1359  -41.5366 H         1 UNK         0.0595 
     97 H97        24.9086  -29.0944  -43.1622 H         1 UNK         0.0839 
     98 H98        26.6157  -29.3081  -42.7959 H         1 UNK         0.0839 
     99 H99        26.0924  -27.9527  -43.7795 H         1 UNK         0.0839 
    100 H100       24.0740  -29.6174  -41.2521 H         1 UNK         0.2998 
    101 H101       23.9793  -29.9402  -38.5015 H         1 UNK         0.0822 
    102 H102       26.3623  -30.6280  -38.4248 H         1 UNK         0.0787 
    103 H103       25.3813  -32.0581  -38.2000 H         1 UNK         0.0787 
    104 H104       26.1285  -31.7525  -39.7618 H         1 UNK         0.0787 
    105 H105       24.1365  -31.6244  -41.6677 H         1 UNK         0.3055 
    106 H106       21.4305  -32.4731  -41.5853 H         1 UNK         0.1106 
    107 H107       21.9207  -34.9641  -41.6596 H         1 UNK         0.0828 
    108 H108       23.6041  -34.6440  -41.2723 H         1 UNK         0.0828 
    109 H109       22.3391  -34.2978  -40.0964 H         1 UNK         0.0828 
    110 H110       21.0565  -33.8645  -43.6035 H         1 UNK         0.2931 
    111 H111       22.4371  -32.7727  -45.9104 H         1 UNK         0.0412 
    112 H112       23.8112  -33.9147  -47.3932 H         1 UNK         0.3472 
    113 H113       24.5654  -35.4244  -46.9518 H         1 UNK         0.3472 
    114 H114       20.2300  -34.8959  -45.6736 H         1 UNK         0.0970 
    115 H115       20.8938  -34.3494  -47.1894 H         1 UNK         0.0970 
    116 H116       17.7142  -33.7657  -45.2252 H         1 UNK         0.0612 
    117 H117       18.9598  -33.4411  -44.0404 H         1 UNK         0.0612 
@<TRIPOS>BOND
     1    1    2 1    
     2    1   62 1    
     3    1   63 1    
     4    1   64 1    
     5    2    3 2    
     6    2    4 am   BACKBONE|DICT|INTERRES
     7    4    5 1    
     8    4   65 1    
     9    5    6 1    
    10    5   25 1    
    11    5   66 1    
    12    6    7 1    
    13    6   67 1    
    14    6   68 1    
    15    7    8 1    
    16    8    9 1    
    17    8   69 1    
    18    8   70 1    
    19    9   10 ar   
    20    9   14 ar   
    21   10   11 ar   
    22   10   71 1    
    23   11   12 ar   
    24   11   61 1    
    25   12   13 ar   
    26   12   72 1    
    27   13   14 ar   
    28   13   15 1    
    29   14   73 1    
    30   15   16 1    
    31   15   74 1    
    32   15   75 1    
    33   16   17 1    
    34   17   18 1    
    35   17   76 1    
    36   17   77 1    
    37   18   19 1    
    38   18   27 1    
    39   18   78 1    
    40   19   20 am   BACKBONE|DICT|INTERRES
    41   19   79 1    
    42   20   21 2    
    43   20   22 1    
    44   22   23 1    
    45   22   24 1    
    46   22   80 1    
    47   23   81 1    
    48   23   82 1    
    49   23   83 1    
    50   24   25 am   BACKBONE|DICT|INTERRES
    51   24   84 1    
    52   25   26 2    
    53   27   28 2    
    54   27   29 am   BACKBONE|DICT|INTERRES
    55   29   30 1    
    56   29   85 1    
    57   30   31 1    
    58   30   32 1    
    59   30   86 1    
    60   31   87 1    
    61   31   88 1    
    62   31   89 1    
    63   32   33 2    
    64   32   34 am   BACKBONE|DICT|INTERRES
    65   34   35 1    
    66   34   90 1    
    67   35   36 1    
    68   35   37 1    
    69   35   91 1    
    70   36   92 1    
    71   36   93 1    
    72   36   94 1    
    73   37   38 2    
    74   37   39 am   BACKBONE|DICT|INTERRES
    75   39   40 1    
    76   39   95 1    
    77   40   41 1    
    78   40   42 1    
    79   40   96 1    
    80   41   97 1    
    81   41   98 1    
    82   41   99 1    
    83   42   43 2    
    84   42   44 am   BACKBONE|DICT|INTERRES
    85   44   45 1    
    86   44  100 1    
    87   45   46 1    
    88   45   47 1    
    89   45  101 1    
    90   46  102 1    
    91   46  103 1    
    92   46  104 1    
    93   47   48 2    
    94   47   49 am   BACKBONE|DICT|INTERRES
    95   49   50 1    
    96   49  105 1    
    97   50   51 1    
    98   50   52 1    
    99   50  106 1    
   100   51  107 1    
   101   51  108 1    
   102   51  109 1    
   103   52   53 2    
   104   52   54 am   BACKBONE|DICT|INTERRES
   105   54   55 1    
   106   54  110 1    
   107   55   56 1    
   108   55   59 1    
   109   55  111 1    
   110   56   57 am   BACKBONE|DICT|INTERRES
   111   56   58 2    
   112   57  112 1    
   113   57  113 1    
   114   59   60 1    
   115   59  114 1    
   116   59  115 1    
   117   60   61 1    
   118   61  116 1    
   119   61  117 1    
@<TRIPOS>SUBSTRUCTURE
     1 UNK         1 GROUP             0       ****    0 ROOT    
