@<TRIPOS>MOLECULE
3R8
117   119    1
SMALL
USER_CHARGES


@<TRIPOS>ATOM
      1 CA         15.8528  -26.0561  -46.2682 C.3       0 UNK        -0.2013 
      2 C          17.2273  -25.7957  -46.8658 C.2       0 UNK         0.4866 
      3 O          17.5107  -24.6658  -47.2637 O.2       0 UNK        -0.5176 
      4 N          18.0743  -26.8317  -46.9526 N.am      1 UNK        -0.4884 
      5 CA         19.4150  -26.7639  -47.5471 C.3       1 UNK         0.0853 
      6 C6         19.9799  -28.1744  -47.8797 C.3       10 UNK        -0.0849 
      7 S7         20.5032  -29.1919  -46.4485 S.3       10 UNK        -0.2776 
      8 C8         19.0043  -30.1322  -46.0290 C.3       10 UNK         0.0316 
      9 C9         18.6964  -30.0144  -44.5429 C.ar      10 UNK        -0.0863 
     10 C10        19.4282  -30.7625  -43.6178 C.ar      10 UNK        -0.1009 
     11 C11        19.1347  -30.6934  -42.2534 C.ar      10 UNK        -0.0712 
     12 C12        18.1139  -29.8467  -41.8088 C.ar      10 UNK        -0.0894 
     13 C13        17.3789  -29.0841  -42.7232 C.ar      10 UNK        -0.0745 
     14 C14        17.6713  -29.1802  -44.0880 C.ar      10 UNK        -0.0972 
     15 C15        16.2331  -28.1959  -42.2525 C.3       10 UNK         0.0209 
     16 S16        16.4963  -26.4428  -42.6765 S.3       10 UNK        -0.2568 
     17 C17        17.4605  -25.8290  -41.2556 C.3       10 UNK        -0.0983 
     18 CA         18.9724  -26.1467  -41.3444 C.3       3 UNK         0.0876 
     19 N          19.5657  -25.7269  -42.6183 N.am      3 UNK        -0.4424 
     20 C          20.7959  -26.0642  -43.0228 C.2       2 UNK         0.4918 
     21 O          21.5385  -26.8192  -42.3906 O.2       2 UNK        -0.4875 
     22 CA         21.2343  -25.5052  -44.3820 C.3       2 UNK         0.0481 
     23 CB         22.7268  -25.7878  -44.6628 C.3       2 UNK        -0.1831 
     24 N          20.3744  -26.1147  -45.3925 N.am      2 UNK        -0.4498 
     25 C          20.3899  -25.9023  -46.7145 C.2       1 UNK         0.5027 
     26 O          21.1074  -25.0748  -47.2789 O.2       1 UNK        -0.4969 
     27 C          19.7300  -25.5233  -40.1535 C.2       3 UNK         0.5005 
     28 O          20.2900  -24.4317  -40.2883 O.2       3 UNK        -0.5279 
     29 N          19.7649  -26.2412  -39.0215 N.am      4 UNK        -0.4463 
     30 CA         20.5099  -25.9567  -37.7821 C.3       4 UNK         0.0283 
     31 CB         20.1198  -24.5997  -37.1631 C.3       4 UNK        -0.1875 
     32 C          22.0390  -26.0913  -37.9247 C.2       4 UNK         0.4949 
     33 O          22.6743  -26.6447  -37.0274 O.2       4 UNK        -0.5039 
     34 N          22.5992  -25.6295  -39.0510 N.am      5 UNK        -0.4663 
     35 CA         23.9863  -25.8661  -39.4631 C.3       5 UNK         0.0242 
     36 CB         24.3236  -24.9678  -40.6632 C.3       5 UNK        -0.1982 
     37 C          24.2464  -27.3473  -39.7940 C.2       5 UNK         0.5017 
     38 O          25.3092  -27.8615  -39.4462 O.2       5 UNK        -0.5012 
     39 N          23.2470  -27.9945  -40.4137 N.am      6 UNK        -0.4439 
     40 CA         23.1431  -29.4175  -40.7367 C.3       6 UNK         0.0297 
     41 CB         23.1199  -30.2781  -39.4561 C.3       6 UNK        -0.2006 
     42 C          24.2094  -29.8713  -41.7460 C.2       6 UNK         0.4892 
     43 O          25.1957  -30.5077  -41.3711 O.2       6 UNK        -0.5089 
     44 N          23.9713  -29.5482  -43.0253 N.am      7 UNK        -0.4243 
     45 CA         24.7580  -30.0508  -44.1607 C.3       7 UNK         0.0196 
     46 CB         24.4755  -29.1921  -45.4036 C.3       7 UNK        -0.2007 
     47 C          24.5114  -31.5441  -44.4631 C.2       7 UNK         0.5020 
     48 O          25.3298  -32.1631  -45.1438 O.2       7 UNK        -0.5147 
     49 N          23.4061  -32.0943  -43.9481 N.am      8 UNK        -0.4734 
     50 CA         23.0724  -33.5174  -43.9535 C.3       8 UNK         0.0238 
     51 CB         22.0232  -33.8036  -45.0486 C.3       8 UNK        -0.1912 
     52 C          22.6344  -33.9091  -42.5306 C.2       8 UNK         0.5038 
     53 O          23.2105  -33.3982  -41.5688 O.2       8 UNK        -0.5046 
     54 N          21.6303  -34.7873  -42.4084 N.am      9 UNK        -0.4200 
     55 CA         21.0585  -35.2760  -41.1370 C.3       9 UNK         0.0839 
     56 C          22.0045  -36.2046  -40.3141 C.2       9 UNK         0.5513 
     57 N          23.0567  -36.7631  -40.9005 N.am      9 UNK        -0.7519 
     58 O          21.7665  -36.4529  -39.1346 O.2       9 UNK        -0.4960 
     59 C59        20.4204  -34.1510  -40.2649 C.3       10 UNK        -0.0876 
     60 S60        19.1343  -33.2099  -41.1539 S.3       10 UNK        -0.2414 
     61 C61        19.9017  -31.5654  -41.2737 C.3       10 UNK         0.0169 
     62 H62        15.0797  -25.8471  -47.0069 H         1 UNK         0.0903 
     63 H63        15.7322  -27.0866  -45.9379 H         1 UNK         0.0903 
     64 H64        15.6867  -25.4026  -45.4124 H         1 UNK         0.0903 
     65 H65        17.7865  -27.7400  -46.6251 H         1 UNK         0.3096 
     66 H66        19.3002  -26.2443  -48.5018 H         1 UNK         0.1121 
     67 H67        19.2616  -28.7354  -48.4796 H         1 UNK         0.0849 
     68 H68        20.8544  -28.0617  -48.5231 H         1 UNK         0.0849 
     69 H69        18.1545  -29.7983  -46.6249 H         1 UNK         0.0865 
     70 H70        19.1598  -31.1801  -46.2901 H         1 UNK         0.0865 
     71 H71        20.2164  -31.4144  -43.9643 H         1 UNK         0.1346 
     72 H72        17.8781  -29.8015  -40.7544 H         1 UNK         0.1412 
     73 H73        17.0856  -28.6091  -44.7916 H         1 UNK         0.1426 
     74 H74        16.0660  -28.2972  -41.1792 H         1 UNK         0.0716 
     75 H75        15.3148  -28.5331  -42.7351 H         1 UNK         0.0716 
     76 H76        17.0323  -26.2384  -40.3388 H         1 UNK         0.0695 
     77 H77        17.3049  -24.7495  -41.2031 H         1 UNK         0.0695 
     78 H78        19.0974  -27.2291  -41.2822 H         1 UNK         0.0983 
     79 H79        19.0106  -25.1026  -43.1842 H         1 UNK         0.3095 
     80 H80        21.0685  -24.4265  -44.3782 H         1 UNK         0.0454 
     81 H81        22.9129  -26.8569  -44.7496 H         1 UNK         0.0851 
     82 H82        23.3577  -25.4089  -43.8589 H         1 UNK         0.0851 
     83 H83        23.0699  -25.3118  -45.5803 H         1 UNK         0.0851 
     84 H84        19.7464  -26.8280  -45.0457 H         1 UNK         0.2976 
     85 H85        19.2821  -27.1296  -39.0183 H         1 UNK         0.3116 
     86 H86        20.1985  -26.7300  -37.0778 H         1 UNK         0.0646 
     87 H87        20.4447  -23.7579  -37.7748 H         1 UNK         0.0847 
     88 H88        20.5799  -24.4773  -36.1818 H         1 UNK         0.0847 
     89 H89        19.0414  -24.5201  -37.0272 H         1 UNK         0.0847 
     90 H90        21.9895  -25.1474  -39.7061 H         1 UNK         0.3040 
     91 H91        24.6399  -25.5926  -38.6317 H         1 UNK         0.1015 
     92 H92        23.6647  -25.1629  -41.5090 H         1 UNK         0.0786 
     93 H93        25.3481  -25.1326  -40.9999 H         1 UNK         0.0786 
     94 H94        24.2327  -23.9125  -40.4052 H         1 UNK         0.0786 
     95 H95        22.4847  -27.4266  -40.7718 H         1 UNK         0.3172 
     96 H96        22.1734  -29.5410  -41.2213 H         1 UNK         0.0595 
     97 H97        22.9735  -31.3311  -39.7000 H         1 UNK         0.0839 
     98 H98        22.3072  -29.9812  -38.7934 H         1 UNK         0.0839 
     99 H99        24.0527  -30.2043  -38.8963 H         1 UNK         0.0839 
    100 H100       23.1602  -28.9847  -43.2419 H         1 UNK         0.2998 
    101 H101       25.8171  -29.9474  -43.9145 H         1 UNK         0.0822 
    102 H102       25.0178  -29.5690  -46.2719 H         1 UNK         0.0787 
    103 H103       23.4160  -29.1871  -45.6602 H         1 UNK         0.0787 
    104 H104       24.7971  -28.1621  -45.2519 H         1 UNK         0.0787 
    105 H105       22.8370  -31.5180  -43.3463 H         1 UNK         0.3055 
    106 H106       23.9681  -34.1043  -44.1695 H         1 UNK         0.1106 
    107 H107       21.8670  -34.8751  -45.1779 H         1 UNK         0.0828 
    108 H108       21.0575  -33.3518  -44.8236 H         1 UNK         0.0828 
    109 H109       22.3501  -33.4164  -46.0140 H         1 UNK         0.0828 
    110 H110       21.2112  -35.1640  -43.2458 H         1 UNK         0.2931 
    111 H111       20.2427  -35.9343  -41.4380 H         1 UNK         0.0412 
    112 H112       23.2583  -36.5836  -41.8708 H         1 UNK         0.3472 
    113 H113       23.6564  -37.3704  -40.3638 H         1 UNK         0.3472 
    114 H114       19.9415  -34.5824  -39.3842 H         1 UNK         0.0970 
    115 H115       21.1855  -33.4749  -39.8807 H         1 UNK         0.0970 
    116 H116       20.9362  -31.6650  -41.6020 H         1 UNK         0.0612 
    117 H117       19.9308  -31.1028  -40.2859 H         1 UNK         0.0612 
@<TRIPOS>BOND
     1    1    2 1    
     2    1   62 1    
     3    1   63 1    
     4    1   64 1    
     5    2    3 2    
     6    2    4 am   BACKBONE|DICT|INTERRES
     7    4    5 1    
     8    4   65 1    
     9    5    6 1    
    10    5   25 1    
    11    5   66 1    
    12    6    7 1    
    13    6   67 1    
    14    6   68 1    
    15    7    8 1    
    16    8    9 1    
    17    8   69 1    
    18    8   70 1    
    19    9   10 ar   
    20    9   14 ar   
    21   10   11 ar   
    22   10   71 1    
    23   11   12 ar   
    24   11   61 1    
    25   12   13 ar   
    26   12   72 1    
    27   13   14 ar   
    28   13   15 1    
    29   14   73 1    
    30   15   16 1    
    31   15   74 1    
    32   15   75 1    
    33   16   17 1    
    34   17   18 1    
    35   17   76 1    
    36   17   77 1    
    37   18   19 1    
    38   18   27 1    
    39   18   78 1    
    40   19   20 am   BACKBONE|DICT|INTERRES
    41   19   79 1    
    42   20   21 2    
    43   20   22 1    
    44   22   23 1    
    45   22   24 1    
    46   22   80 1    
    47   23   81 1    
    48   23   82 1    
    49   23   83 1    
    50   24   25 am   BACKBONE|DICT|INTERRES
    51   24   84 1    
    52   25   26 2    
    53   27   28 2    
    54   27   29 am   BACKBONE|DICT|INTERRES
    55   29   30 1    
    56   29   85 1    
    57   30   31 1    
    58   30   32 1    
    59   30   86 1    
    60   31   87 1    
    61   31   88 1    
    62   31   89 1    
    63   32   33 2    
    64   32   34 am   BACKBONE|DICT|INTERRES
    65   34   35 1    
    66   34   90 1    
    67   35   36 1    
    68   35   37 1    
    69   35   91 1    
    70   36   92 1    
    71   36   93 1    
    72   36   94 1    
    73   37   38 2    
    74   37   39 am   BACKBONE|DICT|INTERRES
    75   39   40 1    
    76   39   95 1    
    77   40   41 1    
    78   40   42 1    
    79   40   96 1    
    80   41   97 1    
    81   41   98 1    
    82   41   99 1    
    83   42   43 2    
    84   42   44 am   BACKBONE|DICT|INTERRES
    85   44   45 1    
    86   44  100 1    
    87   45   46 1    
    88   45   47 1    
    89   45  101 1    
    90   46  102 1    
    91   46  103 1    
    92   46  104 1    
    93   47   48 2    
    94   47   49 am   BACKBONE|DICT|INTERRES
    95   49   50 1    
    96   49  105 1    
    97   50   51 1    
    98   50   52 1    
    99   50  106 1    
   100   51  107 1    
   101   51  108 1    
   102   51  109 1    
   103   52   53 2    
   104   52   54 am   BACKBONE|DICT|INTERRES
   105   54   55 1    
   106   54  110 1    
   107   55   56 1    
   108   55   59 1    
   109   55  111 1    
   110   56   57 am   BACKBONE|DICT|INTERRES
   111   56   58 2    
   112   57  112 1    
   113   57  113 1    
   114   59   60 1    
   115   59  114 1    
   116   59  115 1    
   117   60   61 1    
   118   61  116 1    
   119   61  117 1    
@<TRIPOS>SUBSTRUCTURE
     1 UNK         1 GROUP             0       ****    0 ROOT    
