@<TRIPOS>MOLECULE
3R8
117   119    1
SMALL
USER_CHARGES


@<TRIPOS>ATOM
      1 CA         14.0651  -25.7944  -40.1827 C.3       0 UNK        -0.2013 
      2 C          15.1587  -25.6670  -41.2327 C.2       0 UNK         0.4866 
      3 O          15.9942  -24.7669  -41.1416 O.2       0 UNK        -0.5176 
      4 N          15.1548  -26.5545  -42.2342 N.am      1 UNK        -0.4884 
      5 CA         16.1803  -26.6474  -43.2770 C.3       1 UNK         0.0853 
      6 C6         15.6562  -27.4253  -44.5131 C.3       10 UNK        -0.0849 
      7 S7         15.0853  -29.1303  -44.1511 S.3       10 UNK        -0.2776 
      8 C8         15.8334  -30.1149  -45.4916 C.3       10 UNK         0.0316 
      9 C9         17.3514  -30.0044  -45.5269 C.ar      10 UNK        -0.0863 
     10 C10        18.1370  -30.6565  -44.5716 C.ar      10 UNK        -0.1009 
     11 C11        19.5355  -30.5483  -44.5999 C.ar      10 UNK        -0.0712 
     12 C12        20.1294  -29.7754  -45.6031 C.ar      10 UNK        -0.0894 
     13 C13        19.3572  -29.1113  -46.5598 C.ar      10 UNK        -0.0745 
     14 C14        17.9687  -29.2482  -46.5249 C.ar      10 UNK        -0.0972 
     15 C15        20.0029  -28.2491  -47.6379 C.3       10 UNK         0.0209 
     16 S16        19.4599  -26.5131  -47.4952 S.3       10 UNK        -0.2568 
     17 C17        20.9729  -25.5695  -47.0786 C.3       10 UNK        -0.0983 
     18 CA         21.7554  -25.9795  -45.7933 C.3       3 UNK         0.0876 
     19 N          20.8673  -26.5227  -44.7562 N.am      3 UNK        -0.4424 
     20 C          21.0770  -26.4654  -43.4361 C.2       2 UNK         0.4918 
     21 O          22.0918  -25.9836  -42.9337 O.2       2 UNK        -0.4875 
     22 CA         19.9589  -27.0262  -42.5408 C.3       2 UNK         0.0481 
     23 CB         20.1038  -26.5905  -41.0661 C.3       2 UNK        -0.1831 
     24 N          18.6369  -26.6545  -43.0583 N.am      2 UNK        -0.4498 
     25 C          17.4855  -27.2376  -42.6953 C.2       1 UNK         0.5027 
     26 O          17.4206  -28.1893  -41.9143 O.2       1 UNK        -0.4969 
     27 C          22.9900  -26.8575  -46.1122 C.2       3 UNK         0.5005 
     28 O          23.7865  -26.4801  -46.9737 O.2       3 UNK        -0.5279 
     29 N          23.1370  -28.0070  -45.4460 N.am      4 UNK        -0.4463 
     30 CA         24.1821  -29.0051  -45.6622 C.3       4 UNK         0.0283 
     31 CB         23.9139  -29.7958  -46.9625 C.3       4 UNK        -0.1875 
     32 C          24.2421  -29.9191  -44.4305 C.2       4 UNK         0.4949 
     33 O          23.5706  -29.6395  -43.4336 O.2       4 UNK        -0.5039 
     34 N          25.0538  -30.9841  -44.5146 N.am      5 UNK        -0.4663 
     35 CA         25.2659  -32.0176  -43.4874 C.3       5 UNK         0.0242 
     36 CB         23.9887  -32.8655  -43.3009 C.3       5 UNK        -0.1982 
     37 C          25.7851  -31.4386  -42.1574 C.2       5 UNK         0.5017 
     38 O          25.3257  -31.8404  -41.0881 O.2       5 UNK        -0.5012 
     39 N          26.6870  -30.4490  -42.2576 N.am      6 UNK        -0.4439 
     40 CA         27.2475  -29.6454  -41.1603 C.3       6 UNK         0.0297 
     41 CB         28.1628  -30.5110  -40.2680 C.3       6 UNK        -0.2006 
     42 C          26.1846  -28.8783  -40.3408 C.2       6 UNK         0.4892 
     43 O          26.4408  -28.5409  -39.1840 O.2       6 UNK        -0.5089 
     44 N          25.0140  -28.6306  -40.9518 N.am      7 UNK        -0.4243 
     45 CA         23.8068  -28.0392  -40.3682 C.3       7 UNK         0.0196 
     46 CB         24.0466  -26.5679  -39.9651 C.3       7 UNK        -0.2007 
     47 C          23.1969  -28.8899  -39.2341 C.2       7 UNK         0.5020 
     48 O          22.5695  -28.3376  -38.3300 O.2       7 UNK        -0.5147 
     49 N          23.3806  -30.2186  -39.2939 N.am      8 UNK        -0.4734 
     50 CA         22.8765  -31.1679  -38.2943 C.3       8 UNK         0.0238 
     51 CB         23.6231  -32.5034  -38.4408 C.3       8 UNK        -0.1912 
     52 C          21.3556  -31.3979  -38.3583 C.2       8 UNK         0.5038 
     53 O          20.7824  -31.8527  -37.3669 O.2       8 UNK        -0.5046 
     54 N          20.7365  -31.1063  -39.5101 N.am      9 UNK        -0.4200 
     55 CA         19.2862  -31.2002  -39.7350 C.3       9 UNK         0.0839 
     56 C          18.4704  -30.2198  -38.8458 C.2       9 UNK         0.5513 
     57 N          17.2634  -30.6038  -38.4519 N.am      9 UNK        -0.7519 
     58 O          18.9034  -29.1117  -38.5384 O.2       9 UNK        -0.4960 
     59 C59        18.9234  -31.0047  -41.2277 C.3       10 UNK        -0.0876 
     60 S60        19.6589  -32.2719  -42.3156 S.3       10 UNK        -0.2414 
     61 C61        20.4606  -31.2391  -43.5915 C.3       10 UNK         0.0169 
     62 H62        14.5067  -25.9633  -39.2009 H         1 UNK         0.0903 
     63 H63        13.4772  -24.8780  -40.1394 H         1 UNK         0.0903 
     64 H64        13.3886  -26.6217  -40.3968 H         1 UNK         0.0903 
     65 H65        14.4753  -27.3026  -42.2412 H         1 UNK         0.3096 
     66 H66        16.3980  -25.6286  -43.6065 H         1 UNK         0.1121 
     67 H67        16.4153  -27.4292  -45.2940 H         1 UNK         0.0849 
     68 H68        14.8124  -26.8848  -44.9447 H         1 UNK         0.0849 
     69 H69        15.5523  -31.1607  -45.3596 H         1 UNK         0.0865 
     70 H70        15.4002  -29.8045  -46.4438 H         1 UNK         0.0865 
     71 H71        17.6415  -31.2409  -43.8109 H         1 UNK         0.1346 
     72 H72        21.2034  -29.7016  -45.6385 H         1 UNK         0.1412 
     73 H73        17.3667  -28.7430  -47.2684 H         1 UNK         0.1426 
     74 H74        19.7017  -28.6274  -48.6158 H         1 UNK         0.0716 
     75 H75        21.0895  -28.3211  -47.6116 H         1 UNK         0.0716 
     76 H76        20.6425  -24.5374  -46.9521 H         1 UNK         0.0695 
     77 H77        21.6112  -25.5406  -47.9637 H         1 UNK         0.0695 
     78 H78        22.1880  -25.0604  -45.3906 H         1 UNK         0.0983 
     79 H79        20.0247  -26.9612  -45.1029 H         1 UNK         0.3095 
     80 H80        20.0540  -28.1115  -42.5910 H         1 UNK         0.0454 
     81 H81        21.0662  -26.8904  -40.6561 H         1 UNK         0.0851 
     82 H82        19.3434  -27.0450  -40.4314 H         1 UNK         0.0851 
     83 H83        20.0246  -25.5084  -40.9589 H         1 UNK         0.0851 
     84 H84        18.6159  -25.8606  -43.6846 H         1 UNK         0.2976 
     85 H85        22.5349  -28.2049  -44.6567 H         1 UNK         0.3116 
     86 H86        25.1430  -28.4926  -45.7400 H         1 UNK         0.0646 
     87 H87        23.0226  -30.4188  -46.8862 H         1 UNK         0.0847 
     88 H88        23.7826  -29.1331  -47.8178 H         1 UNK         0.0847 
     89 H89        24.7479  -30.4538  -47.2070 H         1 UNK         0.0847 
     90 H90        25.5752  -31.1142  -45.3712 H         1 UNK         0.3040 
     91 H91        26.0510  -32.6779  -43.8597 H         1 UNK         0.1015 
     92 H92        24.1827  -33.7271  -42.6608 H         1 UNK         0.0786 
     93 H93        23.6189  -33.2461  -44.2529 H         1 UNK         0.0786 
     94 H94        23.1881  -32.2919  -42.8330 H         1 UNK         0.0786 
     95 H95        26.9804  -30.1830  -43.1878 H         1 UNK         0.3172 
     96 H96        27.8702  -28.8828  -41.6303 H         1 UNK         0.0595 
     97 H97        27.5948  -31.2535  -39.7064 H         1 UNK         0.0839 
     98 H98        28.6989  -29.8974  -39.5428 H         1 UNK         0.0839 
     99 H99        28.9120  -31.0377  -40.8588 H         1 UNK         0.0839 
    100 H100       24.8892  -28.9841  -41.8937 H         1 UNK         0.2998 
    101 H101       23.0677  -28.0420  -41.1700 H         1 UNK         0.0822 
    102 H102       23.1184  -26.0875  -39.6548 H         1 UNK         0.0787 
    103 H103       24.4408  -25.9900  -40.8010 H         1 UNK         0.0787 
    104 H104       24.7470  -26.4820  -39.1342 H         1 UNK         0.0787 
    105 H105       23.9475  -30.6071  -40.0411 H         1 UNK         0.3055 
    106 H106       23.0968  -30.7637  -37.3035 H         1 UNK         0.1106 
    107 H107       24.7001  -32.3702  -38.3354 H         1 UNK         0.0828 
    108 H108       23.3086  -33.2146  -37.6758 H         1 UNK         0.0828 
    109 H109       23.4364  -32.9647  -39.4115 H         1 UNK         0.0828 
    110 H110       21.2881  -30.7383  -40.2690 H         1 UNK         0.2931 
    111 H111       18.9940  -32.2142  -39.4534 H         1 UNK         0.0412 
    112 H112       16.8944  -31.5077  -38.7038 H         1 UNK         0.3472 
    113 H113       16.7118  -29.9776  -37.8863 H         1 UNK         0.3472 
    114 H114       17.8410  -31.0401  -41.3664 H         1 UNK         0.0970 
    115 H115       19.2320  -30.0133  -41.5577 H         1 UNK         0.0970 
    116 H116       21.0732  -30.4871  -43.0934 H         1 UNK         0.0612 
    117 H117       21.1489  -31.8773  -44.1468 H         1 UNK         0.0612 
@<TRIPOS>BOND
     1    1    2 1    
     2    1   62 1    
     3    1   63 1    
     4    1   64 1    
     5    2    3 2    
     6    2    4 am   BACKBONE|DICT|INTERRES
     7    4    5 1    
     8    4   65 1    
     9    5    6 1    
    10    5   25 1    
    11    5   66 1    
    12    6    7 1    
    13    6   67 1    
    14    6   68 1    
    15    7    8 1    
    16    8    9 1    
    17    8   69 1    
    18    8   70 1    
    19    9   10 ar   
    20    9   14 ar   
    21   10   11 ar   
    22   10   71 1    
    23   11   12 ar   
    24   11   61 1    
    25   12   13 ar   
    26   12   72 1    
    27   13   14 ar   
    28   13   15 1    
    29   14   73 1    
    30   15   16 1    
    31   15   74 1    
    32   15   75 1    
    33   16   17 1    
    34   17   18 1    
    35   17   76 1    
    36   17   77 1    
    37   18   19 1    
    38   18   27 1    
    39   18   78 1    
    40   19   20 am   BACKBONE|DICT|INTERRES
    41   19   79 1    
    42   20   21 2    
    43   20   22 1    
    44   22   23 1    
    45   22   24 1    
    46   22   80 1    
    47   23   81 1    
    48   23   82 1    
    49   23   83 1    
    50   24   25 am   BACKBONE|DICT|INTERRES
    51   24   84 1    
    52   25   26 2    
    53   27   28 2    
    54   27   29 am   BACKBONE|DICT|INTERRES
    55   29   30 1    
    56   29   85 1    
    57   30   31 1    
    58   30   32 1    
    59   30   86 1    
    60   31   87 1    
    61   31   88 1    
    62   31   89 1    
    63   32   33 2    
    64   32   34 am   BACKBONE|DICT|INTERRES
    65   34   35 1    
    66   34   90 1    
    67   35   36 1    
    68   35   37 1    
    69   35   91 1    
    70   36   92 1    
    71   36   93 1    
    72   36   94 1    
    73   37   38 2    
    74   37   39 am   BACKBONE|DICT|INTERRES
    75   39   40 1    
    76   39   95 1    
    77   40   41 1    
    78   40   42 1    
    79   40   96 1    
    80   41   97 1    
    81   41   98 1    
    82   41   99 1    
    83   42   43 2    
    84   42   44 am   BACKBONE|DICT|INTERRES
    85   44   45 1    
    86   44  100 1    
    87   45   46 1    
    88   45   47 1    
    89   45  101 1    
    90   46  102 1    
    91   46  103 1    
    92   46  104 1    
    93   47   48 2    
    94   47   49 am   BACKBONE|DICT|INTERRES
    95   49   50 1    
    96   49  105 1    
    97   50   51 1    
    98   50   52 1    
    99   50  106 1    
   100   51  107 1    
   101   51  108 1    
   102   51  109 1    
   103   52   53 2    
   104   52   54 am   BACKBONE|DICT|INTERRES
   105   54   55 1    
   106   54  110 1    
   107   55   56 1    
   108   55   59 1    
   109   55  111 1    
   110   56   57 am   BACKBONE|DICT|INTERRES
   111   56   58 2    
   112   57  112 1    
   113   57  113 1    
   114   59   60 1    
   115   59  114 1    
   116   59  115 1    
   117   60   61 1    
   118   61  116 1    
   119   61  117 1    
@<TRIPOS>SUBSTRUCTURE
     1 UNK         1 GROUP             0       ****    0 ROOT    
