@<TRIPOS>MOLECULE
3R8
117   119    1
SMALL
USER_CHARGES


@<TRIPOS>ATOM
      1 CA         17.0179  -25.5961  -49.1825 C.3       0 UNK        -0.2013 
      2 C          17.5515  -26.1641  -47.8761 C.2       0 UNK         0.4866 
      3 O          18.7636  -26.1888  -47.6703 O.2       0 UNK        -0.5176 
      4 N          16.6540  -26.6063  -46.9862 N.am      1 UNK        -0.4884 
      5 CA         16.9738  -27.2213  -45.6880 C.3       1 UNK         0.0853 
      6 C6         15.8934  -28.2522  -45.2689 C.3       10 UNK        -0.0849 
      7 S7         16.0170  -29.7544  -46.3000 S.3       10 UNK        -0.2776 
      8 C8         16.6231  -31.0109  -45.1178 C.3       10 UNK         0.0316 
      9 C9         17.8059  -30.5449  -44.2722 C.ar      10 UNK        -0.0863 
     10 C10        17.7025  -30.5387  -42.8767 C.ar      10 UNK        -0.1009 
     11 C11        18.7761  -30.1225  -42.0844 C.ar      10 UNK        -0.0712 
     12 C12        19.9559  -29.6987  -42.7008 C.ar      10 UNK        -0.0894 
     13 C13        20.0652  -29.6681  -44.0936 C.ar      10 UNK        -0.0745 
     14 C14        18.9948  -30.1170  -44.8741 C.ar      10 UNK        -0.0972 
     15 C15        21.3364  -29.1492  -44.7535 C.3       10 UNK         0.0209 
     16 S16        21.2670  -27.3524  -45.0635 S.3       10 UNK        -0.2568 
     17 C17        21.6687  -26.6872  -43.4130 C.3       10 UNK        -0.0983 
     18 CA         21.2903  -25.1961  -43.2139 C.3       3 UNK         0.0876 
     19 N          19.8736  -24.9632  -43.4838 N.am      3 UNK        -0.4424 
     20 C          19.3161  -23.7945  -43.8123 C.2       2 UNK         0.4918 
     21 O          19.9595  -22.7536  -43.9587 O.2       2 UNK        -0.4875 
     22 CA         17.7858  -23.8043  -44.0374 C.3       2 UNK         0.0481 
     23 CB         17.2637  -22.4735  -44.6099 C.3       2 UNK        -0.1831 
     24 N          17.3598  -24.8987  -44.9182 N.am      2 UNK        -0.4498 
     25 C          17.2658  -26.1916  -44.5746 C.2       1 UNK         0.5027 
     26 O          17.4517  -26.5844  -43.4219 O.2       1 UNK        -0.4969 
     27 C          21.6143  -24.7995  -41.7624 C.2       3 UNK         0.5005 
     28 O          20.7466  -24.8947  -40.8891 O.2       3 UNK        -0.5279 
     29 N          22.8912  -24.5006  -41.4913 N.am      4 UNK        -0.4463 
     30 CA         23.4562  -24.4321  -40.1379 C.3       4 UNK         0.0283 
     31 CB         24.6688  -23.4826  -40.1452 C.3       4 UNK        -0.1875 
     32 C          23.8138  -25.8501  -39.6431 C.2       4 UNK         0.4949 
     33 O          24.9717  -26.1193  -39.3186 O.2       4 UNK        -0.5039 
     34 N          22.8213  -26.7528  -39.6774 N.am      5 UNK        -0.4663 
     35 CA         22.8668  -28.2104  -39.4764 C.3       5 UNK         0.0242 
     36 CB         23.3196  -28.5769  -38.0503 C.3       5 UNK        -0.1982 
     37 C          23.6924  -28.9658  -40.5352 C.2       5 UNK         0.5017 
     38 O          23.1980  -29.9385  -41.1039 O.2       5 UNK        -0.5012 
     39 N          24.9327  -28.5144  -40.7726 N.am      6 UNK        -0.4439 
     40 CA         25.9039  -28.9912  -41.7695 C.3       6 UNK         0.0297 
     41 CB         25.4172  -28.6313  -43.1890 C.3       6 UNK        -0.2006 
     42 C          26.2775  -30.4852  -41.6492 C.2       6 UNK         0.4892 
     43 O          26.7479  -31.0707  -42.6259 O.2       6 UNK        -0.5089 
     44 N          26.0431  -31.0748  -40.4654 N.am      7 UNK        -0.4243 
     45 CA         26.1290  -32.5071  -40.1470 C.3       7 UNK         0.0196 
     46 CB         27.5937  -32.9935  -40.1907 C.3       7 UNK        -0.2007 
     47 C          25.1802  -33.3835  -40.9969 C.2       7 UNK         0.5020 
     48 O          25.4690  -34.5626  -41.2099 O.2       7 UNK        -0.5147 
     49 N          24.0722  -32.7964  -41.4694 N.am      8 UNK        -0.4734 
     50 CA         23.0574  -33.4413  -42.2987 C.3       8 UNK         0.0238 
     51 CB         22.7752  -32.5328  -43.5142 C.3       8 UNK        -0.1912 
     52 C          21.8194  -33.7487  -41.4370 C.2       8 UNK         0.5038 
     53 O          21.9582  -34.3900  -40.3932 O.2       8 UNK        -0.5046 
     54 N          20.6398  -33.3011  -41.8865 N.am      9 UNK        -0.4200 
     55 CA         19.3301  -33.4597  -41.2307 C.3       9 UNK         0.0839 
     56 C          18.7731  -34.9153  -41.2229 C.2       9 UNK         0.5513 
     57 N          19.2958  -35.8280  -42.0333 N.am      9 UNK        -0.7519 
     58 O          17.8311  -35.2191  -40.4950 O.2       9 UNK        -0.4960 
     59 C59        19.2358  -32.7790  -39.8315 C.3       10 UNK        -0.0876 
     60 S60        19.9304  -31.0909  -39.7376 S.3       10 UNK        -0.2414 
     61 C61        18.6526  -30.0909  -40.5656 C.3       10 UNK         0.0169 
     62 H62        17.4058  -26.1681  -50.0250 H         1 UNK         0.0903 
     63 H63        15.9293  -25.6248  -49.2266 H         1 UNK         0.0903 
     64 H64        17.3351  -24.5602  -49.2995 H         1 UNK         0.0903 
     65 H65        15.6699  -26.5567  -47.2113 H         1 UNK         0.3096 
     66 H66        17.9182  -27.7584  -45.7979 H         1 UNK         0.1121 
     67 H67        14.8931  -27.8287  -45.3716 H         1 UNK         0.0849 
     68 H68        15.9836  -28.5366  -44.2193 H         1 UNK         0.0849 
     69 H69        15.7899  -31.3107  -44.4803 H         1 UNK         0.0865 
     70 H70        16.9154  -31.9037  -45.6721 H         1 UNK         0.0865 
     71 H71        16.7841  -30.8585  -42.4038 H         1 UNK         0.1346 
     72 H72        20.7876  -29.3851  -42.0865 H         1 UNK         0.1412 
     73 H73        19.0746  -30.1069  -45.9528 H         1 UNK         0.1426 
     74 H74        21.4945  -29.6631  -45.7027 H         1 UNK         0.0716 
     75 H75        22.2064  -29.3763  -44.1366 H         1 UNK         0.0716 
     76 H76        22.7371  -26.8391  -43.2484 H         1 UNK         0.0695 
     77 H77        21.1592  -27.2905  -42.6638 H         1 UNK         0.0695 
     78 H78        21.8850  -24.5808  -43.8927 H         1 UNK         0.0983 
     79 H79        19.2551  -25.7541  -43.3414 H         1 UNK         0.3095 
     80 H80        17.3219  -23.9461  -43.0592 H         1 UNK         0.0454 
     81 H81        17.7000  -22.2547  -45.5853 H         1 UNK         0.0851 
     82 H82        17.5072  -21.6405  -43.9492 H         1 UNK         0.0851 
     83 H83        16.1795  -22.4869  -44.7217 H         1 UNK         0.0851 
     84 H84        17.2388  -24.6714  -45.8946 H         1 UNK         0.2976 
     85 H85        23.5568  -24.4779  -42.2517 H         1 UNK         0.3116 
     86 H86        22.7156  -24.0201  -39.4489 H         1 UNK         0.0646 
     87 H87        25.4610  -23.8397  -40.8044 H         1 UNK         0.0847 
     88 H88        25.0953  -23.3874  -39.1457 H         1 UNK         0.0847 
     89 H89        24.3866  -22.4814  -40.4711 H         1 UNK         0.0847 
     90 H90        21.9178  -26.3927  -39.9680 H         1 UNK         0.3040 
     91 H91        21.8373  -28.5557  -39.5887 H         1 UNK         0.1015 
     92 H92        24.3479  -28.2736  -37.8517 H         1 UNK         0.0786 
     93 H93        23.2621  -29.6546  -37.8908 H         1 UNK         0.0786 
     94 H94        22.6824  -28.1061  -37.3017 H         1 UNK         0.0786 
     95 H95        25.2175  -27.7004  -40.2291 H         1 UNK         0.3172 
     96 H96        26.8240  -28.4356  -41.5833 H         1 UNK         0.0595 
     97 H97        24.5289  -29.2000  -43.4642 H         1 UNK         0.0839 
     98 H98        26.1833  -28.8454  -43.9353 H         1 UNK         0.0839 
     99 H99        25.1782  -27.5713  -43.2712 H         1 UNK         0.0839 
    100 H100       25.6611  -30.4899  -39.7358 H         1 UNK         0.2998 
    101 H101       25.7810  -32.6085  -39.1180 H         1 UNK         0.0822 
    102 H102       28.2395  -32.3647  -39.5779 H         1 UNK         0.0787 
    103 H103       27.6800  -34.0117  -39.8093 H         1 UNK         0.0787 
    104 H104       27.9904  -32.9936  -41.2064 H         1 UNK         0.0787 
    105 H105       23.8884  -31.8263  -41.2286 H         1 UNK         0.3055 
    106 H106       23.4248  -34.3990  -42.6737 H         1 UNK         0.1106 
    107 H107       22.3652  -31.5698  -43.2099 H         1 UNK         0.0828 
    108 H108       22.0751  -32.9963  -44.2105 H         1 UNK         0.0828 
    109 H109       23.6906  -32.3342  -44.0724 H         1 UNK         0.0828 
    110 H110       20.6254  -32.7749  -42.7474 H         1 UNK         0.2931 
    111 H111       18.6374  -32.9305  -41.8822 H         1 UNK         0.0412 
    112 H112       20.0598  -35.5915  -42.6455 H         1 UNK         0.3472 
    113 H113       18.9223  -36.7644  -42.0292 H         1 UNK         0.3472 
    114 H114       19.7597  -33.3851  -39.0906 H         1 UNK         0.0970 
    115 H115       18.1971  -32.7404  -39.4986 H         1 UNK         0.0970 
    116 H116       17.6646  -30.4200  -40.2405 H         1 UNK         0.0612 
    117 H117       18.7558  -29.0567  -40.2346 H         1 UNK         0.0612 
@<TRIPOS>BOND
     1    1    2 1    
     2    1   62 1    
     3    1   63 1    
     4    1   64 1    
     5    2    3 2    
     6    2    4 am   BACKBONE|DICT|INTERRES
     7    4    5 1    
     8    4   65 1    
     9    5    6 1    
    10    5   25 1    
    11    5   66 1    
    12    6    7 1    
    13    6   67 1    
    14    6   68 1    
    15    7    8 1    
    16    8    9 1    
    17    8   69 1    
    18    8   70 1    
    19    9   10 ar   
    20    9   14 ar   
    21   10   11 ar   
    22   10   71 1    
    23   11   12 ar   
    24   11   61 1    
    25   12   13 ar   
    26   12   72 1    
    27   13   14 ar   
    28   13   15 1    
    29   14   73 1    
    30   15   16 1    
    31   15   74 1    
    32   15   75 1    
    33   16   17 1    
    34   17   18 1    
    35   17   76 1    
    36   17   77 1    
    37   18   19 1    
    38   18   27 1    
    39   18   78 1    
    40   19   20 am   BACKBONE|DICT|INTERRES
    41   19   79 1    
    42   20   21 2    
    43   20   22 1    
    44   22   23 1    
    45   22   24 1    
    46   22   80 1    
    47   23   81 1    
    48   23   82 1    
    49   23   83 1    
    50   24   25 am   BACKBONE|DICT|INTERRES
    51   24   84 1    
    52   25   26 2    
    53   27   28 2    
    54   27   29 am   BACKBONE|DICT|INTERRES
    55   29   30 1    
    56   29   85 1    
    57   30   31 1    
    58   30   32 1    
    59   30   86 1    
    60   31   87 1    
    61   31   88 1    
    62   31   89 1    
    63   32   33 2    
    64   32   34 am   BACKBONE|DICT|INTERRES
    65   34   35 1    
    66   34   90 1    
    67   35   36 1    
    68   35   37 1    
    69   35   91 1    
    70   36   92 1    
    71   36   93 1    
    72   36   94 1    
    73   37   38 2    
    74   37   39 am   BACKBONE|DICT|INTERRES
    75   39   40 1    
    76   39   95 1    
    77   40   41 1    
    78   40   42 1    
    79   40   96 1    
    80   41   97 1    
    81   41   98 1    
    82   41   99 1    
    83   42   43 2    
    84   42   44 am   BACKBONE|DICT|INTERRES
    85   44   45 1    
    86   44  100 1    
    87   45   46 1    
    88   45   47 1    
    89   45  101 1    
    90   46  102 1    
    91   46  103 1    
    92   46  104 1    
    93   47   48 2    
    94   47   49 am   BACKBONE|DICT|INTERRES
    95   49   50 1    
    96   49  105 1    
    97   50   51 1    
    98   50   52 1    
    99   50  106 1    
   100   51  107 1    
   101   51  108 1    
   102   51  109 1    
   103   52   53 2    
   104   52   54 am   BACKBONE|DICT|INTERRES
   105   54   55 1    
   106   54  110 1    
   107   55   56 1    
   108   55   59 1    
   109   55  111 1    
   110   56   57 am   BACKBONE|DICT|INTERRES
   111   56   58 2    
   112   57  112 1    
   113   57  113 1    
   114   59   60 1    
   115   59  114 1    
   116   59  115 1    
   117   60   61 1    
   118   61  116 1    
   119   61  117 1    
@<TRIPOS>SUBSTRUCTURE
     1 UNK         1 GROUP             0       ****    0 ROOT    
