@<TRIPOS>MOLECULE
3R8
117   119    1
SMALL
USER_CHARGES


@<TRIPOS>ATOM
      1 CA         21.4521  -23.6894  -39.9379 C.3       0 UNK        -0.2013 
      2 C          20.4056  -24.0343  -40.9855 C.2       0 UNK         0.4866 
      3 O          19.5613  -23.2010  -41.3173 O.2       0 UNK        -0.5176 
      4 N          20.4580  -25.2631  -41.5076 N.am      1 UNK        -0.4884 
      5 CA         19.6028  -25.7546  -42.5894 C.3       1 UNK         0.0853 
      6 C6         19.6769  -27.2931  -42.7040 C.3       10 UNK        -0.0849 
      7 S7         19.0161  -28.1721  -41.2496 S.3       10 UNK        -0.2776 
      8 C8         17.4569  -28.8640  -41.8947 C.3       10 UNK         0.0316 
      9 C9         17.6812  -29.9079  -42.9837 C.ar      10 UNK        -0.0863 
     10 C10        18.2149  -31.1579  -42.6619 C.ar      10 UNK        -0.1009 
     11 C11        18.3975  -32.1311  -43.6477 C.ar      10 UNK        -0.0712 
     12 C12        18.0458  -31.8431  -44.9697 C.ar      10 UNK        -0.0894 
     13 C13        17.5051  -30.5988  -45.3125 C.ar      10 UNK        -0.0745 
     14 C14        17.3194  -29.6392  -44.3075 C.ar      10 UNK        -0.0972 
     15 C15        17.0630  -30.3568  -46.7565 C.3       10 UNK         0.0209 
     16 S16        17.1008  -28.6093  -47.2880 S.3       10 UNK        -0.2568 
     17 C17        18.6215  -28.5121  -48.2990 C.3       10 UNK        -0.0983 
     18 CA         19.8664  -27.9287  -47.5732 C.3       3 UNK         0.0876 
     19 N          19.5443  -26.7386  -46.7792 N.am      3 UNK        -0.4424 
     20 C          19.8053  -25.4709  -47.1192 C.2       2 UNK         0.4918 
     21 O          20.4249  -25.1428  -48.1311 O.2       2 UNK        -0.4875 
     22 CA         19.2764  -24.3744  -46.1727 C.3       2 UNK         0.0481 
     23 CB         17.9682  -23.7854  -46.7242 C.3       2 UNK        -0.1831 
     24 N          19.0515  -24.8449  -44.8004 N.am      2 UNK        -0.4498 
     25 C          20.0318  -25.1361  -43.9340 C.2       1 UNK         0.5027 
     26 O          21.2309  -25.0078  -44.1930 O.2       1 UNK        -0.4969 
     27 C          20.6715  -28.9653  -46.7592 C.2       3 UNK         0.5005 
     28 O          20.6989  -30.1420  -47.1243 O.2       3 UNK        -0.5279 
     29 N          21.3617  -28.5062  -45.7069 N.am      4 UNK        -0.4463 
     30 CA         22.3451  -29.2705  -44.9414 C.3       4 UNK         0.0283 
     31 CB         21.6721  -30.2074  -43.9142 C.3       4 UNK        -0.1875 
     32 C          23.3659  -28.2764  -44.3703 C.2       4 UNK         0.4949 
     33 O          23.9262  -27.5018  -45.1479 O.2       4 UNK        -0.5039 
     34 N          23.5995  -28.2973  -43.0545 N.am      5 UNK        -0.4663 
     35 CA         24.5214  -27.3998  -42.3585 C.3       5 UNK         0.0242 
     36 CB         25.8792  -28.1126  -42.1828 C.3       5 UNK        -0.1982 
     37 C          23.8894  -26.9515  -41.0317 C.2       5 UNK         0.5017 
     38 O          22.6631  -26.9539  -40.9075 O.2       5 UNK        -0.5012 
     39 N          24.7281  -26.5809  -40.0533 N.am      6 UNK        -0.4439 
     40 CA         24.3170  -26.2925  -38.6739 C.3       6 UNK         0.0297 
     41 CB         25.4990  -25.6862  -37.9011 C.3       6 UNK        -0.2006 
     42 C          23.7690  -27.5341  -37.9442 C.2       6 UNK         0.4892 
     43 O          22.9066  -27.3938  -37.0764 O.2       6 UNK        -0.5089 
     44 N          24.2614  -28.7189  -38.3297 N.am      7 UNK        -0.4243 
     45 CA         23.6964  -30.0129  -37.9665 C.3       7 UNK         0.0196 
     46 CB         24.8266  -31.0503  -37.8652 C.3       7 UNK        -0.2007 
     47 C          22.6867  -30.4253  -39.0450 C.2       7 UNK         0.5020 
     48 O          22.9783  -30.3010  -40.2387 O.2       7 UNK        -0.5147 
     49 N          21.5370  -30.9537  -38.6131 N.am      8 UNK        -0.4734 
     50 CA         20.4582  -31.4315  -39.4801 C.3       8 UNK         0.0238 
     51 CB         19.1313  -31.3787  -38.6985 C.3       8 UNK        -0.1912 
     52 C          20.7668  -32.8338  -40.0376 C.2       8 UNK         0.5038 
     53 O          20.0842  -33.7992  -39.6912 O.2       8 UNK        -0.5046 
     54 N          21.8127  -32.9129  -40.8689 N.am      9 UNK        -0.4200 
     55 CA         22.3387  -34.1299  -41.5154 C.3       9 UNK         0.0839 
     56 C          23.0128  -35.1441  -40.5411 C.2       9 UNK         0.5513 
     57 N          23.3267  -34.7698  -39.3064 N.am      9 UNK        -0.7519 
     58 O          23.2887  -36.2805  -40.9176 O.2       9 UNK        -0.4960 
     59 C59        21.3230  -34.8146  -42.4785 C.3       10 UNK        -0.0876 
     60 S60        20.6917  -33.6760  -43.7583 S.3       10 UNK        -0.2414 
     61 C61        18.9460  -33.5010  -43.2759 C.3       10 UNK         0.0169 
     62 H62        21.4818  -22.6147  -39.7593 H         1 UNK         0.0903 
     63 H63        21.2240  -24.1872  -38.9958 H         1 UNK         0.0903 
     64 H64        22.4427  -24.0031  -40.2665 H         1 UNK         0.0903 
     65 H65        21.1973  -25.9024  -41.2171 H         1 UNK         0.3096 
     66 H66        18.5723  -25.4612  -42.3764 H         1 UNK         0.1121 
     67 H67        20.7203  -27.5833  -42.8188 H         1 UNK         0.0849 
     68 H68        19.1656  -27.6478  -43.5992 H         1 UNK         0.0849 
     69 H69        16.9110  -29.3235  -41.0695 H         1 UNK         0.0865 
     70 H70        16.8270  -28.0501  -42.2569 H         1 UNK         0.0865 
     71 H71        18.4758  -31.3762  -41.6380 H         1 UNK         0.1346 
     72 H72        18.1817  -32.5994  -45.7308 H         1 UNK         0.1412 
     73 H73        16.8750  -28.6839  -44.5476 H         1 UNK         0.1426 
     74 H74        16.0381  -30.7160  -46.8555 H         1 UNK         0.0716 
     75 H75        17.6625  -30.9597  -47.4400 H         1 UNK         0.0716 
     76 H76        18.3814  -27.8547  -49.1360 H         1 UNK         0.0695 
     77 H77        18.8337  -29.4771  -48.7616 H         1 UNK         0.0695 
     78 H78        20.5676  -27.6398  -48.3593 H         1 UNK         0.0983 
     79 H79        18.9940  -26.9088  -45.9514 H         1 UNK         0.3095 
     80 H80        20.0214  -23.5763  -46.1437 H         1 UNK         0.0454 
     81 H81        17.6124  -22.9596  -46.1080 H         1 UNK         0.0851 
     82 H82        17.1763  -24.5339  -46.7758 H         1 UNK         0.0851 
     83 H83        18.1112  -23.3947  -47.7328 H         1 UNK         0.0851 
     84 H84        18.0889  -24.9660  -44.5173 H         1 UNK         0.2976 
     85 H85        21.3667  -27.5088  -45.5355 H         1 UNK         0.3116 
     86 H86        22.9038  -29.8980  -45.6391 H         1 UNK         0.0646 
     87 H87        20.9499  -30.8561  -44.4075 H         1 UNK         0.0847 
     88 H88        21.1386  -29.6829  -43.1260 H         1 UNK         0.0847 
     89 H89        22.4062  -30.8569  -43.4361 H         1 UNK         0.0847 
     90 H90        23.0611  -28.9104  -42.4542 H         1 UNK         0.3040 
     91 H91        24.6713  -26.4908  -42.9456 H         1 UNK         0.1015 
     92 H92        25.7979  -28.9757  -41.5204 H         1 UNK         0.0786 
     93 H93        26.6388  -27.4450  -41.7751 H         1 UNK         0.0786 
     94 H94        26.2605  -28.4686  -43.1402 H         1 UNK         0.0786 
     95 H95        25.7201  -26.5770  -40.2431 H         1 UNK         0.3172 
     96 H96        23.5160  -25.5520  -38.7062 H         1 UNK         0.0595 
     97 H97        26.3428  -26.3750  -37.8432 H         1 UNK         0.0839 
     98 H98        25.2095  -25.4406  -36.8782 H         1 UNK         0.0839 
     99 H99        25.8474  -24.7639  -38.3664 H         1 UNK         0.0839 
    100 H100       24.9267  -28.7276  -39.0881 H         1 UNK         0.2998 
    101 H101       23.1960  -29.9444  -36.9979 H         1 UNK         0.0822 
    102 H102       25.5650  -30.7588  -37.1180 H         1 UNK         0.0787 
    103 H103       24.4364  -32.0254  -37.5709 H         1 UNK         0.0787 
    104 H104       25.3457  -31.1799  -38.8161 H         1 UNK         0.0787 
    105 H105       21.3902  -31.0549  -37.6185 H         1 UNK         0.3055 
    106 H106       20.3695  -30.7558  -40.3341 H         1 UNK         0.1106 
    107 H107       19.1655  -31.9944  -37.7989 H         1 UNK         0.0828 
    108 H108       18.3000  -31.7393  -39.3052 H         1 UNK         0.0828 
    109 H109       18.8906  -30.3582  -38.3998 H         1 UNK         0.0828 
    110 H110       22.3434  -32.0629  -41.0267 H         1 UNK         0.2931 
    111 H111       23.1622  -33.7725  -42.1348 H         1 UNK         0.0412 
    112 H112       23.7726  -35.4300  -38.6887 H         1 UNK         0.3472 
    113 H113       23.1065  -33.8423  -38.9842 H         1 UNK         0.3472 
    114 H114       20.4974  -35.2583  -41.9203 H         1 UNK         0.0970 
    115 H115       21.8014  -35.6439  -43.0023 H         1 UNK         0.0970 
    116 H116       18.8341  -33.6630  -42.2035 H         1 UNK         0.0612 
    117 H117       18.3609  -34.2813  -43.7645 H         1 UNK         0.0612 
@<TRIPOS>BOND
     1    1    2 1    
     2    1   62 1    
     3    1   63 1    
     4    1   64 1    
     5    2    3 2    
     6    2    4 am   BACKBONE|DICT|INTERRES
     7    4    5 1    
     8    4   65 1    
     9    5    6 1    
    10    5   25 1    
    11    5   66 1    
    12    6    7 1    
    13    6   67 1    
    14    6   68 1    
    15    7    8 1    
    16    8    9 1    
    17    8   69 1    
    18    8   70 1    
    19    9   10 ar   
    20    9   14 ar   
    21   10   11 ar   
    22   10   71 1    
    23   11   12 ar   
    24   11   61 1    
    25   12   13 ar   
    26   12   72 1    
    27   13   14 ar   
    28   13   15 1    
    29   14   73 1    
    30   15   16 1    
    31   15   74 1    
    32   15   75 1    
    33   16   17 1    
    34   17   18 1    
    35   17   76 1    
    36   17   77 1    
    37   18   19 1    
    38   18   27 1    
    39   18   78 1    
    40   19   20 am   BACKBONE|DICT|INTERRES
    41   19   79 1    
    42   20   21 2    
    43   20   22 1    
    44   22   23 1    
    45   22   24 1    
    46   22   80 1    
    47   23   81 1    
    48   23   82 1    
    49   23   83 1    
    50   24   25 am   BACKBONE|DICT|INTERRES
    51   24   84 1    
    52   25   26 2    
    53   27   28 2    
    54   27   29 am   BACKBONE|DICT|INTERRES
    55   29   30 1    
    56   29   85 1    
    57   30   31 1    
    58   30   32 1    
    59   30   86 1    
    60   31   87 1    
    61   31   88 1    
    62   31   89 1    
    63   32   33 2    
    64   32   34 am   BACKBONE|DICT|INTERRES
    65   34   35 1    
    66   34   90 1    
    67   35   36 1    
    68   35   37 1    
    69   35   91 1    
    70   36   92 1    
    71   36   93 1    
    72   36   94 1    
    73   37   38 2    
    74   37   39 am   BACKBONE|DICT|INTERRES
    75   39   40 1    
    76   39   95 1    
    77   40   41 1    
    78   40   42 1    
    79   40   96 1    
    80   41   97 1    
    81   41   98 1    
    82   41   99 1    
    83   42   43 2    
    84   42   44 am   BACKBONE|DICT|INTERRES
    85   44   45 1    
    86   44  100 1    
    87   45   46 1    
    88   45   47 1    
    89   45  101 1    
    90   46  102 1    
    91   46  103 1    
    92   46  104 1    
    93   47   48 2    
    94   47   49 am   BACKBONE|DICT|INTERRES
    95   49   50 1    
    96   49  105 1    
    97   50   51 1    
    98   50   52 1    
    99   50  106 1    
   100   51  107 1    
   101   51  108 1    
   102   51  109 1    
   103   52   53 2    
   104   52   54 am   BACKBONE|DICT|INTERRES
   105   54   55 1    
   106   54  110 1    
   107   55   56 1    
   108   55   59 1    
   109   55  111 1    
   110   56   57 am   BACKBONE|DICT|INTERRES
   111   56   58 2    
   112   57  112 1    
   113   57  113 1    
   114   59   60 1    
   115   59  114 1    
   116   59  115 1    
   117   60   61 1    
   118   61  116 1    
   119   61  117 1    
@<TRIPOS>SUBSTRUCTURE
     1 UNK         1 GROUP             0       ****    0 ROOT    
