@<TRIPOS>MOLECULE
3R8
117   119    1
SMALL
USER_CHARGES


@<TRIPOS>ATOM
      1 CA         16.1096  -23.5553  -47.0058 C.3       0 UNK        -0.2013 
      2 C          17.2051  -24.6096  -46.9491 C.2       0 UNK         0.4866 
      3 O          18.1817  -24.5184  -47.6936 O.2       0 UNK        -0.5176 
      4 N          17.0504  -25.6106  -46.0721 N.am      1 UNK        -0.4884 
      5 CA         18.0005  -26.7170  -45.8873 C.3       1 UNK         0.0853 
      6 C6         17.3657  -27.8882  -45.1034 C.3       10 UNK        -0.0849 
      7 S7         16.0436  -28.7452  -46.0336 S.3       10 UNK        -0.2776 
      8 C8         15.2771  -29.8213  -44.7653 C.3       10 UNK         0.0316 
      9 C9         16.3063  -30.3883  -43.7977 C.ar      10 UNK        -0.0863 
     10 C10        17.1459  -31.4373  -44.1827 C.ar      10 UNK        -0.1009 
     11 C11        18.1874  -31.8492  -43.3455 C.ar      10 UNK        -0.0712 
     12 C12        18.3820  -31.2080  -42.1178 C.ar      10 UNK        -0.0894 
     13 C13        17.5379  -30.1684  -41.7148 C.ar      10 UNK        -0.0745 
     14 C14        16.4793  -29.7908  -42.5468 C.ar      10 UNK        -0.0972 
     15 C15        17.7966  -29.4366  -40.4014 C.3       10 UNK         0.0209 
     16 S16        17.6941  -27.6213  -40.5921 S.3       10 UNK        -0.2568 
     17 C17        19.1300  -27.0480  -39.6314 C.3       10 UNK        -0.0983 
     18 CA         20.3783  -26.8185  -40.5188 C.3       3 UNK         0.0876 
     19 N          20.1096  -25.8846  -41.6261 N.am      3 UNK        -0.4424 
     20 C          20.9580  -25.5509  -42.6088 C.2       2 UNK         0.4918 
     21 O          22.1244  -25.9460  -42.6716 O.2       2 UNK        -0.4875 
     22 CA         20.3994  -24.5944  -43.6795 C.3       2 UNK         0.0481 
     23 CB         21.4933  -24.0635  -44.6311 C.3       2 UNK        -0.1831 
     24 N          19.2851  -25.1871  -44.4316 N.am      2 UNK        -0.4498 
     25 C          19.3203  -26.2824  -45.2105 C.2       1 UNK         0.5027 
     26 O          20.3349  -26.9480  -45.4166 O.2       1 UNK        -0.4969 
     27 C          21.5825  -26.4318  -39.6319 C.2       3 UNK         0.5005 
     28 O          22.1368  -27.3016  -38.9611 O.2       3 UNK        -0.5279 
     29 N          21.9805  -25.1509  -39.6451 N.am      4 UNK        -0.4463 
     30 CA         23.1906  -24.6483  -38.9886 C.3       4 UNK         0.0283 
     31 CB         23.1788  -23.1113  -39.0154 C.3       4 UNK        -0.1875 
     32 C          24.4937  -25.1865  -39.6130 C.2       4 UNK         0.4949 
     33 O          25.5062  -25.2501  -38.9151 O.2       4 UNK        -0.5039 
     34 N          24.4480  -25.5580  -40.8999 N.am      5 UNK        -0.4663 
     35 CA         25.5585  -26.1557  -41.6394 C.3       5 UNK         0.0242 
     36 CB         25.7706  -25.3830  -42.9532 C.3       5 UNK        -0.1982 
     37 C          25.2829  -27.6397  -41.9145 C.2       5 UNK         0.5017 
     38 O          26.1130  -28.4829  -41.5747 O.2       5 UNK        -0.5012 
     39 N          24.1222  -27.9362  -42.5133 N.am      6 UNK        -0.4439 
     40 CA         23.6899  -29.2770  -42.9011 C.3       6 UNK         0.0297 
     41 CB         23.0715  -29.2091  -44.3097 C.3       6 UNK        -0.2006 
     42 C          22.7071  -29.8203  -41.8550 C.2       6 UNK         0.4892 
     43 O          21.5174  -29.9572  -42.1371 O.2       6 UNK        -0.5089 
     44 N          23.2205  -30.0978  -40.6493 N.am      7 UNK        -0.4243 
     45 CA         22.4361  -30.6009  -39.5164 C.3       7 UNK         0.0196 
     46 CB         23.2895  -30.5579  -38.2382 C.3       7 UNK        -0.2007 
     47 C          21.8757  -32.0135  -39.7485 C.2       7 UNK         0.5020 
     48 O          20.7143  -32.2644  -39.4273 O.2       7 UNK        -0.5147 
     49 N          22.7112  -32.9006  -40.3041 N.am      8 UNK        -0.4734 
     50 CA         22.3605  -34.2890  -40.6251 C.3       8 UNK         0.0238 
     51 CB         23.4117  -35.2190  -39.9950 C.3       8 UNK        -0.1912 
     52 C          22.2632  -34.5459  -42.1392 C.2       8 UNK         0.5038 
     53 O          21.7924  -35.6165  -42.5262 O.2       8 UNK        -0.5046 
     54 N          22.7108  -33.5837  -42.9604 N.am      9 UNK        -0.4200 
     55 CA         22.8423  -33.6739  -44.4261 C.3       9 UNK         0.0839 
     56 C          23.8655  -34.7607  -44.8858 C.2       9 UNK         0.5513 
     57 N          23.9037  -35.1017  -46.1691 N.am      9 UNK        -0.7519 
     58 O          24.6727  -35.2633  -44.1031 O.2       9 UNK        -0.4960 
     59 C59        21.4660  -33.7564  -45.1532 C.3       10 UNK        -0.0876 
     60 S60        20.4422  -32.2779  -44.8560 S.3       10 UNK        -0.2414 
     61 C61        19.1341  -32.9518  -43.7890 C.3       10 UNK         0.0169 
     62 H62        15.6811  -23.5134  -48.0069 H         1 UNK         0.0903 
     63 H63        15.3044  -23.7641  -46.3015 H         1 UNK         0.0903 
     64 H64        16.5206  -22.5741  -46.7700 H         1 UNK         0.0903 
     65 H65        16.2131  -25.6533  -45.5076 H         1 UNK         0.3096 
     66 H66        18.2770  -27.0861  -46.8781 H         1 UNK         0.1121 
     67 H67        18.1255  -28.6359  -44.8614 H         1 UNK         0.0849 
     68 H68        16.9693  -27.5335  -44.1501 H         1 UNK         0.0849 
     69 H69        14.5222  -29.2477  -44.2250 H         1 UNK         0.0865 
     70 H70        14.7440  -30.6353  -45.2589 H         1 UNK         0.0865 
     71 H71        17.0232  -31.8962  -45.1546 H         1 UNK         0.1346 
     72 H72        19.2128  -31.5011  -41.4902 H         1 UNK         0.1412 
     73 H73        15.8312  -28.9771  -42.2509 H         1 UNK         0.1426 
     74 H74        18.7806  -29.7095  -40.0155 H         1 UNK         0.0716 
     75 H75        17.0678  -29.7608  -39.6576 H         1 UNK         0.0716 
     76 H76        19.3380  -27.7684  -38.8374 H         1 UNK         0.0695 
     77 H77        18.8461  -26.1212  -39.1290 H         1 UNK         0.0695 
     78 H78        20.6365  -27.7729  -40.9798 H         1 UNK         0.0983 
     79 H79        19.1661  -25.5270  -41.6665 H         1 UNK         0.3095 
     80 H80        19.9892  -23.7349  -43.1471 H         1 UNK         0.0454 
     81 H81        21.9821  -24.8668  -45.1833 H         1 UNK         0.0851 
     82 H82        22.2704  -23.5377  -44.0750 H         1 UNK         0.0851 
     83 H83        21.0818  -23.3619  -45.3564 H         1 UNK         0.0851 
     84 H84        18.3942  -24.7188  -44.3415 H         1 UNK         0.2976 
     85 H85        21.4551  -24.4935  -40.2031 H         1 UNK         0.3116 
     86 H86        23.1675  -24.9728  -37.9459 H         1 UNK         0.0646 
     87 H87        23.1887  -22.7239  -40.0350 H         1 UNK         0.0847 
     88 H88        24.0547  -22.7065  -38.5060 H         1 UNK         0.0847 
     89 H89        22.2996  -22.7106  -38.5102 H         1 UNK         0.0847 
     90 H90        23.5601  -25.5059  -41.3885 H         1 UNK         0.3040 
     91 H91        26.4834  -26.0951  -41.0609 H         1 UNK         0.1015 
     92 H92        24.8738  -25.3764  -43.5747 H         1 UNK         0.0786 
     93 H93        26.5743  -25.8269  -43.5422 H         1 UNK         0.0786 
     94 H94        26.0468  -24.3468  -42.7587 H         1 UNK         0.0786 
     95 H95        23.4548  -27.1880  -42.6929 H         1 UNK         0.3172 
     96 H96        24.5426  -29.9584  -42.9458 H         1 UNK         0.0595 
     97 H97        22.2084  -28.5421  -44.3384 H         1 UNK         0.0839 
     98 H98        22.7318  -30.1927  -44.6376 H         1 UNK         0.0839 
     99 H99        23.7941  -28.8527  -45.0442 H         1 UNK         0.0839 
    100 H100       24.2025  -29.9163  -40.4888 H         1 UNK         0.2998 
    101 H101       21.5839  -29.9317  -39.3785 H         1 UNK         0.0822 
    102 H102       23.6112  -29.5405  -38.0133 H         1 UNK         0.0787 
    103 H103       22.7198  -30.9127  -37.3780 H         1 UNK         0.0787 
    104 H104       24.1804  -31.1819  -38.3207 H         1 UNK         0.0787 
    105 H105       23.6594  -32.6106  -40.4973 H         1 UNK         0.3055 
    106 H106       21.3863  -34.5441  -40.2017 H         1 UNK         0.1106 
    107 H107       23.1693  -36.2665  -40.1803 H         1 UNK         0.0828 
    108 H108       24.4076  -35.0388  -40.4017 H         1 UNK         0.0828 
    109 H109       23.4605  -35.0868  -38.9140 H         1 UNK         0.0828 
    110 H110       23.0530  -32.7324  -42.5460 H         1 UNK         0.2931 
    111 H111       23.3078  -32.7319  -44.7190 H         1 UNK         0.0412 
    112 H112       23.2863  -34.6812  -46.8477 H         1 UNK         0.3472 
    113 H113       24.5792  -35.7880  -46.4688 H         1 UNK         0.3472 
    114 H114       20.9247  -34.6596  -44.8666 H         1 UNK         0.0970 
    115 H115       21.5960  -33.8189  -46.2340 H         1 UNK         0.0970 
    116 H116       18.5832  -33.7240  -44.3287 H         1 UNK         0.0612 
    117 H117       19.5837  -33.4348  -42.9202 H         1 UNK         0.0612 
@<TRIPOS>BOND
     1    1    2 1    
     2    1   62 1    
     3    1   63 1    
     4    1   64 1    
     5    2    3 2    
     6    2    4 am   BACKBONE|DICT|INTERRES
     7    4    5 1    
     8    4   65 1    
     9    5    6 1    
    10    5   25 1    
    11    5   66 1    
    12    6    7 1    
    13    6   67 1    
    14    6   68 1    
    15    7    8 1    
    16    8    9 1    
    17    8   69 1    
    18    8   70 1    
    19    9   10 ar   
    20    9   14 ar   
    21   10   11 ar   
    22   10   71 1    
    23   11   12 ar   
    24   11   61 1    
    25   12   13 ar   
    26   12   72 1    
    27   13   14 ar   
    28   13   15 1    
    29   14   73 1    
    30   15   16 1    
    31   15   74 1    
    32   15   75 1    
    33   16   17 1    
    34   17   18 1    
    35   17   76 1    
    36   17   77 1    
    37   18   19 1    
    38   18   27 1    
    39   18   78 1    
    40   19   20 am   BACKBONE|DICT|INTERRES
    41   19   79 1    
    42   20   21 2    
    43   20   22 1    
    44   22   23 1    
    45   22   24 1    
    46   22   80 1    
    47   23   81 1    
    48   23   82 1    
    49   23   83 1    
    50   24   25 am   BACKBONE|DICT|INTERRES
    51   24   84 1    
    52   25   26 2    
    53   27   28 2    
    54   27   29 am   BACKBONE|DICT|INTERRES
    55   29   30 1    
    56   29   85 1    
    57   30   31 1    
    58   30   32 1    
    59   30   86 1    
    60   31   87 1    
    61   31   88 1    
    62   31   89 1    
    63   32   33 2    
    64   32   34 am   BACKBONE|DICT|INTERRES
    65   34   35 1    
    66   34   90 1    
    67   35   36 1    
    68   35   37 1    
    69   35   91 1    
    70   36   92 1    
    71   36   93 1    
    72   36   94 1    
    73   37   38 2    
    74   37   39 am   BACKBONE|DICT|INTERRES
    75   39   40 1    
    76   39   95 1    
    77   40   41 1    
    78   40   42 1    
    79   40   96 1    
    80   41   97 1    
    81   41   98 1    
    82   41   99 1    
    83   42   43 2    
    84   42   44 am   BACKBONE|DICT|INTERRES
    85   44   45 1    
    86   44  100 1    
    87   45   46 1    
    88   45   47 1    
    89   45  101 1    
    90   46  102 1    
    91   46  103 1    
    92   46  104 1    
    93   47   48 2    
    94   47   49 am   BACKBONE|DICT|INTERRES
    95   49   50 1    
    96   49  105 1    
    97   50   51 1    
    98   50   52 1    
    99   50  106 1    
   100   51  107 1    
   101   51  108 1    
   102   51  109 1    
   103   52   53 2    
   104   52   54 am   BACKBONE|DICT|INTERRES
   105   54   55 1    
   106   54  110 1    
   107   55   56 1    
   108   55   59 1    
   109   55  111 1    
   110   56   57 am   BACKBONE|DICT|INTERRES
   111   56   58 2    
   112   57  112 1    
   113   57  113 1    
   114   59   60 1    
   115   59  114 1    
   116   59  115 1    
   117   60   61 1    
   118   61  116 1    
   119   61  117 1    
@<TRIPOS>SUBSTRUCTURE
     1 UNK         1 GROUP             0       ****    0 ROOT    
