@<TRIPOS>MOLECULE
3R8
117   119    1
SMALL
USER_CHARGES


@<TRIPOS>ATOM
      1 CA         14.0857  -29.2780  -40.7796 C.3       0 UNK        -0.2013 
      2 C          15.0502  -29.1624  -41.9494 C.2       0 UNK         0.4866 
      3 O          15.9438  -29.9985  -42.0840 O.2       0 UNK        -0.5176 
      4 N          14.8785  -28.1323  -42.7914 N.am      1 UNK        -0.4884 
      5 CA         15.7062  -27.7841  -43.9568 C.3       1 UNK         0.0853 
      6 C6         15.8843  -28.9603  -44.9507 C.3       10 UNK        -0.0849 
      7 S7         16.3780  -28.4352  -46.6230 S.3       10 UNK        -0.2776 
      8 C8         17.3676  -29.8705  -47.1494 C.3       10 UNK         0.0316 
      9 C9         18.7439  -29.8752  -46.5005 C.ar      10 UNK        -0.0863 
     10 C10        19.0009  -30.6592  -45.3701 C.ar      10 UNK        -0.1009 
     11 C11        20.2712  -30.6652  -44.7812 C.ar      10 UNK        -0.0712 
     12 C12        21.2842  -29.8851  -45.3433 C.ar      10 UNK        -0.0894 
     13 C13        21.0398  -29.0970  -46.4690 C.ar      10 UNK        -0.0745 
     14 C14        19.7674  -29.0953  -47.0438 C.ar      10 UNK        -0.0972 
     15 C15        22.1477  -28.2496  -47.0693 C.3       10 UNK         0.0209 
     16 S16        22.1260  -26.5598  -46.3998 S.3       10 UNK        -0.2568 
     17 C17        22.9636  -26.7648  -44.7938 C.3       10 UNK        -0.0983 
     18 CA         22.1535  -26.1359  -43.6354 C.3       3 UNK         0.0876 
     19 N          20.9687  -26.9250  -43.2628 N.am      3 UNK        -0.4424 
     20 C          19.9568  -26.4121  -42.5494 C.2       2 UNK         0.4918 
     21 O          19.8381  -25.2071  -42.3151 O.2       2 UNK        -0.4875 
     22 CA         18.9699  -27.4128  -41.9162 C.3       2 UNK         0.0481 
     23 CB         18.4188  -26.8645  -40.5830 C.3       2 UNK        -0.1831 
     24 N          17.8422  -27.8461  -42.7489 N.am      2 UNK        -0.4498 
     25 C          17.0280  -27.1115  -43.5219 C.2       1 UNK         0.5027 
     26 O          17.2223  -25.9346  -43.8267 O.2       1 UNK        -0.4969 
     27 C          23.0710  -25.8738  -42.4195 C.2       3 UNK         0.5005 
     28 O          23.8076  -24.8862  -42.4312 O.2       3 UNK        -0.5279 
     29 N          23.0365  -26.7597  -41.4093 N.am      4 UNK        -0.4463 
     30 CA         23.7964  -26.7623  -40.1498 C.3       4 UNK         0.0283 
     31 CB         23.5864  -25.4723  -39.3339 C.3       4 UNK        -0.1875 
     32 C          25.2861  -27.0815  -40.3474 C.2       4 UNK         0.4949 
     33 O          25.7957  -28.0060  -39.7149 O.2       4 UNK        -0.5039 
     34 N          25.9406  -26.3635  -41.2688 N.am      5 UNK        -0.4663 
     35 CA         27.3125  -26.6136  -41.7252 C.3       5 UNK         0.0242 
     36 CB         27.7820  -25.4216  -42.5743 C.3       5 UNK        -0.1982 
     37 C          27.4563  -27.9284  -42.5156 C.2       5 UNK         0.5017 
     38 O          28.5551  -28.4802  -42.5752 O.2       5 UNK        -0.5012 
     39 N          26.3423  -28.4085  -43.0821 N.am      6 UNK        -0.4439 
     40 CA         26.2028  -29.6973  -43.7570 C.3       6 UNK         0.0297 
     41 CB         25.9987  -29.4664  -45.2665 C.3       6 UNK        -0.2006 
     42 C          25.0621  -30.4988  -43.1043 C.2       6 UNK         0.4892 
     43 O          24.2426  -31.0805  -43.8139 O.2       6 UNK        -0.5089 
     44 N          25.0501  -30.5036  -41.7620 N.am      7 UNK        -0.4243 
     45 CA         24.0915  -31.1343  -40.8444 C.3       7 UNK         0.0196 
     46 CB         23.8739  -32.6286  -41.1658 C.3       7 UNK        -0.2007 
     47 C          22.7578  -30.3760  -40.7244 C.2       7 UNK         0.5020 
     48 O          22.4183  -29.5361  -41.5631 O.2       7 UNK        -0.5147 
     49 N          22.0368  -30.6719  -39.6357 N.am      8 UNK        -0.4734 
     50 CA         20.7684  -30.0320  -39.2771 C.3       8 UNK         0.0238 
     51 CB         20.6582  -29.9571  -37.7456 C.3       8 UNK        -0.1912 
     52 C          19.5364  -30.7403  -39.8644 C.2       8 UNK         0.5038 
     53 O          18.5030  -30.0905  -39.9971 O.2       8 UNK        -0.5046 
     54 N          19.6577  -32.0317  -40.2069 N.am      9 UNK        -0.4200 
     55 CA         18.5994  -32.8798  -40.7846 C.3       9 UNK         0.0839 
     56 C          17.3321  -32.9543  -39.8837 C.2       9 UNK         0.5513 
     57 N          16.2430  -32.2734  -40.2167 N.am      9 UNK        -0.7519 
     58 O          17.3299  -33.6718  -38.8863 O.2       9 UNK        -0.4960 
     59 C59        18.3063  -32.5551  -42.2784 C.3       10 UNK        -0.0876 
     60 S60        19.6965  -33.0417  -43.3549 S.3       10 UNK        -0.2414 
     61 C61        20.5882  -31.4627  -43.5206 C.3       10 UNK         0.0169 
     62 H62        13.5329  -30.2148  -40.8423 H         1 UNK         0.0903 
     63 H63        14.6384  -29.2708  -39.8404 H         1 UNK         0.0903 
     64 H64        13.3673  -28.4589  -40.7580 H         1 UNK         0.0903 
     65 H65        14.1328  -27.4764  -42.6002 H         1 UNK         0.3096 
     66 H66        15.1343  -27.0141  -44.4783 H         1 UNK         0.1121 
     67 H67        16.5925  -29.6874  -44.5588 H         1 UNK         0.0849 
     68 H68        14.9408  -29.4984  -45.0548 H         1 UNK         0.0849 
     69 H69        16.8297  -30.7931  -46.9251 H         1 UNK         0.0865 
     70 H70        17.4775  -29.8431  -48.2347 H         1 UNK         0.0865 
     71 H71        18.2094  -31.2620  -44.9491 H         1 UNK         0.1346 
     72 H72        22.2682  -29.8900  -44.8970 H         1 UNK         0.1412 
     73 H73        19.5719  -28.4823  -47.9134 H         1 UNK         0.1426 
     74 H74        23.1229  -28.7083  -46.9011 H         1 UNK         0.0716 
     75 H75        22.0226  -28.1974  -48.1519 H         1 UNK         0.0716 
     76 H76        23.1683  -27.8153  -44.5899 H         1 UNK         0.0695 
     77 H77        23.9390  -26.2840  -44.8968 H         1 UNK         0.0695 
     78 H78        21.8144  -25.1515  -43.9675 H         1 UNK         0.0983 
     79 H79        21.0009  -27.9184  -43.4440 H         1 UNK         0.3095 
     80 H80        19.5404  -28.3145  -41.6952 H         1 UNK         0.0454 
     81 H81        17.8213  -25.9645  -40.7330 H         1 UNK         0.0851 
     82 H82        17.7869  -27.5948  -40.0788 H         1 UNK         0.0851 
     83 H83        19.2292  -26.6097  -39.8989 H         1 UNK         0.0851 
     84 H84        17.5167  -28.7887  -42.5557 H         1 UNK         0.2976 
     85 H85        22.4944  -27.6082  -41.5561 H         1 UNK         0.3116 
     86 H86        23.3777  -27.5806  -39.5618 H         1 UNK         0.0646 
     87 H87        24.0626  -25.5523  -38.3560 H         1 UNK         0.0847 
     88 H88        22.5270  -25.2804  -39.1637 H         1 UNK         0.0847 
     89 H89        24.0102  -24.5967  -39.8260 H         1 UNK         0.0847 
     90 H90        25.4147  -25.6316  -41.7421 H         1 UNK         0.3040 
     91 H91        27.9555  -26.6895  -40.8454 H         1 UNK         0.1015 
     92 H92        27.7569  -24.4936  -42.0027 H         1 UNK         0.0786 
     93 H93        27.1599  -25.2871  -43.4603 H         1 UNK         0.0786 
     94 H94        28.8089  -25.5638  -42.9142 H         1 UNK         0.0786 
     95 H95        25.4904  -27.8844  -42.9450 H         1 UNK         0.3172 
     96 H96        27.1084  -30.2931  -43.6268 H         1 UNK         0.0595 
     97 H97        25.0930  -28.8974  -45.4705 H         1 UNK         0.0839 
     98 H98        25.9175  -30.4138  -45.8010 H         1 UNK         0.0839 
     99 H99        26.8388  -28.9234  -45.6995 H         1 UNK         0.0839 
    100 H100       25.7607  -29.9504  -41.3011 H         1 UNK         0.2998 
    101 H101       24.5692  -31.0757  -39.8649 H         1 UNK         0.0822 
    102 H102       24.8233  -33.1521  -41.2783 H         1 UNK         0.0787 
    103 H103       23.3257  -33.1285  -40.3668 H         1 UNK         0.0787 
    104 H104       23.3021  -32.7730  -42.0825 H         1 UNK         0.0787 
    105 H105       22.3963  -31.3569  -38.9856 H         1 UNK         0.3055 
    106 H106       20.7636  -29.0089  -39.6596 H         1 UNK         0.1106 
    107 H107       19.7357  -29.4575  -37.4455 H         1 UNK         0.0828 
    108 H108       20.6547  -30.9477  -37.2893 H         1 UNK         0.0828 
    109 H109       21.4846  -29.3907  -37.3157 H         1 UNK         0.0828 
    110 H110       20.5427  -32.4869  -40.0456 H         1 UNK         0.2931 
    111 H111       19.0070  -33.8918  -40.7599 H         1 UNK         0.0412 
    112 H112       15.4266  -32.3441  -39.6316 H         1 UNK         0.3472 
    113 H113       16.2639  -31.5933  -40.9709 H         1 UNK         0.3472 
    114 H114       18.0752  -31.4980  -42.4142 H         1 UNK         0.0970 
    115 H115       17.4288  -33.1039  -42.6248 H         1 UNK         0.0970 
    116 H116       21.6534  -31.6915  -43.4907 H         1 UNK         0.0612 
    117 H117       20.3873  -30.8297  -42.6585 H         1 UNK         0.0612 
@<TRIPOS>BOND
     1    1    2 1    
     2    1   62 1    
     3    1   63 1    
     4    1   64 1    
     5    2    3 2    
     6    2    4 am   BACKBONE|DICT|INTERRES
     7    4    5 1    
     8    4   65 1    
     9    5    6 1    
    10    5   25 1    
    11    5   66 1    
    12    6    7 1    
    13    6   67 1    
    14    6   68 1    
    15    7    8 1    
    16    8    9 1    
    17    8   69 1    
    18    8   70 1    
    19    9   10 ar   
    20    9   14 ar   
    21   10   11 ar   
    22   10   71 1    
    23   11   12 ar   
    24   11   61 1    
    25   12   13 ar   
    26   12   72 1    
    27   13   14 ar   
    28   13   15 1    
    29   14   73 1    
    30   15   16 1    
    31   15   74 1    
    32   15   75 1    
    33   16   17 1    
    34   17   18 1    
    35   17   76 1    
    36   17   77 1    
    37   18   19 1    
    38   18   27 1    
    39   18   78 1    
    40   19   20 am   BACKBONE|DICT|INTERRES
    41   19   79 1    
    42   20   21 2    
    43   20   22 1    
    44   22   23 1    
    45   22   24 1    
    46   22   80 1    
    47   23   81 1    
    48   23   82 1    
    49   23   83 1    
    50   24   25 am   BACKBONE|DICT|INTERRES
    51   24   84 1    
    52   25   26 2    
    53   27   28 2    
    54   27   29 am   BACKBONE|DICT|INTERRES
    55   29   30 1    
    56   29   85 1    
    57   30   31 1    
    58   30   32 1    
    59   30   86 1    
    60   31   87 1    
    61   31   88 1    
    62   31   89 1    
    63   32   33 2    
    64   32   34 am   BACKBONE|DICT|INTERRES
    65   34   35 1    
    66   34   90 1    
    67   35   36 1    
    68   35   37 1    
    69   35   91 1    
    70   36   92 1    
    71   36   93 1    
    72   36   94 1    
    73   37   38 2    
    74   37   39 am   BACKBONE|DICT|INTERRES
    75   39   40 1    
    76   39   95 1    
    77   40   41 1    
    78   40   42 1    
    79   40   96 1    
    80   41   97 1    
    81   41   98 1    
    82   41   99 1    
    83   42   43 2    
    84   42   44 am   BACKBONE|DICT|INTERRES
    85   44   45 1    
    86   44  100 1    
    87   45   46 1    
    88   45   47 1    
    89   45  101 1    
    90   46  102 1    
    91   46  103 1    
    92   46  104 1    
    93   47   48 2    
    94   47   49 am   BACKBONE|DICT|INTERRES
    95   49   50 1    
    96   49  105 1    
    97   50   51 1    
    98   50   52 1    
    99   50  106 1    
   100   51  107 1    
   101   51  108 1    
   102   51  109 1    
   103   52   53 2    
   104   52   54 am   BACKBONE|DICT|INTERRES
   105   54   55 1    
   106   54  110 1    
   107   55   56 1    
   108   55   59 1    
   109   55  111 1    
   110   56   57 am   BACKBONE|DICT|INTERRES
   111   56   58 2    
   112   57  112 1    
   113   57  113 1    
   114   59   60 1    
   115   59  114 1    
   116   59  115 1    
   117   60   61 1    
   118   61  116 1    
   119   61  117 1    
@<TRIPOS>SUBSTRUCTURE
     1 UNK         1 GROUP             0       ****    0 ROOT    
