@<TRIPOS>MOLECULE
3R8
117   119    1
SMALL
USER_CHARGES


@<TRIPOS>ATOM
      1 CA         16.5163  -21.8231  -45.5869 C.3       0 UNK        -0.2013 
      2 C          17.4862  -22.9425  -45.9351 C.2       0 UNK         0.4866 
      3 O          18.6516  -22.6727  -46.2289 O.2       0 UNK        -0.5176 
      4 N          17.0126  -24.1949  -45.9128 N.am      1 UNK        -0.4884 
      5 CA         17.8208  -25.3972  -46.1456 C.3       1 UNK         0.0853 
      6 C6         16.9421  -26.5658  -46.6579 C.3       10 UNK        -0.0849 
      7 S7         17.8650  -27.7206  -47.7338 S.3       10 UNK        -0.2776 
      8 C8         16.8166  -29.2112  -47.6869 C.3       10 UNK         0.0316 
      9 C9         17.0439  -30.0120  -46.4138 C.ar      10 UNK        -0.0863 
     10 C10        18.0022  -31.0281  -46.3743 C.ar      10 UNK        -0.1009 
     11 C11        18.2242  -31.7478  -45.1959 C.ar      10 UNK        -0.0712 
     12 C12        17.5065  -31.4193  -44.0393 C.ar      10 UNK        -0.0894 
     13 C13        16.5438  -30.4055  -44.0691 C.ar      10 UNK        -0.0745 
     14 C14        16.2933  -29.7374  -45.2704 C.ar      10 UNK        -0.0972 
     15 C15        15.7520  -30.0359  -42.8211 C.3       10 UNK         0.0209 
     16 S16        15.7929  -28.2372  -42.5120 S.3       10 UNK        -0.2568 
     17 C17        16.8620  -28.0994  -41.0458 C.3       10 UNK        -0.0983 
     18 CA         18.3576  -28.4425  -41.2752 C.3       3 UNK         0.0876 
     19 N          18.9463  -27.7336  -42.4185 N.am      3 UNK        -0.4424 
     20 C          20.1996  -27.8842  -42.8690 C.2       2 UNK         0.4918 
     21 O          21.0166  -28.6398  -42.3376 O.2       2 UNK        -0.4875 
     22 CA         20.6453  -27.0644  -44.1029 C.3       2 UNK         0.0481 
     23 CB         21.7610  -27.7813  -44.8881 C.3       2 UNK        -0.1831 
     24 N          19.5929  -26.6939  -45.0563 N.am      2 UNK        -0.4498 
     25 C          18.6389  -25.7716  -44.8861 C.2       1 UNK         0.5027 
     26 O          18.4033  -25.2335  -43.8010 O.2       1 UNK        -0.4969 
     27 C          19.1559  -28.1680  -39.9829 C.2       3 UNK         0.5005 
     28 O          19.1113  -27.0451  -39.4742 O.2       3 UNK        -0.5279 
     29 N          19.8861  -29.1836  -39.4992 N.am      4 UNK        -0.4463 
     30 CA         20.7793  -29.1575  -38.3334 C.3       4 UNK         0.0283 
     31 CB         19.9701  -28.9931  -37.0293 C.3       4 UNK        -0.1875 
     32 C          21.9375  -28.1409  -38.4464 C.2       4 UNK         0.4949 
     33 O          22.4556  -27.6923  -37.4219 O.2       4 UNK        -0.5039 
     34 N          22.3343  -27.8007  -39.6810 N.am      5 UNK        -0.4663 
     35 CA         23.4767  -26.9348  -39.9837 C.3       5 UNK         0.0242 
     36 CB         23.2702  -26.3279  -41.3836 C.3       5 UNK        -0.1982 
     37 C          24.8064  -27.7075  -39.8943 C.2       5 UNK         0.5017 
     38 O          24.8130  -28.8966  -39.5683 O.2       5 UNK        -0.5012 
     39 N          25.9154  -27.0363  -40.2394 N.am      6 UNK        -0.4439 
     40 CA         27.2768  -27.5944  -40.2762 C.3       6 UNK         0.0297 
     41 CB         28.2678  -26.4813  -40.6534 C.3       6 UNK        -0.2006 
     42 C          27.4566  -28.8112  -41.2095 C.2       6 UNK         0.4892 
     43 O          28.3807  -29.5976  -41.0014 O.2       6 UNK        -0.5089 
     44 N          26.5596  -28.9607  -42.1949 N.am      7 UNK        -0.4243 
     45 CA         26.4415  -30.1334  -43.0654 C.3       7 UNK         0.0196 
     46 CB         25.5512  -29.7662  -44.2651 C.3       7 UNK        -0.2007 
     47 C          25.8819  -31.3839  -42.3547 C.2       7 UNK         0.5020 
     48 O          25.9825  -32.4748  -42.9160 O.2       7 UNK        -0.5147 
     49 N          25.2871  -31.2100  -41.1622 N.am      8 UNK        -0.4734 
     50 CA         24.6325  -32.2252  -40.3254 C.3       8 UNK         0.0238 
     51 CB         25.6514  -33.2706  -39.8227 C.3       8 UNK        -0.1912 
     52 C          23.3950  -32.8587  -40.9919 C.2       8 UNK         0.5038 
     53 O          23.1068  -34.0342  -40.7585 O.2       8 UNK        -0.5046 
     54 N          22.6905  -32.0689  -41.8130 N.am      9 UNK        -0.4200 
     55 CA         21.4716  -32.4702  -42.5232 C.3       9 UNK         0.0839 
     56 C          20.2732  -32.5998  -41.5463 C.2       9 UNK         0.5513 
     57 N          19.5974  -33.7395  -41.5233 N.am      9 UNK        -0.7519 
     58 O          19.9314  -31.6556  -40.8379 O.2       9 UNK        -0.4960 
     59 C59        21.1570  -31.4955  -43.6953 C.3       10 UNK        -0.0876 
     60 S60        20.9459  -32.3495  -45.2888 S.3       10 UNK        -0.2414 
     61 C61        19.2154  -32.9026  -45.1881 C.3       10 UNK         0.0169 
     62 H62        15.5185  -22.2012  -45.3652 H         1 UNK         0.0903 
     63 H63        16.8730  -21.2766  -44.7142 H         1 UNK         0.0903 
     64 H64        16.4363  -21.1233  -46.4183 H         1 UNK         0.0903 
     65 H65        16.0580  -24.3564  -45.6242 H         1 UNK         0.3096 
     66 H66        18.5429  -25.1481  -46.9274 H         1 UNK         0.1121 
     67 H67        16.1173  -26.1814  -47.2606 H         1 UNK         0.0849 
     68 H68        16.4780  -27.0863  -45.8224 H         1 UNK         0.0849 
     69 H69        15.7665  -28.9305  -47.7834 H         1 UNK         0.0865 
     70 H70        17.0450  -29.8289  -48.5568 H         1 UNK         0.0865 
     71 H71        18.5741  -31.2647  -47.2614 H         1 UNK         0.1346 
     72 H72        17.6858  -31.9634  -43.1221 H         1 UNK         0.1412 
     73 H73        15.5226  -28.9806  -45.3021 H         1 UNK         0.1426 
     74 H74        16.1175  -30.5768  -41.9471 H         1 UNK         0.0716 
     75 H75        14.7151  -30.3432  -42.9626 H         1 UNK         0.0716 
     76 H76        16.4447  -28.7321  -40.2599 H         1 UNK         0.0695 
     77 H77        16.7582  -27.0726  -40.6889 H         1 UNK         0.0695 
     78 H78        18.4229  -29.5080  -41.5032 H         1 UNK         0.0983 
     79 H79        18.3662  -27.0302  -42.8595 H         1 UNK         0.3095 
     80 H80        21.0664  -26.1370  -43.7105 H         1 UNK         0.0454 
     81 H81        21.4124  -28.7277  -45.3035 H         1 UNK         0.0851 
     82 H82        22.6204  -28.0007  -44.2553 H         1 UNK         0.0851 
     83 H83        22.1263  -27.1676  -45.7115 H         1 UNK         0.0851 
     84 H84        19.6432  -27.1440  -45.9608 H         1 UNK         0.2976 
     85 H85        19.8847  -30.0635  -40.0179 H         1 UNK         0.3116 
     86 H86        21.2524  -30.1401  -38.3035 H         1 UNK         0.0646 
     87 H87        19.5180  -28.0036  -36.9560 H         1 UNK         0.0847 
     88 H88        20.6064  -29.1243  -36.1533 H         1 UNK         0.0847 
     89 H89        19.1728  -29.7330  -36.9606 H         1 UNK         0.0847 
     90 H90        21.8630  -28.2245  -40.4732 H         1 UNK         0.3040 
     91 H91        23.5100  -26.1248  -39.2515 H         1 UNK         0.1015 
     92 H92        22.2957  -25.8455  -41.4627 H         1 UNK         0.0786 
     93 H93        23.3320  -27.0874  -42.1628 H         1 UNK         0.0786 
     94 H94        24.0170  -25.5659  -41.6082 H         1 UNK         0.0786 
     95 H95        25.8269  -26.0629  -40.4951 H         1 UNK         0.3172 
     96 H96        27.5136  -27.9322  -39.2652 H         1 UNK         0.0595 
     97 H97        28.0642  -26.0778  -41.6461 H         1 UNK         0.0839 
     98 H98        29.2926  -26.8561  -40.6593 H         1 UNK         0.0839 
     99 H99        28.2330  -25.6575  -39.9402 H         1 UNK         0.0839 
    100 H100       25.8519  -28.2489  -42.2970 H         1 UNK         0.2998 
    101 H101       27.4371  -30.3863  -43.4365 H         1 UNK         0.0822 
    102 H102       25.9552  -28.9170  -44.8167 H         1 UNK         0.0787 
    103 H103       25.4769  -30.5989  -44.9661 H         1 UNK         0.0787 
    104 H104       24.5373  -29.5149  -43.9524 H         1 UNK         0.0787 
    105 H105       25.2571  -30.2709  -40.7707 H         1 UNK         0.3055 
    106 H106       24.2545  -31.6936  -39.4503 H         1 UNK         0.1106 
    107 H107       25.2005  -33.9317  -39.0817 H         1 UNK         0.0828 
    108 H108       26.0225  -33.8986  -40.6331 H         1 UNK         0.0828 
    109 H109       26.5085  -32.7924  -39.3487 H         1 UNK         0.0828 
    110 H110       22.9750  -31.1068  -41.9152 H         1 UNK         0.2931 
    111 H111       21.6762  -33.4599  -42.9378 H         1 UNK         0.0412 
    112 H112       18.8151  -33.8322  -40.8947 H         1 UNK         0.3472 
    113 H113       19.8827  -34.5251  -42.0869 H         1 UNK         0.3472 
    114 H114       20.2813  -30.8743  -43.5022 H         1 UNK         0.0970 
    115 H115       21.9724  -30.7851  -43.8383 H         1 UNK         0.0970 
    116 H116       19.0829  -33.5237  -44.3021 H         1 UNK         0.0612 
    117 H117       19.0098  -33.5503  -46.0415 H         1 UNK         0.0612 
@<TRIPOS>BOND
     1    1    2 1    
     2    1   62 1    
     3    1   63 1    
     4    1   64 1    
     5    2    3 2    
     6    2    4 am   BACKBONE|DICT|INTERRES
     7    4    5 1    
     8    4   65 1    
     9    5    6 1    
    10    5   25 1    
    11    5   66 1    
    12    6    7 1    
    13    6   67 1    
    14    6   68 1    
    15    7    8 1    
    16    8    9 1    
    17    8   69 1    
    18    8   70 1    
    19    9   10 ar   
    20    9   14 ar   
    21   10   11 ar   
    22   10   71 1    
    23   11   12 ar   
    24   11   61 1    
    25   12   13 ar   
    26   12   72 1    
    27   13   14 ar   
    28   13   15 1    
    29   14   73 1    
    30   15   16 1    
    31   15   74 1    
    32   15   75 1    
    33   16   17 1    
    34   17   18 1    
    35   17   76 1    
    36   17   77 1    
    37   18   19 1    
    38   18   27 1    
    39   18   78 1    
    40   19   20 am   BACKBONE|DICT|INTERRES
    41   19   79 1    
    42   20   21 2    
    43   20   22 1    
    44   22   23 1    
    45   22   24 1    
    46   22   80 1    
    47   23   81 1    
    48   23   82 1    
    49   23   83 1    
    50   24   25 am   BACKBONE|DICT|INTERRES
    51   24   84 1    
    52   25   26 2    
    53   27   28 2    
    54   27   29 am   BACKBONE|DICT|INTERRES
    55   29   30 1    
    56   29   85 1    
    57   30   31 1    
    58   30   32 1    
    59   30   86 1    
    60   31   87 1    
    61   31   88 1    
    62   31   89 1    
    63   32   33 2    
    64   32   34 am   BACKBONE|DICT|INTERRES
    65   34   35 1    
    66   34   90 1    
    67   35   36 1    
    68   35   37 1    
    69   35   91 1    
    70   36   92 1    
    71   36   93 1    
    72   36   94 1    
    73   37   38 2    
    74   37   39 am   BACKBONE|DICT|INTERRES
    75   39   40 1    
    76   39   95 1    
    77   40   41 1    
    78   40   42 1    
    79   40   96 1    
    80   41   97 1    
    81   41   98 1    
    82   41   99 1    
    83   42   43 2    
    84   42   44 am   BACKBONE|DICT|INTERRES
    85   44   45 1    
    86   44  100 1    
    87   45   46 1    
    88   45   47 1    
    89   45  101 1    
    90   46  102 1    
    91   46  103 1    
    92   46  104 1    
    93   47   48 2    
    94   47   49 am   BACKBONE|DICT|INTERRES
    95   49   50 1    
    96   49  105 1    
    97   50   51 1    
    98   50   52 1    
    99   50  106 1    
   100   51  107 1    
   101   51  108 1    
   102   51  109 1    
   103   52   53 2    
   104   52   54 am   BACKBONE|DICT|INTERRES
   105   54   55 1    
   106   54  110 1    
   107   55   56 1    
   108   55   59 1    
   109   55  111 1    
   110   56   57 am   BACKBONE|DICT|INTERRES
   111   56   58 2    
   112   57  112 1    
   113   57  113 1    
   114   59   60 1    
   115   59  114 1    
   116   59  115 1    
   117   60   61 1    
   118   61  116 1    
   119   61  117 1    
@<TRIPOS>SUBSTRUCTURE
     1 UNK         1 GROUP             0       ****    0 ROOT    
