@<TRIPOS>MOLECULE
3R8
117   119    1
SMALL
USER_CHARGES


@<TRIPOS>ATOM
      1 CA         13.3269  -25.0231  -43.0787 C.3       0 UNK        -0.2013 
      2 C          14.3573  -25.5448  -44.0687 C.2       0 UNK         0.4866 
      3 O          14.0143  -25.8313  -45.2161 O.2       0 UNK        -0.5176 
      4 N          15.6151  -25.6662  -43.6358 N.am      1 UNK        -0.4884 
      5 CA         16.7360  -26.1621  -44.4313 C.3       1 UNK         0.0853 
      6 C6         16.8679  -27.7127  -44.4368 C.3       10 UNK        -0.0849 
      7 S7         16.4904  -28.5732  -42.8601 S.3       10 UNK        -0.2776 
      8 C8         18.1240  -29.0459  -42.2077 C.3       10 UNK         0.0316 
      9 C9         18.8839  -29.9684  -43.1488 C.ar      10 UNK        -0.0863 
     10 C10        18.5558  -31.3239  -43.2452 C.ar      10 UNK        -0.1009 
     11 C11        19.2499  -32.1579  -44.1274 C.ar      10 UNK        -0.0712 
     12 C12        20.2649  -31.6226  -44.9275 C.ar      10 UNK        -0.0894 
     13 C13        20.5987  -30.2676  -44.8431 C.ar      10 UNK        -0.0745 
     14 C14        19.9191  -29.4557  -43.9311 C.ar      10 UNK        -0.0972 
     15 C15        21.6940  -29.6890  -45.7316 C.3       10 UNK         0.0209 
     16 S16        21.1836  -28.1254  -46.5264 S.3       10 UNK        -0.2568 
     17 C17        22.5988  -27.0319  -46.1523 C.3       10 UNK        -0.0983 
     18 CA         22.4163  -26.1400  -44.8927 C.3       3 UNK         0.0876 
     19 N          21.1677  -25.3697  -44.9417 N.am      3 UNK        -0.4424 
     20 C          20.9566  -24.1901  -44.3449 C.2       2 UNK         0.4918 
     21 O          21.8039  -23.6138  -43.6634 O.2       2 UNK        -0.4875 
     22 CA         19.5675  -23.5503  -44.5120 C.3       2 UNK         0.0481 
     23 CB         19.6124  -22.4660  -45.6003 C.3       2 UNK        -0.1831 
     24 N          18.4862  -24.4950  -44.8179 N.am      2 UNK        -0.4498 
     25 C          17.9999  -25.4161  -43.9725 C.2       1 UNK         0.5027 
     26 O          18.4784  -25.6410  -42.8602 O.2       1 UNK        -0.4969 
     27 C          22.6229  -26.9124  -43.5667 C.2       3 UNK         0.5005 
     28 O          23.5023  -27.7720  -43.5056 O.2       3 UNK        -0.5279 
     29 N          21.8402  -26.6054  -42.5183 N.am      4 UNK        -0.4463 
     30 CA         21.8664  -27.2484  -41.1973 C.3       4 UNK         0.0283 
     31 CB         20.8681  -26.5457  -40.2643 C.3       4 UNK        -0.1875 
     32 C          23.2538  -27.3160  -40.5319 C.2       4 UNK         0.4949 
     33 O          23.5407  -28.2841  -39.8322 O.2       4 UNK        -0.5039 
     34 N          24.1144  -26.3267  -40.8032 N.am      5 UNK        -0.4663 
     35 CA         25.5123  -26.3032  -40.3625 C.3       5 UNK         0.0242 
     36 CB         26.1113  -24.9240  -40.6817 C.3       5 UNK        -0.1982 
     37 C          26.3866  -27.4212  -40.9687 C.2       5 UNK         0.5017 
     38 O          27.4248  -27.7396  -40.3876 O.2       5 UNK        -0.5012 
     39 N          25.9723  -27.9832  -42.1135 N.am      6 UNK        -0.4439 
     40 CA         26.6967  -29.0185  -42.8498 C.3       6 UNK         0.0297 
     41 CB         26.6980  -28.6491  -44.3439 C.3       6 UNK        -0.2006 
     42 C          26.1113  -30.4284  -42.6555 C.2       6 UNK         0.4892 
     43 O          26.7808  -31.3877  -43.0429 O.2       6 UNK        -0.5089 
     44 N          24.9003  -30.5591  -42.0910 N.am      7 UNK        -0.4243 
     45 CA         24.2233  -31.8497  -41.9353 C.3       7 UNK         0.0196 
     46 CB         23.5882  -32.3006  -43.2666 C.3       7 UNK        -0.2007 
     47 C          23.1939  -31.8341  -40.8016 C.2       7 UNK         0.5020 
     48 O          23.3566  -32.5772  -39.8345 O.2       7 UNK        -0.5147 
     49 N          22.1193  -31.0502  -40.9717 N.am      8 UNK        -0.4734 
     50 CA         20.9127  -30.9475  -40.1259 C.3       8 UNK         0.0238 
     51 CB         21.2356  -30.5389  -38.6739 C.3       8 UNK        -0.1912 
     52 C          19.9949  -32.1843  -40.1409 C.2       8 UNK         0.5038 
     53 O          18.7829  -32.0176  -40.0032 O.2       8 UNK        -0.5046 
     54 N          20.5675  -33.3826  -40.3078 N.am      9 UNK        -0.4200 
     55 CA         19.8781  -34.6812  -40.3957 C.3       9 UNK         0.0839 
     56 C          19.1426  -35.1177  -39.0907 C.2       9 UNK         0.5513 
     57 N          19.4773  -34.5663  -37.9304 N.am      9 UNK        -0.7519 
     58 O          18.2805  -35.9933  -39.1183 O.2       9 UNK        -0.4960 
     59 C59        18.9887  -34.8048  -41.6670 C.3       10 UNK        -0.0876 
     60 S60        19.9555  -34.6789  -43.2117 S.3       10 UNK        -0.2414 
     61 C61        18.8891  -33.6305  -44.2492 C.3       10 UNK         0.0169 
     62 H62        12.5301  -25.7546  -42.9477 H         1 UNK         0.0903 
     63 H63        13.7656  -24.8216  -42.1015 H         1 UNK         0.0903 
     64 H64        12.8843  -24.0989  -43.4490 H         1 UNK         0.0903 
     65 H65        15.8560  -25.4120  -42.6866 H         1 UNK         0.3096 
     66 H66        16.5663  -25.8662  -45.4694 H         1 UNK         0.1121 
     67 H67        17.8408  -28.0146  -44.8222 H         1 UNK         0.0849 
     68 H68        16.1549  -28.1073  -45.1623 H         1 UNK         0.0849 
     69 H69        18.7017  -28.1457  -42.0002 H         1 UNK         0.0865 
     70 H70        17.9836  -29.5441  -41.2474 H         1 UNK         0.0865 
     71 H71        17.7586  -31.7260  -42.6350 H         1 UNK         0.1346 
     72 H72        20.7926  -32.2653  -45.6191 H         1 UNK         0.1412 
     73 H73        20.1679  -28.4076  -43.8572 H         1 UNK         0.1426 
     74 H74        22.5907  -29.5476  -45.1299 H         1 UNK         0.0716 
     75 H75        21.9656  -30.3955  -46.5173 H         1 UNK         0.0716 
     76 H76        23.5203  -27.6151  -46.1027 H         1 UNK         0.0695 
     77 H77        22.7282  -26.3832  -47.0200 H         1 UNK         0.0695 
     78 H78        23.2378  -25.4202  -44.9131 H         1 UNK         0.0983 
     79 H79        20.4194  -25.7823  -45.4797 H         1 UNK         0.3095 
     80 H80        19.3221  -23.0654  -43.5650 H         1 UNK         0.0454 
     81 H81        19.8286  -22.8868  -46.5829 H         1 UNK         0.0851 
     82 H82        18.6670  -21.9272  -45.6650 H         1 UNK         0.0851 
     83 H83        20.3869  -21.7281  -45.3856 H         1 UNK         0.0851 
     84 H84        18.0256  -24.3656  -45.7077 H         1 UNK         0.2976 
     85 H85        21.1466  -25.8813  -42.6481 H         1 UNK         0.3116 
     86 H86        21.5301  -28.2739  -41.3463 H         1 UNK         0.0646 
     87 H87        21.1402  -25.5031  -40.0961 H         1 UNK         0.0847 
     88 H88        19.8565  -26.5634  -40.6673 H         1 UNK         0.0847 
     89 H89        20.8339  -27.0347  -39.2897 H         1 UNK         0.0847 
     90 H90        23.8041  -25.5686  -41.3938 H         1 UNK         0.3040 
     91 H91        25.5232  -26.4408  -39.2789 H         1 UNK         0.1015 
     92 H92        26.1093  -24.7217  -41.7535 H         1 UNK         0.0786 
     93 H93        27.1452  -24.8584  -40.3398 H         1 UNK         0.0786 
     94 H94        25.5579  -24.1258  -40.1865 H         1 UNK         0.0786 
     95 H95        25.0815  -27.6980  -42.5166 H         1 UNK         0.3172 
     96 H96        27.7363  -29.0538  -42.5176 H         1 UNK         0.0595 
     97 H97        27.2853  -29.3635  -44.9225 H         1 UNK         0.0839 
     98 H98        27.1341  -27.6640  -44.5098 H         1 UNK         0.0839 
     99 H99        25.6905  -28.6453  -44.7617 H         1 UNK         0.0839 
    100 H100       24.4249  -29.7403  -41.7340 H         1 UNK         0.2998 
    101 H101       24.9684  -32.5976  -41.6535 H         1 UNK         0.0822 
    102 H102       22.9963  -33.2081  -43.1364 H         1 UNK         0.0787 
    103 H103       22.9300  -31.5370  -43.6777 H         1 UNK         0.0787 
    104 H104       24.3493  -32.5181  -44.0160 H         1 UNK         0.0787 
    105 H105       22.0661  -30.5382  -41.8412 H         1 UNK         0.3055 
    106 H106       20.3203  -30.1420  -40.5586 H         1 UNK         0.1106 
    107 H107       21.7422  -29.5777  -38.6297 H         1 UNK         0.0828 
    108 H108       20.3210  -30.4377  -38.0877 H         1 UNK         0.0828 
    109 H109       21.8612  -31.2715  -38.1648 H         1 UNK         0.0828 
    110 H110       21.5796  -33.4115  -40.3333 H         1 UNK         0.2931 
    111 H111       20.6786  -35.4146  -40.4996 H         1 UNK         0.0412 
    112 H112       19.0062  -34.8610  -37.0894 H         1 UNK         0.3472 
    113 H113       20.1917  -33.8567  -37.8893 H         1 UNK         0.3472 
    114 H114       18.4829  -35.7715  -41.6927 H         1 UNK         0.0970 
    115 H115       18.1978  -34.0542  -41.6516 H         1 UNK         0.0970 
    116 H116       19.0027  -33.9455  -45.2874 H         1 UNK         0.0612 
    117 H117       17.8396  -33.7951  -44.0009 H         1 UNK         0.0612 
@<TRIPOS>BOND
     1    1    2 1    
     2    1   62 1    
     3    1   63 1    
     4    1   64 1    
     5    2    3 2    
     6    2    4 am   BACKBONE|DICT|INTERRES
     7    4    5 1    
     8    4   65 1    
     9    5    6 1    
    10    5   25 1    
    11    5   66 1    
    12    6    7 1    
    13    6   67 1    
    14    6   68 1    
    15    7    8 1    
    16    8    9 1    
    17    8   69 1    
    18    8   70 1    
    19    9   10 ar   
    20    9   14 ar   
    21   10   11 ar   
    22   10   71 1    
    23   11   12 ar   
    24   11   61 1    
    25   12   13 ar   
    26   12   72 1    
    27   13   14 ar   
    28   13   15 1    
    29   14   73 1    
    30   15   16 1    
    31   15   74 1    
    32   15   75 1    
    33   16   17 1    
    34   17   18 1    
    35   17   76 1    
    36   17   77 1    
    37   18   19 1    
    38   18   27 1    
    39   18   78 1    
    40   19   20 am   BACKBONE|DICT|INTERRES
    41   19   79 1    
    42   20   21 2    
    43   20   22 1    
    44   22   23 1    
    45   22   24 1    
    46   22   80 1    
    47   23   81 1    
    48   23   82 1    
    49   23   83 1    
    50   24   25 am   BACKBONE|DICT|INTERRES
    51   24   84 1    
    52   25   26 2    
    53   27   28 2    
    54   27   29 am   BACKBONE|DICT|INTERRES
    55   29   30 1    
    56   29   85 1    
    57   30   31 1    
    58   30   32 1    
    59   30   86 1    
    60   31   87 1    
    61   31   88 1    
    62   31   89 1    
    63   32   33 2    
    64   32   34 am   BACKBONE|DICT|INTERRES
    65   34   35 1    
    66   34   90 1    
    67   35   36 1    
    68   35   37 1    
    69   35   91 1    
    70   36   92 1    
    71   36   93 1    
    72   36   94 1    
    73   37   38 2    
    74   37   39 am   BACKBONE|DICT|INTERRES
    75   39   40 1    
    76   39   95 1    
    77   40   41 1    
    78   40   42 1    
    79   40   96 1    
    80   41   97 1    
    81   41   98 1    
    82   41   99 1    
    83   42   43 2    
    84   42   44 am   BACKBONE|DICT|INTERRES
    85   44   45 1    
    86   44  100 1    
    87   45   46 1    
    88   45   47 1    
    89   45  101 1    
    90   46  102 1    
    91   46  103 1    
    92   46  104 1    
    93   47   48 2    
    94   47   49 am   BACKBONE|DICT|INTERRES
    95   49   50 1    
    96   49  105 1    
    97   50   51 1    
    98   50   52 1    
    99   50  106 1    
   100   51  107 1    
   101   51  108 1    
   102   51  109 1    
   103   52   53 2    
   104   52   54 am   BACKBONE|DICT|INTERRES
   105   54   55 1    
   106   54  110 1    
   107   55   56 1    
   108   55   59 1    
   109   55  111 1    
   110   56   57 am   BACKBONE|DICT|INTERRES
   111   56   58 2    
   112   57  112 1    
   113   57  113 1    
   114   59   60 1    
   115   59  114 1    
   116   59  115 1    
   117   60   61 1    
   118   61  116 1    
   119   61  117 1    
@<TRIPOS>SUBSTRUCTURE
     1 UNK         1 GROUP             0       ****    0 ROOT    
