@<TRIPOS>MOLECULE
3R8
117   119    1
SMALL
USER_CHARGES


@<TRIPOS>ATOM
      1 CA         18.8387  -27.4070  -41.4042 C.3       0 UNK        -0.2013 
      2 C          18.3982  -26.7755  -42.7148 C.2       0 UNK         0.4866 
      3 O          19.0912  -26.9100  -43.7232 O.2       0 UNK        -0.5176 
      4 N          17.2598  -26.0692  -42.6963 N.am      1 UNK        -0.4884 
      5 CA         16.6212  -25.4090  -43.8460 C.3       1 UNK         0.0853 
      6 C6         16.0099  -26.4177  -44.8636 C.3       10 UNK        -0.0849 
      7 S7         14.8733  -27.6171  -44.0879 S.3       10 UNK        -0.2776 
      8 C8         15.1376  -29.0974  -45.1198 C.3       10 UNK         0.0316 
      9 C9         16.5515  -29.6537  -45.0020 C.ar      10 UNK        -0.0863 
     10 C10        16.9771  -30.2460  -43.8099 C.ar      10 UNK        -0.1009 
     11 C11        18.2642  -30.7817  -43.6993 C.ar      10 UNK        -0.0712 
     12 C12        19.1308  -30.7165  -44.7965 C.ar      10 UNK        -0.0894 
     13 C13        18.7195  -30.1226  -45.9949 C.ar      10 UNK        -0.0745 
     14 C14        17.4261  -29.5997  -46.0921 C.ar      10 UNK        -0.0972 
     15 C15        19.6560  -30.0808  -47.1974 C.3       10 UNK         0.0209 
     16 S16        20.0566  -28.3829  -47.7277 S.3       10 UNK        -0.2568 
     17 C17        21.1137  -27.8223  -46.3540 C.3       10 UNK        -0.0983 
     18 CA         21.3529  -26.2902  -46.3660 C.3       3 UNK         0.0876 
     19 N          20.1051  -25.5203  -46.3559 N.am      3 UNK        -0.4424 
     20 C          20.0055  -24.2203  -46.6719 C.2       2 UNK         0.4918 
     21 O          20.9621  -23.5303  -47.0255 O.2       2 UNK        -0.4875 
     22 CA         18.6080  -23.5725  -46.6105 C.3       2 UNK         0.0481 
     23 CB         18.0541  -23.3663  -48.0299 C.3       2 UNK        -0.1831 
     24 N          17.6468  -24.3593  -45.8355 N.am      2 UNK        -0.4498 
     25 C          17.5745  -24.3751  -44.4966 C.2       1 UNK         0.5027 
     26 O          18.2371  -23.6256  -43.7748 O.2       1 UNK        -0.4969 
     27 C          22.2580  -25.8856  -45.1886 C.2       3 UNK         0.5005 
     28 O          23.4602  -25.6978  -45.3809 O.2       3 UNK        -0.5279 
     29 N          21.6513  -25.7721  -43.9955 N.am      4 UNK        -0.4463 
     30 CA         22.2685  -25.4676  -42.6977 C.3       4 UNK         0.0283 
     31 CB         22.8421  -24.0357  -42.6810 C.3       4 UNK        -0.1875 
     32 C          23.2965  -26.5276  -42.2519 C.2       4 UNK         0.4949 
     33 O          24.2170  -26.2179  -41.4933 O.2       4 UNK        -0.5039 
     34 N          23.1184  -27.7713  -42.7168 N.am      5 UNK        -0.4663 
     35 CA         24.0073  -28.9105  -42.4868 C.3       5 UNK         0.0242 
     36 CB         23.8064  -29.9238  -43.6301 C.3       5 UNK        -0.1982 
     37 C          23.7857  -29.5367  -41.0988 C.2       5 UNK         0.5017 
     38 O          23.4889  -30.7266  -41.0032 O.2       5 UNK        -0.5012 
     39 N          23.9320  -28.7269  -40.0421 N.am      6 UNK        -0.4439 
     40 CA         23.6375  -29.0583  -38.6410 C.3       6 UNK         0.0297 
     41 CB         23.9308  -27.8292  -37.7660 C.3       6 UNK        -0.2006 
     42 C          24.3562  -30.3015  -38.0785 C.2       6 UNK         0.4892 
     43 O          23.8499  -30.9068  -37.1341 O.2       6 UNK        -0.5089 
     44 N          25.5055  -30.6659  -38.6629 N.am      7 UNK        -0.4243 
     45 CA         26.2471  -31.8883  -38.3450 C.3       7 UNK         0.0196 
     46 CB         27.6931  -31.7392  -38.8459 C.3       7 UNK        -0.2007 
     47 C          25.6075  -33.1626  -38.9311 C.2       7 UNK         0.5020 
     48 O          25.8529  -34.2468  -38.4014 O.2       7 UNK        -0.5147 
     49 N          24.8278  -33.0252  -40.0121 N.am      8 UNK        -0.4734 
     50 CA         24.1538  -34.1246  -40.7067 C.3       8 UNK         0.0238 
     51 CB         24.3345  -33.9520  -42.2243 C.3       8 UNK        -0.1912 
     52 C          22.6612  -34.1872  -40.3525 C.2       8 UNK         0.5038 
     53 O          22.1313  -35.2883  -40.1960 O.2       8 UNK        -0.5046 
     54 N          22.0122  -33.0199  -40.2420 N.am      9 UNK        -0.4200 
     55 CA         20.6024  -32.8650  -39.8574 C.3       9 UNK         0.0839 
     56 C          20.3011  -33.3959  -38.4286 C.2       9 UNK         0.5513 
     57 N          19.1173  -33.9541  -38.2143 N.am      9 UNK        -0.7519 
     58 O          21.1045  -33.2669  -37.5079 O.2       9 UNK        -0.4960 
     59 C59        20.1287  -31.3944  -39.9953 C.3       10 UNK        -0.0876 
     60 S60        20.2101  -30.7555  -41.7026 S.3       10 UNK        -0.2414 
     61 C61        18.6903  -31.4671  -42.4068 C.3       10 UNK         0.0169 
     62 H62        18.5806  -26.7786  -40.5523 H         1 UNK         0.0903 
     63 H63        18.3556  -28.3756  -41.2796 H         1 UNK         0.0903 
     64 H64        19.9172  -27.5628  -41.3960 H         1 UNK         0.0903 
     65 H65        16.7588  -25.9769  -41.8239 H         1 UNK         0.3096 
     66 H66        15.7984  -24.8210  -43.4359 H         1 UNK         0.1121 
     67 H67        15.4403  -25.8954  -45.6344 H         1 UNK         0.0849 
     68 H68        16.8069  -26.9589  -45.3746 H         1 UNK         0.0849 
     69 H69        14.4269  -29.8679  -44.8175 H         1 UNK         0.0865 
     70 H70        14.8988  -28.8564  -46.1569 H         1 UNK         0.0865 
     71 H71        16.2972  -30.2940  -42.9702 H         1 UNK         0.1346 
     72 H72        20.1241  -31.1360  -44.7146 H         1 UNK         0.1412 
     73 H73        17.1045  -29.1497  -47.0215 H         1 UNK         0.1426 
     74 H74        19.1813  -30.6031  -48.0290 H         1 UNK         0.0716 
     75 H75        20.5837  -30.6166  -46.9900 H         1 UNK         0.0716 
     76 H76        20.6550  -28.1356  -45.4151 H         1 UNK         0.0695 
     77 H77        22.0636  -28.3561  -46.4222 H         1 UNK         0.0695 
     78 H78        21.8877  -26.0430  -47.2859 H         1 UNK         0.0983 
     79 H79        19.2847  -26.0171  -46.0400 H         1 UNK         0.3095 
     80 H80        18.7190  -22.5908  -46.1452 H         1 UNK         0.0454 
     81 H81        18.7293  -22.7513  -48.6266 H         1 UNK         0.0851 
     82 H82        17.9262  -24.3126  -48.5570 H         1 UNK         0.0851 
     83 H83        17.0900  -22.8579  -48.0107 H         1 UNK         0.0851 
     84 H84        17.0572  -24.9882  -46.3610 H         1 UNK         0.2976 
     85 H85        20.6615  -26.0181  -43.9586 H         1 UNK         0.3116 
     86 H86        21.4611  -25.5053  -41.9654 H         1 UNK         0.0646 
     87 H87        23.1673  -23.7557  -41.6784 H         1 UNK         0.0847 
     88 H88        22.0949  -23.3062  -42.9934 H         1 UNK         0.0847 
     89 H89        23.7047  -23.9367  -43.3404 H         1 UNK         0.0847 
     90 H90        22.3051  -27.9472  -43.2884 H         1 UNK         0.3040 
     91 H91        25.0426  -28.5641  -42.5245 H         1 UNK         0.1015 
     92 H92        23.9927  -29.4677  -44.6027 H         1 UNK         0.0786 
     93 H93        22.7935  -30.3293  -43.6377 H         1 UNK         0.0786 
     94 H94        24.4945  -30.7643  -43.5323 H         1 UNK         0.0786 
     95 H95        24.1707  -27.7601  -40.2445 H         1 UNK         0.3172 
     96 H96        22.5668  -29.2627  -38.5856 H         1 UNK         0.0595 
     97 H97        23.3363  -26.9692  -38.0750 H         1 UNK         0.0839 
     98 H98        24.9828  -27.5447  -37.8111 H         1 UNK         0.0839 
     99 H99        23.6910  -28.0263  -36.7200 H         1 UNK         0.0839 
    100 H100       25.8546  -30.1007  -39.4229 H         1 UNK         0.2998 
    101 H101       26.2733  -32.0047  -37.2592 H         1 UNK         0.0822 
    102 H102       28.1862  -30.8818  -38.3873 H         1 UNK         0.0787 
    103 H103       28.2846  -32.6218  -38.5977 H         1 UNK         0.0787 
    104 H104       27.7350  -31.6133  -39.9286 H         1 UNK         0.0787 
    105 H105       24.6125  -32.0903  -40.3471 H         1 UNK         0.3055 
    106 H106       24.6009  -35.0796  -40.4214 H         1 UNK         0.1106 
    107 H107       23.8856  -33.0253  -42.5838 H         1 UNK         0.0828 
    108 H108       25.3893  -33.9422  -42.4991 H         1 UNK         0.0828 
    109 H109       23.8653  -34.7730  -42.7681 H         1 UNK         0.0828 
    110 H110       22.5171  -32.1591  -40.4362 H         1 UNK         0.2931 
    111 H111       20.0240  -33.4706  -40.5579 H         1 UNK         0.0412 
    112 H112       18.8948  -34.2909  -37.2902 H         1 UNK         0.3472 
    113 H113       18.4462  -34.0593  -38.9595 H         1 UNK         0.3472 
    114 H114       20.7385  -30.7454  -39.3646 H         1 UNK         0.0970 
    115 H115       19.1049  -31.2787  -39.6344 H         1 UNK         0.0970 
    116 H116       17.8912  -31.4040  -41.6670 H         1 UNK         0.0612 
    117 H117       18.8509  -32.5280  -42.6017 H         1 UNK         0.0612 
@<TRIPOS>BOND
     1    1    2 1    
     2    1   62 1    
     3    1   63 1    
     4    1   64 1    
     5    2    3 2    
     6    2    4 am   BACKBONE|DICT|INTERRES
     7    4    5 1    
     8    4   65 1    
     9    5    6 1    
    10    5   25 1    
    11    5   66 1    
    12    6    7 1    
    13    6   67 1    
    14    6   68 1    
    15    7    8 1    
    16    8    9 1    
    17    8   69 1    
    18    8   70 1    
    19    9   10 ar   
    20    9   14 ar   
    21   10   11 ar   
    22   10   71 1    
    23   11   12 ar   
    24   11   61 1    
    25   12   13 ar   
    26   12   72 1    
    27   13   14 ar   
    28   13   15 1    
    29   14   73 1    
    30   15   16 1    
    31   15   74 1    
    32   15   75 1    
    33   16   17 1    
    34   17   18 1    
    35   17   76 1    
    36   17   77 1    
    37   18   19 1    
    38   18   27 1    
    39   18   78 1    
    40   19   20 am   BACKBONE|DICT|INTERRES
    41   19   79 1    
    42   20   21 2    
    43   20   22 1    
    44   22   23 1    
    45   22   24 1    
    46   22   80 1    
    47   23   81 1    
    48   23   82 1    
    49   23   83 1    
    50   24   25 am   BACKBONE|DICT|INTERRES
    51   24   84 1    
    52   25   26 2    
    53   27   28 2    
    54   27   29 am   BACKBONE|DICT|INTERRES
    55   29   30 1    
    56   29   85 1    
    57   30   31 1    
    58   30   32 1    
    59   30   86 1    
    60   31   87 1    
    61   31   88 1    
    62   31   89 1    
    63   32   33 2    
    64   32   34 am   BACKBONE|DICT|INTERRES
    65   34   35 1    
    66   34   90 1    
    67   35   36 1    
    68   35   37 1    
    69   35   91 1    
    70   36   92 1    
    71   36   93 1    
    72   36   94 1    
    73   37   38 2    
    74   37   39 am   BACKBONE|DICT|INTERRES
    75   39   40 1    
    76   39   95 1    
    77   40   41 1    
    78   40   42 1    
    79   40   96 1    
    80   41   97 1    
    81   41   98 1    
    82   41   99 1    
    83   42   43 2    
    84   42   44 am   BACKBONE|DICT|INTERRES
    85   44   45 1    
    86   44  100 1    
    87   45   46 1    
    88   45   47 1    
    89   45  101 1    
    90   46  102 1    
    91   46  103 1    
    92   46  104 1    
    93   47   48 2    
    94   47   49 am   BACKBONE|DICT|INTERRES
    95   49   50 1    
    96   49  105 1    
    97   50   51 1    
    98   50   52 1    
    99   50  106 1    
   100   51  107 1    
   101   51  108 1    
   102   51  109 1    
   103   52   53 2    
   104   52   54 am   BACKBONE|DICT|INTERRES
   105   54   55 1    
   106   54  110 1    
   107   55   56 1    
   108   55   59 1    
   109   55  111 1    
   110   56   57 am   BACKBONE|DICT|INTERRES
   111   56   58 2    
   112   57  112 1    
   113   57  113 1    
   114   59   60 1    
   115   59  114 1    
   116   59  115 1    
   117   60   61 1    
   118   61  116 1    
   119   61  117 1    
@<TRIPOS>SUBSTRUCTURE
     1 UNK         1 GROUP             0       ****    0 ROOT    
