@<TRIPOS>MOLECULE
3R8
117   119    1
SMALL
USER_CHARGES


@<TRIPOS>ATOM
      1 CA         13.6884  -25.2314  -43.4939 C.3       0 UNK        -0.2013 
      2 C          14.8662  -24.4649  -44.0763 C.2       0 UNK         0.4866 
      3 O          14.7914  -23.2452  -44.2239 O.2       0 UNK        -0.5176 
      4 N          15.9588  -25.1692  -44.4012 N.am      1 UNK        -0.4884 
      5 CA         17.1812  -24.6012  -44.9901 C.3       1 UNK         0.0853 
      6 C6         17.8949  -25.6408  -45.9034 C.3       10 UNK        -0.0849 
      7 S7         18.9715  -26.8489  -45.0520 S.3       10 UNK        -0.2776 
      8 C8         17.8948  -28.2995  -44.8336 C.3       10 UNK         0.0316 
      9 C9         18.6142  -29.2993  -43.9455 C.ar      10 UNK        -0.0863 
     10 C10        19.4600  -30.2578  -44.5105 C.ar      10 UNK        -0.1009 
     11 C11        20.2486  -31.0726  -43.6946 C.ar      10 UNK        -0.0712 
     12 C12        20.1884  -30.9165  -42.3068 C.ar      10 UNK        -0.0894 
     13 C13        19.3380  -29.9716  -41.7268 C.ar      10 UNK        -0.0745 
     14 C14        18.5183  -29.1952  -42.5539 C.ar      10 UNK        -0.0972 
     15 C15        19.3452  -29.7807  -40.2122 C.3       10 UNK         0.0209 
     16 S16        19.4157  -28.0311  -39.6844 S.3       10 UNK        -0.2568 
     17 C17        21.0035  -27.4349  -40.3743 C.3       10 UNK        -0.0983 
     18 CA         20.8408  -26.7538  -41.7616 C.3       3 UNK         0.0876 
     19 N          19.7830  -25.7364  -41.8110 N.am      3 UNK        -0.4424 
     20 C          19.7823  -24.5295  -41.2273 C.2       2 UNK         0.4918 
     21 O          20.7025  -24.1022  -40.5290 O.2       2 UNK        -0.4875 
     22 CA         18.5285  -23.6581  -41.4591 C.3       2 UNK         0.0481 
     23 CB         18.8472  -22.1478  -41.4609 C.3       2 UNK        -0.1831 
     24 N          17.7548  -24.0464  -42.6492 N.am      2 UNK        -0.4498 
     25 C          18.1238  -23.9602  -43.9392 C.2       1 UNK         0.5027 
     26 O          19.1837  -23.4557  -44.3122 O.2       1 UNK        -0.4969 
     27 C          22.1596  -26.2488  -42.3832 C.2       3 UNK         0.5005 
     28 O          23.2473  -26.5436  -41.8839 O.2       3 UNK        -0.5279 
     29 N          22.0301  -25.5052  -43.4943 N.am      4 UNK        -0.4463 
     30 CA         23.1353  -25.0082  -44.3187 C.3       4 UNK         0.0283 
     31 CB         22.5817  -24.0152  -45.3525 C.3       4 UNK        -0.1875 
     32 C          23.9193  -26.1337  -45.0183 C.2       4 UNK         0.4949 
     33 O          25.1044  -25.9626  -45.3001 O.2       4 UNK        -0.5039 
     34 N          23.2593  -27.2772  -45.2440 N.am      5 UNK        -0.4663 
     35 CA         23.8326  -28.5121  -45.7855 C.3       5 UNK         0.0242 
     36 CB         22.7573  -29.2077  -46.6404 C.3       5 UNK        -0.1982 
     37 C          24.4028  -29.4342  -44.6830 C.2       5 UNK         0.5017 
     38 O          24.4038  -30.6533  -44.8594 O.2       5 UNK        -0.5012 
     39 N          24.8831  -28.8295  -43.5846 N.am      6 UNK        -0.4439 
     40 CA         25.3931  -29.4179  -42.3386 C.3       6 UNK         0.0297 
     41 CB         26.4763  -30.4868  -42.5963 C.3       6 UNK        -0.2006 
     42 C          24.2709  -29.9464  -41.4281 C.2       6 UNK         0.4892 
     43 O          23.1442  -30.1574  -41.8744 O.2       6 UNK        -0.5089 
     44 N          24.6028  -30.1268  -40.1438 N.am      7 UNK        -0.4243 
     45 CA         23.6909  -30.6130  -39.1061 C.3       7 UNK         0.0196 
     46 CB         24.3270  -30.3568  -37.7297 C.3       7 UNK        -0.2007 
     47 C          23.3486  -32.1040  -39.2686 C.2       7 UNK         0.5020 
     48 O          24.1135  -32.8538  -39.8798 O.2       7 UNK        -0.5147 
     49 N          22.2112  -32.5058  -38.6834 N.am      8 UNK        -0.4734 
     50 CA         21.6490  -33.8645  -38.5740 C.3       8 UNK         0.0238 
     51 CB         22.5975  -34.7993  -37.7974 C.3       8 UNK        -0.1912 
     52 C          21.2012  -34.5180  -39.8958 C.2       8 UNK         0.5038 
     53 O          20.1861  -35.2148  -39.8967 O.2       8 UNK        -0.5046 
     54 N          21.9410  -34.2834  -40.9851 N.am      9 UNK        -0.4200 
     55 CA         21.7052  -34.8179  -42.3362 C.3       9 UNK         0.0839 
     56 C          21.9777  -36.3453  -42.4944 C.2       9 UNK         0.5513 
     57 N          22.6729  -36.9903  -41.5648 N.am      9 UNK        -0.7519 
     58 O          21.5815  -36.9539  -43.4851 O.2       9 UNK        -0.4960 
     59 C59        20.3326  -34.3625  -42.9255 C.3       10 UNK        -0.0876 
     60 S60        20.4709  -33.6972  -44.6177 S.3       10 UNK        -0.2414 
     61 C61        21.2228  -32.0655  -44.3133 C.3       10 UNK         0.0169 
     62 H62        13.8954  -26.2981  -43.4096 H         1 UNK         0.0903 
     63 H63        13.4481  -24.8531  -42.5006 H         1 UNK         0.0903 
     64 H64        12.8104  -25.1062  -44.1270 H         1 UNK         0.0903 
     65 H65        15.9630  -26.1685  -44.2592 H         1 UNK         0.3096 
     66 H66        16.8770  -23.7770  -45.6399 H         1 UNK         0.1121 
     67 H67        17.1696  -26.1702  -46.5236 H         1 UNK         0.0849 
     68 H68        18.5321  -25.1057  -46.6099 H         1 UNK         0.0849 
     69 H69        17.6617  -28.7396  -45.8045 H         1 UNK         0.0865 
     70 H70        16.9468  -28.0069  -44.3816 H         1 UNK         0.0865 
     71 H71        19.5399  -30.3383  -45.5860 H         1 UNK         0.1346 
     72 H72        20.8359  -31.5129  -41.6790 H         1 UNK         0.1412 
     73 H73        17.8695  -28.4501  -42.1147 H         1 UNK         0.1426 
     74 H74        20.1867  -30.3088  -39.7618 H         1 UNK         0.0716 
     75 H75        18.4419  -30.2330  -39.8015 H         1 UNK         0.0716 
     76 H76        21.6956  -28.2750  -40.4430 H         1 UNK         0.0695 
     77 H77        21.4406  -26.7357  -39.6598 H         1 UNK         0.0695 
     78 H78        20.5316  -27.5328  -42.4547 H         1 UNK         0.0983 
     79 H79        18.9754  -25.9836  -42.3628 H         1 UNK         0.3095 
     80 H80        17.8745  -23.8497  -40.6074 H         1 UNK         0.0454 
     81 H81        17.9511  -21.5524  -41.6346 H         1 UNK         0.0851 
     82 H82        19.5788  -21.8865  -42.2259 H         1 UNK         0.0851 
     83 H83        19.2605  -21.8351  -40.5013 H         1 UNK         0.0851 
     84 H84        16.8578  -24.4736  -42.4643 H         1 UNK         0.2976 
     85 H85        21.0963  -25.2841  -43.8149 H         1 UNK         0.3116 
     86 H86        23.8299  -24.4764  -43.6652 H         1 UNK         0.0646 
     87 H87        23.3824  -23.6070  -45.9708 H         1 UNK         0.0847 
     88 H88        22.0858  -23.1734  -44.8685 H         1 UNK         0.0847 
     89 H89        21.8604  -24.4874  -46.0210 H         1 UNK         0.0847 
     90 H90        22.2915  -27.3251  -44.9588 H         1 UNK         0.3040 
     91 H91        24.6690  -28.2629  -46.4424 H         1 UNK         0.1015 
     92 H92        22.4274  -28.5660  -47.4575 H         1 UNK         0.0786 
     93 H93        21.8812  -29.4643  -46.0458 H         1 UNK         0.0786 
     94 H94        23.1353  -30.1275  -47.0886 H         1 UNK         0.0786 
     95 H95        24.7728  -27.8252  -43.5501 H         1 UNK         0.3172 
     96 H96        25.8646  -28.5890  -41.8083 H         1 UNK         0.0595 
     97 H97        26.0540  -31.4040  -43.0079 H         1 UNK         0.0839 
     98 H98        26.9846  -30.7601  -41.6711 H         1 UNK         0.0839 
     99 H99        27.2375  -30.1257  -43.2878 H         1 UNK         0.0839 
    100 H100       25.5577  -29.9619  -39.8615 H         1 UNK         0.2998 
    101 H101       22.7649  -30.0387  -39.1748 H         1 UNK         0.0822 
    102 H102       25.2626  -30.9049  -37.6099 H         1 UNK         0.0787 
    103 H103       24.5363  -29.2972  -37.5800 H         1 UNK         0.0787 
    104 H104       23.6623  -30.6692  -36.9231 H         1 UNK         0.0787 
    105 H105       21.6617  -31.7953  -38.2192 H         1 UNK         0.3055 
    106 H106       20.7431  -33.7561  -37.9745 H         1 UNK         0.1106 
    107 H107       22.1365  -35.7747  -37.6354 H         1 UNK         0.0828 
    108 H108       23.5334  -34.9695  -38.3303 H         1 UNK         0.0828 
    109 H109       22.8407  -34.3909  -36.8166 H         1 UNK         0.0828 
    110 H110       22.7901  -33.7387  -40.8562 H         1 UNK         0.2931 
    111 H111       22.4996  -34.3576  -42.9235 H         1 UNK         0.0412 
    112 H112       23.0203  -36.5017  -40.7553 H         1 UNK         0.3472 
    113 H113       22.8542  -37.9755  -41.6780 H         1 UNK         0.3472 
    114 H114       19.6131  -35.1833  -42.9328 H         1 UNK         0.0970 
    115 H115       19.8625  -33.6021  -42.3038 H         1 UNK         0.0970 
    116 H116       22.1050  -32.1704  -43.6801 H         1 UNK         0.0612 
    117 H117       21.5888  -31.6782  -45.2642 H         1 UNK         0.0612 
@<TRIPOS>BOND
     1    1    2 1    
     2    1   62 1    
     3    1   63 1    
     4    1   64 1    
     5    2    3 2    
     6    2    4 am   BACKBONE|DICT|INTERRES
     7    4    5 1    
     8    4   65 1    
     9    5    6 1    
    10    5   25 1    
    11    5   66 1    
    12    6    7 1    
    13    6   67 1    
    14    6   68 1    
    15    7    8 1    
    16    8    9 1    
    17    8   69 1    
    18    8   70 1    
    19    9   10 ar   
    20    9   14 ar   
    21   10   11 ar   
    22   10   71 1    
    23   11   12 ar   
    24   11   61 1    
    25   12   13 ar   
    26   12   72 1    
    27   13   14 ar   
    28   13   15 1    
    29   14   73 1    
    30   15   16 1    
    31   15   74 1    
    32   15   75 1    
    33   16   17 1    
    34   17   18 1    
    35   17   76 1    
    36   17   77 1    
    37   18   19 1    
    38   18   27 1    
    39   18   78 1    
    40   19   20 am   BACKBONE|DICT|INTERRES
    41   19   79 1    
    42   20   21 2    
    43   20   22 1    
    44   22   23 1    
    45   22   24 1    
    46   22   80 1    
    47   23   81 1    
    48   23   82 1    
    49   23   83 1    
    50   24   25 am   BACKBONE|DICT|INTERRES
    51   24   84 1    
    52   25   26 2    
    53   27   28 2    
    54   27   29 am   BACKBONE|DICT|INTERRES
    55   29   30 1    
    56   29   85 1    
    57   30   31 1    
    58   30   32 1    
    59   30   86 1    
    60   31   87 1    
    61   31   88 1    
    62   31   89 1    
    63   32   33 2    
    64   32   34 am   BACKBONE|DICT|INTERRES
    65   34   35 1    
    66   34   90 1    
    67   35   36 1    
    68   35   37 1    
    69   35   91 1    
    70   36   92 1    
    71   36   93 1    
    72   36   94 1    
    73   37   38 2    
    74   37   39 am   BACKBONE|DICT|INTERRES
    75   39   40 1    
    76   39   95 1    
    77   40   41 1    
    78   40   42 1    
    79   40   96 1    
    80   41   97 1    
    81   41   98 1    
    82   41   99 1    
    83   42   43 2    
    84   42   44 am   BACKBONE|DICT|INTERRES
    85   44   45 1    
    86   44  100 1    
    87   45   46 1    
    88   45   47 1    
    89   45  101 1    
    90   46  102 1    
    91   46  103 1    
    92   46  104 1    
    93   47   48 2    
    94   47   49 am   BACKBONE|DICT|INTERRES
    95   49   50 1    
    96   49  105 1    
    97   50   51 1    
    98   50   52 1    
    99   50  106 1    
   100   51  107 1    
   101   51  108 1    
   102   51  109 1    
   103   52   53 2    
   104   52   54 am   BACKBONE|DICT|INTERRES
   105   54   55 1    
   106   54  110 1    
   107   55   56 1    
   108   55   59 1    
   109   55  111 1    
   110   56   57 am   BACKBONE|DICT|INTERRES
   111   56   58 2    
   112   57  112 1    
   113   57  113 1    
   114   59   60 1    
   115   59  114 1    
   116   59  115 1    
   117   60   61 1    
   118   61  116 1    
   119   61  117 1    
@<TRIPOS>SUBSTRUCTURE
     1 UNK         1 GROUP             0       ****    0 ROOT    
