@<TRIPOS>MOLECULE
3R8
117   119    1
SMALL
USER_CHARGES


@<TRIPOS>ATOM
      1 CA         12.3857  -27.1863  -40.4607 C.3       0 UNK        -0.2013 
      2 C          13.2323  -26.7303  -41.6398 C.2       0 UNK         0.4866 
      3 O          12.8763  -25.7622  -42.3121 O.2       0 UNK        -0.5176 
      4 N          14.3491  -27.4179  -41.8955 N.am      1 UNK        -0.4884 
      5 CA         15.3061  -27.1192  -42.9581 C.3       1 UNK         0.0853 
      6 C6         14.8563  -27.7176  -44.3154 C.3       10 UNK        -0.0849 
      7 S7         15.7094  -26.9740  -45.7478 S.3       10 UNK        -0.2776 
      8 C8         16.2701  -28.4480  -46.6612 C.3       10 UNK         0.0316 
      9 C9         17.6373  -28.9248  -46.1922 C.ar      10 UNK        -0.0863 
     10 C10        17.7540  -29.8052  -45.1135 C.ar      10 UNK        -0.1009 
     11 C11        19.0107  -30.2446  -44.6867 C.ar      10 UNK        -0.0712 
     12 C12        20.1589  -29.8152  -45.3615 C.ar      10 UNK        -0.0894 
     13 C13        20.0522  -28.9516  -46.4567 C.ar      10 UNK        -0.0745 
     14 C14        18.7906  -28.5032  -46.8592 C.ar      10 UNK        -0.0972 
     15 C15        21.2847  -28.5295  -47.2423 C.3       10 UNK         0.0209 
     16 S16        21.7774  -26.8150  -46.8793 S.3       10 UNK        -0.2568 
     17 C17        22.9146  -27.0263  -45.4725 C.3       10 UNK        -0.0983 
     18 CA         22.4276  -26.2902  -44.2011 C.3       3 UNK         0.0876 
     19 N          21.2993  -26.9655  -43.5675 N.am      3 UNK        -0.4424 
     20 C          20.0609  -26.4832  -43.4542 C.2       2 UNK         0.4918 
     21 O          19.6598  -25.4466  -43.9901 O.2       2 UNK        -0.4875 
     22 CA         19.1297  -27.2737  -42.5290 C.3       2 UNK         0.0481 
     23 CB         19.4316  -26.9594  -41.0503 C.3       2 UNK        -0.1831 
     24 N          17.7464  -26.9414  -42.8516 N.am      2 UNK        -0.4498 
     25 C          16.6721  -27.6513  -42.4956 C.2       1 UNK         0.5027 
     26 O          16.7209  -28.6870  -41.8244 O.2       1 UNK        -0.4969 
     27 C          23.5458  -26.2731  -43.1508 C.2       3 UNK         0.5005 
     28 O          23.6816  -27.2496  -42.4082 O.2       3 UNK        -0.5279 
     29 N          24.3564  -25.2063  -43.1256 N.am      4 UNK        -0.4463 
     30 CA         25.4500  -25.0119  -42.1622 C.3       4 UNK         0.0283 
     31 CB         26.0730  -23.6219  -42.3679 C.3       4 UNK        -0.1875 
     32 C          26.5397  -26.0997  -42.2084 C.2       4 UNK         0.4949 
     33 O          27.1333  -26.4035  -41.1742 O.2       4 UNK        -0.5039 
     34 N          26.7641  -26.6802  -43.3954 N.am      5 UNK        -0.4663 
     35 CA         27.6822  -27.8020  -43.6084 C.3       5 UNK         0.0242 
     36 CB         28.0129  -27.9016  -45.1066 C.3       5 UNK        -0.1982 
     37 C          27.1326  -29.1447  -43.0911 C.2       5 UNK         0.5017 
     38 O          27.9266  -30.0281  -42.7660 O.2       5 UNK        -0.5012 
     39 N          25.8002  -29.2813  -43.0370 N.am      6 UNK        -0.4439 
     40 CA         25.1057  -30.4747  -42.5500 C.3       6 UNK         0.0297 
     41 CB         23.7920  -30.6594  -43.3313 C.3       6 UNK        -0.2006 
     42 C          24.8173  -30.3914  -41.0440 C.2       6 UNK         0.4892 
     43 O          24.8662  -31.4179  -40.3670 O.2       6 UNK        -0.5089 
     44 N          24.4874  -29.1839  -40.5610 N.am      7 UNK        -0.4243 
     45 CA         24.0130  -28.8164  -39.2206 C.3       7 UNK         0.0196 
     46 CB         24.9905  -29.2413  -38.1071 C.3       7 UNK        -0.2007 
     47 C          22.5789  -29.3003  -38.9479 C.2       7 UNK         0.5020 
     48 O          21.7318  -28.4904  -38.5719 O.2       7 UNK        -0.5147 
     49 N          22.3178  -30.5897  -39.1793 N.am      8 UNK        -0.4734 
     50 CA         21.0014  -31.2165  -39.1418 C.3       8 UNK         0.0238 
     51 CB         20.5972  -31.5331  -37.6902 C.3       8 UNK        -0.1912 
     52 C          21.0521  -32.4926  -39.9882 C.2       8 UNK         0.5038 
     53 O          22.0647  -33.1960  -39.9621 O.2       8 UNK        -0.5046 
     54 N          19.9601  -32.7766  -40.7037 N.am      9 UNK        -0.4200 
     55 CA         19.7669  -34.0221  -41.4587 C.3       9 UNK         0.0839 
     56 C          19.3562  -35.1857  -40.5167 C.2       9 UNK         0.5513 
     57 N          19.7755  -36.4059  -40.8208 N.am      9 UNK        -0.7519 
     58 O          18.6311  -34.9990  -39.5411 O.2       9 UNK        -0.4960 
     59 C59        18.7291  -33.8341  -42.5950 C.3       10 UNK        -0.0876 
     60 S60        19.3931  -32.8913  -44.0096 S.3       10 UNK        -0.2414 
     61 C61        19.1190  -31.1724  -43.4873 C.3       10 UNK         0.0169 
     62 H62        12.8163  -28.0537  -39.9606 H         1 UNK         0.0903 
     63 H63        12.2965  -26.3830  -39.7297 H         1 UNK         0.0903 
     64 H64        11.3845  -27.4525  -40.7985 H         1 UNK         0.0903 
     65 H65        14.6353  -28.1862  -41.2993 H         1 UNK         0.3096 
     66 H66        15.3802  -26.0327  -43.0502 H         1 UNK         0.1121 
     67 H67        14.9604  -28.8034  -44.3150 H         1 UNK         0.0849 
     68 H68        13.7918  -27.5305  -44.4649 H         1 UNK         0.0849 
     69 H69        15.5355  -29.2504  -46.5772 H         1 UNK         0.0865 
     70 H70        16.3126  -28.1990  -47.7227 H         1 UNK         0.0865 
     71 H71        16.8671  -30.1435  -44.5965 H         1 UNK         0.1346 
     72 H72        21.1306  -30.1659  -45.0426 H         1 UNK         0.1412 
     73 H73        18.7087  -27.8304  -47.7023 H         1 UNK         0.1426 
     74 H74        22.1178  -29.2109  -47.0641 H         1 UNK         0.0716 
     75 H75        21.0649  -28.6041  -48.3084 H         1 UNK         0.0716 
     76 H76        23.0710  -28.0872  -45.2684 H         1 UNK         0.0695 
     77 H77        23.8818  -26.6370  -45.7968 H         1 UNK         0.0695 
     78 H78        22.1688  -25.2577  -44.4471 H         1 UNK         0.0983 
     79 H79        21.5649  -27.7710  -43.0186 H         1 UNK         0.3095 
     80 H80        19.2896  -28.3370  -42.7074 H         1 UNK         0.0454 
     81 H81        19.2526  -25.9089  -40.8187 H         1 UNK         0.0851 
     82 H82        18.8178  -27.5593  -40.3786 H         1 UNK         0.0851 
     83 H83        20.4723  -27.1746  -40.8039 H         1 UNK         0.0851 
     84 H84        17.6472  -26.1320  -43.4531 H         1 UNK         0.2976 
     85 H85        24.1941  -24.4532  -43.7799 H         1 UNK         0.3116 
     86 H86        25.0106  -25.0416  -41.1627 H         1 UNK         0.0646 
     87 H87        26.8728  -23.4424  -41.6477 H         1 UNK         0.0847 
     88 H88        25.3359  -22.8305  -42.2313 H         1 UNK         0.0847 
     89 H89        26.5033  -23.5141  -43.3643 H         1 UNK         0.0847 
     90 H90        26.2494  -26.3471  -44.1976 H         1 UNK         0.3040 
     91 H91        28.6088  -27.5987  -43.0662 H         1 UNK         0.1015 
     92 H92        28.4718  -26.9833  -45.4738 H         1 UNK         0.0786 
     93 H93        27.1228  -28.0970  -45.7062 H         1 UNK         0.0786 
     94 H94        28.7180  -28.7120  -45.2972 H         1 UNK         0.0786 
     95 H95        25.2257  -28.4766  -43.2508 H         1 UNK         0.3172 
     96 H96        25.7258  -31.3564  -42.7255 H         1 UNK         0.0595 
     97 H97        23.2679  -31.5587  -43.0034 H         1 UNK         0.0839 
     98 H98        23.9779  -30.7657  -44.4001 H         1 UNK         0.0839 
     99 H99        23.1111  -29.8197  -43.1909 H         1 UNK         0.0839 
    100 H100       24.3907  -28.4338  -41.2434 H         1 UNK         0.2998 
    101 H101       23.9793  -27.7254  -39.2212 H         1 UNK         0.0822 
    102 H102       25.9961  -28.8683  -38.3014 H         1 UNK         0.0787 
    103 H103       24.6747  -28.8390  -37.1438 H         1 UNK         0.0787 
    104 H104       25.0487  -30.3244  -37.9984 H         1 UNK         0.0787 
    105 H105       23.0741  -31.1876  -39.5084 H         1 UNK         0.3055 
    106 H106       20.2730  -30.5297  -39.5798 H         1 UNK         0.1106 
    107 H107       19.6259  -32.0283  -37.6537 H         1 UNK         0.0828 
    108 H108       21.3191  -32.1936  -37.2081 H         1 UNK         0.0828 
    109 H109       20.5203  -30.6264  -37.0901 H         1 UNK         0.0828 
    110 H110       19.1500  -32.1812  -40.6220 H         1 UNK         0.2931 
    111 H111       20.7205  -34.2940  -41.9174 H         1 UNK         0.0412 
    112 H112       19.5077  -37.1785  -40.2306 H         1 UNK         0.3472 
    113 H113       20.3631  -36.5701  -41.6240 H         1 UNK         0.3472 
    114 H114       17.8129  -33.3701  -42.2254 H         1 UNK         0.0970 
    115 H115       18.4247  -34.8037  -42.9946 H         1 UNK         0.0970 
    116 H116       19.9443  -30.8550  -42.8485 H         1 UNK         0.0612 
    117 H117       18.2142  -31.1051  -42.8810 H         1 UNK         0.0612 
@<TRIPOS>BOND
     1    1    2 1    
     2    1   62 1    
     3    1   63 1    
     4    1   64 1    
     5    2    3 2    
     6    2    4 am   BACKBONE|DICT|INTERRES
     7    4    5 1    
     8    4   65 1    
     9    5    6 1    
    10    5   25 1    
    11    5   66 1    
    12    6    7 1    
    13    6   67 1    
    14    6   68 1    
    15    7    8 1    
    16    8    9 1    
    17    8   69 1    
    18    8   70 1    
    19    9   10 ar   
    20    9   14 ar   
    21   10   11 ar   
    22   10   71 1    
    23   11   12 ar   
    24   11   61 1    
    25   12   13 ar   
    26   12   72 1    
    27   13   14 ar   
    28   13   15 1    
    29   14   73 1    
    30   15   16 1    
    31   15   74 1    
    32   15   75 1    
    33   16   17 1    
    34   17   18 1    
    35   17   76 1    
    36   17   77 1    
    37   18   19 1    
    38   18   27 1    
    39   18   78 1    
    40   19   20 am   BACKBONE|DICT|INTERRES
    41   19   79 1    
    42   20   21 2    
    43   20   22 1    
    44   22   23 1    
    45   22   24 1    
    46   22   80 1    
    47   23   81 1    
    48   23   82 1    
    49   23   83 1    
    50   24   25 am   BACKBONE|DICT|INTERRES
    51   24   84 1    
    52   25   26 2    
    53   27   28 2    
    54   27   29 am   BACKBONE|DICT|INTERRES
    55   29   30 1    
    56   29   85 1    
    57   30   31 1    
    58   30   32 1    
    59   30   86 1    
    60   31   87 1    
    61   31   88 1    
    62   31   89 1    
    63   32   33 2    
    64   32   34 am   BACKBONE|DICT|INTERRES
    65   34   35 1    
    66   34   90 1    
    67   35   36 1    
    68   35   37 1    
    69   35   91 1    
    70   36   92 1    
    71   36   93 1    
    72   36   94 1    
    73   37   38 2    
    74   37   39 am   BACKBONE|DICT|INTERRES
    75   39   40 1    
    76   39   95 1    
    77   40   41 1    
    78   40   42 1    
    79   40   96 1    
    80   41   97 1    
    81   41   98 1    
    82   41   99 1    
    83   42   43 2    
    84   42   44 am   BACKBONE|DICT|INTERRES
    85   44   45 1    
    86   44  100 1    
    87   45   46 1    
    88   45   47 1    
    89   45  101 1    
    90   46  102 1    
    91   46  103 1    
    92   46  104 1    
    93   47   48 2    
    94   47   49 am   BACKBONE|DICT|INTERRES
    95   49   50 1    
    96   49  105 1    
    97   50   51 1    
    98   50   52 1    
    99   50  106 1    
   100   51  107 1    
   101   51  108 1    
   102   51  109 1    
   103   52   53 2    
   104   52   54 am   BACKBONE|DICT|INTERRES
   105   54   55 1    
   106   54  110 1    
   107   55   56 1    
   108   55   59 1    
   109   55  111 1    
   110   56   57 am   BACKBONE|DICT|INTERRES
   111   56   58 2    
   112   57  112 1    
   113   57  113 1    
   114   59   60 1    
   115   59  114 1    
   116   59  115 1    
   117   60   61 1    
   118   61  116 1    
   119   61  117 1    
@<TRIPOS>SUBSTRUCTURE
     1 UNK         1 GROUP             0       ****    0 ROOT    
