@<TRIPOS>MOLECULE
3R8
117   119    1
SMALL
USER_CHARGES


@<TRIPOS>ATOM
      1 CA         22.8049  -24.1790  -46.2384 C.3       0 UNK        -0.2013 
      2 C          21.7033  -24.3513  -47.2825 C.2       0 UNK         0.4866 
      3 O          21.7313  -23.6710  -48.3063 O.2       0 UNK        -0.5176 
      4 N          20.7283  -25.2496  -47.0867 N.am      1 UNK        -0.4884 
      5 CA         20.5139  -26.0703  -45.8904 C.3       1 UNK         0.0853 
      6 C6         19.5319  -27.2389  -46.1597 C.3       10 UNK        -0.0849 
      7 S7         20.1419  -28.4443  -47.3783 S.3       10 UNK        -0.2776 
      8 C8         18.6580  -29.4848  -47.5883 C.3       10 UNK         0.0316 
      9 C9         18.3088  -30.2590  -46.3223 C.ar      10 UNK        -0.0863 
     10 C10        19.0017  -31.4310  -46.0065 C.ar      10 UNK        -0.1009 
     11 C11        18.6874  -32.1534  -44.8517 C.ar      10 UNK        -0.0712 
     12 C12        17.6726  -31.6955  -44.0060 C.ar      10 UNK        -0.0894 
     13 C13        16.9603  -30.5335  -44.3172 C.ar      10 UNK        -0.0745 
     14 C14        17.2822  -29.8202  -45.4777 C.ar      10 UNK        -0.0972 
     15 C15        15.8181  -30.0713  -43.4209 C.3       10 UNK         0.0209 
     16 S16        16.2079  -28.5344  -42.5258 S.3       10 UNK        -0.2568 
     17 C17        17.3779  -29.1032  -41.2429 C.3       10 UNK        -0.0983 
     18 CA         18.8576  -28.9492  -41.6850 C.3       3 UNK         0.0876 
     19 N          19.1902  -27.5995  -42.1465 N.am      3 UNK        -0.4424 
     20 C          19.3379  -26.4686  -41.4378 C.2       2 UNK         0.4918 
     21 O          19.2397  -26.4001  -40.2118 O.2       2 UNK        -0.4875 
     22 CA         19.6637  -25.2047  -42.2616 C.3       2 UNK         0.0481 
     23 CB         20.5121  -24.1698  -41.5013 C.3       2 UNK        -0.1831 
     24 N          20.3389  -25.5866  -43.5048 N.am      2 UNK        -0.4498 
     25 C          19.9490  -25.2255  -44.7320 C.2       1 UNK         0.5027 
     26 O          19.1219  -24.3410  -44.9638 O.2       1 UNK        -0.4969 
     27 C          19.8773  -29.4596  -40.6497 C.2       3 UNK         0.5005 
     28 O          20.9114  -29.9998  -41.0431 O.2       3 UNK        -0.5279 
     29 N          19.5940  -29.2613  -39.3546 N.am      4 UNK        -0.4463 
     30 CA         20.4688  -29.6286  -38.2374 C.3       4 UNK         0.0283 
     31 CB         19.6920  -29.4812  -36.9197 C.3       4 UNK        -0.1875 
     32 C          21.7799  -28.8213  -38.1822 C.2       4 UNK         0.4949 
     33 O          22.7424  -29.2908  -37.5752 O.2       4 UNK        -0.5039 
     34 N          21.8034  -27.6453  -38.8196 N.am      5 UNK        -0.4663 
     35 CA         22.9919  -26.8230  -39.0313 C.3       5 UNK         0.0242 
     36 CB         22.7132  -25.4102  -38.4935 C.3       5 UNK        -0.1982 
     37 C          23.3164  -26.7803  -40.5310 C.2       5 UNK         0.5017 
     38 O          22.4339  -27.0246  -41.3585 O.2       5 UNK        -0.5012 
     39 N          24.5735  -26.4542  -40.8604 N.am      6 UNK        -0.4439 
     40 CA         25.1561  -26.3163  -42.2053 C.3       6 UNK         0.0297 
     41 CB         24.4795  -25.1816  -43.0029 C.3       6 UNK        -0.2006 
     42 C          25.1990  -27.6275  -43.0138 C.2       6 UNK         0.4892 
     43 O          26.2836  -28.0601  -43.4040 O.2       6 UNK        -0.5089 
     44 N          24.0281  -28.2340  -43.2387 N.am      7 UNK        -0.4243 
     45 CA         23.8627  -29.5489  -43.8571 C.3       7 UNK         0.0196 
     46 CB         22.4390  -29.6666  -44.4246 C.3       7 UNK        -0.2007 
     47 C          24.1658  -30.6774  -42.8557 C.2       7 UNK         0.5020 
     48 O          24.7947  -31.6649  -43.2360 O.2       7 UNK        -0.5147 
     49 N          23.7505  -30.4788  -41.5942 N.am      8 UNK        -0.4734 
     50 CA         23.9395  -31.3550  -40.4321 C.3       8 UNK         0.0238 
     51 CB         25.4330  -31.4472  -40.0531 C.3       8 UNK        -0.1912 
     52 C          23.2686  -32.7282  -40.6154 C.2       8 UNK         0.5038 
     53 O          23.9299  -33.7621  -40.4940 O.2       8 UNK        -0.5046 
     54 N          21.9668  -32.7094  -40.9172 N.am      9 UNK        -0.4200 
     55 CA         21.1588  -33.8957  -41.2277 C.3       9 UNK         0.0839 
     56 C          19.6632  -33.7085  -40.8585 C.2       9 UNK         0.5513 
     57 N          18.8867  -34.7838  -40.8680 N.am      9 UNK        -0.7519 
     58 O          19.1915  -32.6136  -40.5654 O.2       9 UNK        -0.4960 
     59 C59        21.3740  -34.3814  -42.6901 C.3       10 UNK        -0.0876 
     60 S60        21.1138  -33.0712  -43.9352 S.3       10 UNK        -0.2414 
     61 C61        19.4351  -33.4355  -44.5241 C.3       10 UNK         0.0169 
     62 H62        22.4071  -23.7715  -45.3097 H         1 UNK         0.0903 
     63 H63        23.3009  -25.1263  -46.0299 H         1 UNK         0.0903 
     64 H64        23.5653  -23.4870  -46.6004 H         1 UNK         0.0903 
     65 H65        20.0152  -25.3416  -47.7958 H         1 UNK         0.3096 
     66 H66        21.4709  -26.4968  -45.5844 H         1 UNK         0.1121 
     67 H67        19.3367  -27.7938  -45.2405 H         1 UNK         0.0849 
     68 H68        18.5653  -26.8586  -46.4981 H         1 UNK         0.0849 
     69 H69        17.8186  -28.8630  -47.9037 H         1 UNK         0.0865 
     70 H70        18.8343  -30.1868  -48.4047 H         1 UNK         0.0865 
     71 H71        19.7927  -31.7794  -46.6568 H         1 UNK         0.1346 
     72 H72        17.4306  -32.2514  -43.1099 H         1 UNK         0.1412 
     73 H73        16.7304  -28.9221  -45.7204 H         1 UNK         0.1426 
     74 H74        14.9356  -29.8982  -44.0383 H         1 UNK         0.0716 
     75 H75        15.5386  -30.8475  -42.7067 H         1 UNK         0.0716 
     76 H76        17.1763  -28.5170  -40.3452 H         1 UNK         0.0695 
     77 H77        17.1597  -30.1425  -40.9896 H         1 UNK         0.0695 
     78 H78        18.9975  -29.5927  -42.5548 H         1 UNK         0.0983 
     79 H79        19.2759  -27.5189  -43.1457 H         1 UNK         0.3095 
     80 H80        18.6978  -24.7462  -42.4827 H         1 UNK         0.0454 
     81 H81        20.0550  -23.9040  -40.5475 H         1 UNK         0.0851 
     82 H82        21.5157  -24.5385  -41.2976 H         1 UNK         0.0851 
     83 H83        20.6115  -23.2499  -42.0770 H         1 UNK         0.0851 
     84 H84        21.0602  -26.2867  -43.3893 H         1 UNK         0.2976 
     85 H85        18.7533  -28.7509  -39.1246 H         1 UNK         0.3116 
     86 H86        20.7388  -30.6798  -38.3605 H         1 UNK         0.0646 
     87 H87        20.3070  -29.7784  -36.0690 H         1 UNK         0.0847 
     88 H88        18.8029  -30.1120  -36.9093 H         1 UNK         0.0847 
     89 H89        19.3775  -28.4507  -36.7494 H         1 UNK         0.0847 
     90 H90        20.9813  -27.3656  -39.3443 H         1 UNK         0.3040 
     91 H91        23.8528  -27.2417  -38.5055 H         1 UNK         0.1015 
     92 H92        22.5526  -25.4275  -37.4154 H         1 UNK         0.0786 
     93 H93        21.8269  -24.9702  -38.9508 H         1 UNK         0.0786 
     94 H94        23.5509  -24.7382  -38.6844 H         1 UNK         0.0786 
     95 H95        25.2251  -26.2929  -40.1042 H         1 UNK         0.3172 
     96 H96        26.1933  -26.0177  -42.0437 H         1 UNK         0.0595 
     97 H97        23.4287  -25.3850  -43.2072 H         1 UNK         0.0839 
     98 H98        24.9740  -25.0359  -43.9641 H         1 UNK         0.0839 
     99 H99        24.5349  -24.2349  -42.4657 H         1 UNK         0.0839 
    100 H100       23.2169  -27.8285  -42.7782 H         1 UNK         0.2998 
    101 H101       24.5675  -29.6347  -44.6871 H         1 UNK         0.0822 
    102 H102       22.2237  -28.8603  -45.1242 H         1 UNK         0.0787 
    103 H103       22.3183  -30.6013  -44.9719 H         1 UNK         0.0787 
    104 H104       21.6809  -29.6463  -43.6409 H         1 UNK         0.0787 
    105 H105       23.1347  -29.6910  -41.4333 H         1 UNK         0.3055 
    106 H106       23.4221  -30.8795  -39.5995 H         1 UNK         0.1106 
    107 H107       25.5658  -32.0155  -39.1318 H         1 UNK         0.0828 
    108 H108       26.0201  -31.9423  -40.8272 H         1 UNK         0.0828 
    109 H109       25.8608  -30.4585  -39.8880 H         1 UNK         0.0828 
    110 H110       21.4807  -31.8172  -40.9944 H         1 UNK         0.2931 
    111 H111       21.5028  -34.6926  -40.5653 H         1 UNK         0.0412 
    112 H112       17.9133  -34.6829  -40.6265 H         1 UNK         0.3472 
    113 H113       19.2547  -35.6962  -41.0876 H         1 UNK         0.3472 
    114 H114       20.7542  -35.2494  -42.9199 H         1 UNK         0.0970 
    115 H115       22.4019  -34.7299  -42.8004 H         1 UNK         0.0970 
    116 H116       18.8872  -34.0067  -43.7737 H         1 UNK         0.0612 
    117 H117       19.4951  -34.0690  -45.4101 H         1 UNK         0.0612 
@<TRIPOS>BOND
     1    1    2 1    
     2    1   62 1    
     3    1   63 1    
     4    1   64 1    
     5    2    3 2    
     6    2    4 am   BACKBONE|DICT|INTERRES
     7    4    5 1    
     8    4   65 1    
     9    5    6 1    
    10    5   25 1    
    11    5   66 1    
    12    6    7 1    
    13    6   67 1    
    14    6   68 1    
    15    7    8 1    
    16    8    9 1    
    17    8   69 1    
    18    8   70 1    
    19    9   10 ar   
    20    9   14 ar   
    21   10   11 ar   
    22   10   71 1    
    23   11   12 ar   
    24   11   61 1    
    25   12   13 ar   
    26   12   72 1    
    27   13   14 ar   
    28   13   15 1    
    29   14   73 1    
    30   15   16 1    
    31   15   74 1    
    32   15   75 1    
    33   16   17 1    
    34   17   18 1    
    35   17   76 1    
    36   17   77 1    
    37   18   19 1    
    38   18   27 1    
    39   18   78 1    
    40   19   20 am   BACKBONE|DICT|INTERRES
    41   19   79 1    
    42   20   21 2    
    43   20   22 1    
    44   22   23 1    
    45   22   24 1    
    46   22   80 1    
    47   23   81 1    
    48   23   82 1    
    49   23   83 1    
    50   24   25 am   BACKBONE|DICT|INTERRES
    51   24   84 1    
    52   25   26 2    
    53   27   28 2    
    54   27   29 am   BACKBONE|DICT|INTERRES
    55   29   30 1    
    56   29   85 1    
    57   30   31 1    
    58   30   32 1    
    59   30   86 1    
    60   31   87 1    
    61   31   88 1    
    62   31   89 1    
    63   32   33 2    
    64   32   34 am   BACKBONE|DICT|INTERRES
    65   34   35 1    
    66   34   90 1    
    67   35   36 1    
    68   35   37 1    
    69   35   91 1    
    70   36   92 1    
    71   36   93 1    
    72   36   94 1    
    73   37   38 2    
    74   37   39 am   BACKBONE|DICT|INTERRES
    75   39   40 1    
    76   39   95 1    
    77   40   41 1    
    78   40   42 1    
    79   40   96 1    
    80   41   97 1    
    81   41   98 1    
    82   41   99 1    
    83   42   43 2    
    84   42   44 am   BACKBONE|DICT|INTERRES
    85   44   45 1    
    86   44  100 1    
    87   45   46 1    
    88   45   47 1    
    89   45  101 1    
    90   46  102 1    
    91   46  103 1    
    92   46  104 1    
    93   47   48 2    
    94   47   49 am   BACKBONE|DICT|INTERRES
    95   49   50 1    
    96   49  105 1    
    97   50   51 1    
    98   50   52 1    
    99   50  106 1    
   100   51  107 1    
   101   51  108 1    
   102   51  109 1    
   103   52   53 2    
   104   52   54 am   BACKBONE|DICT|INTERRES
   105   54   55 1    
   106   54  110 1    
   107   55   56 1    
   108   55   59 1    
   109   55  111 1    
   110   56   57 am   BACKBONE|DICT|INTERRES
   111   56   58 2    
   112   57  112 1    
   113   57  113 1    
   114   59   60 1    
   115   59  114 1    
   116   59  115 1    
   117   60   61 1    
   118   61  116 1    
   119   61  117 1    
@<TRIPOS>SUBSTRUCTURE
     1 UNK         1 GROUP             0       ****    0 ROOT    
