@<TRIPOS>MOLECULE
3R8
117   119    1
SMALL
USER_CHARGES


@<TRIPOS>ATOM
      1 CA         18.6865  -28.4346  -41.9217 C.3       0 UNK        -0.2013 
      2 C          17.9410  -27.2243  -42.4604 C.2       0 UNK         0.4866 
      3 O          17.9500  -26.1715  -41.8240 O.2       0 UNK        -0.5176 
      4 N          17.3013  -27.3571  -43.6314 N.am      1 UNK        -0.4884 
      5 CA         16.5222  -26.2922  -44.2877 C.3       1 UNK         0.0853 
      6 C6         15.6578  -26.8274  -45.4570 C.3       10 UNK        -0.0849 
      7 S7         14.5398  -28.1866  -44.9732 S.3       10 UNK        -0.2776 
      8 C8         15.1382  -29.5538  -46.0193 C.3       10 UNK         0.0316 
      9 C9         16.4088  -30.1809  -45.4638 C.ar      10 UNK        -0.0863 
     10 C10        16.3196  -31.1745  -44.4831 C.ar      10 UNK        -0.1009 
     11 C11        17.4755  -31.7747  -43.9790 C.ar      10 UNK        -0.0712 
     12 C12        18.7226  -31.3829  -44.4678 C.ar      10 UNK        -0.0894 
     13 C13        18.8315  -30.3595  -45.4134 C.ar      10 UNK        -0.0745 
     14 C14        17.6674  -29.7761  -45.9254 C.ar      10 UNK        -0.0972 
     15 C15        20.2066  -29.8654  -45.8463 C.3       10 UNK         0.0209 
     16 S16        21.2120  -29.4045  -44.3970 S.3       10 UNK        -0.2568 
     17 C17        22.5517  -28.3957  -45.1211 C.3       10 UNK        -0.0983 
     18 CA         22.5368  -26.9300  -44.6067 C.3       3 UNK         0.0876 
     19 N          21.2991  -26.2590  -45.0190 N.am      3 UNK        -0.4424 
     20 C          21.1033  -24.9387  -45.1364 C.2       2 UNK         0.4918 
     21 O          21.9699  -24.0995  -44.8966 O.2       2 UNK        -0.4875 
     22 CA         19.6949  -24.4770  -45.5386 C.3       2 UNK         0.0481 
     23 CB         19.5924  -24.2843  -47.0617 C.3       2 UNK        -0.1831 
     24 N          18.6744  -25.4191  -45.0734 N.am      2 UNK        -0.4498 
     25 C          17.3999  -25.1247  -44.7921 C.2       1 UNK         0.5027 
     26 O          16.9063  -24.0039  -44.9263 O.2       1 UNK        -0.4969 
     27 C          22.8164  -26.8541  -43.0829 C.2       3 UNK         0.5005 
     28 O          23.6493  -27.6171  -42.5928 O.2       3 UNK        -0.5279 
     29 N          22.1193  -25.9761  -42.3450 N.am      4 UNK        -0.4463 
     30 CA         22.1023  -25.8721  -40.8783 C.3       4 UNK         0.0283 
     31 CB         21.1654  -24.7239  -40.4713 C.3       4 UNK        -0.1875 
     32 C          23.4731  -25.7063  -40.1934 C.2       4 UNK         0.4949 
     33 O          23.6014  -26.0656  -39.0235 O.2       4 UNK        -0.5039 
     34 N          24.4728  -25.1940  -40.9247 N.am      5 UNK        -0.4663 
     35 CA         25.8700  -25.1227  -40.4854 C.3       5 UNK         0.0242 
     36 CB         26.6588  -24.2256  -41.4527 C.3       5 UNK        -0.1982 
     37 C          26.5402  -26.5059  -40.3637 C.2       5 UNK         0.5017 
     38 O          27.4293  -26.6681  -39.5272 O.2       5 UNK        -0.5012 
     39 N          26.1032  -27.4677  -41.1882 N.am      6 UNK        -0.4439 
     40 CA         26.5213  -28.8697  -41.1470 C.3       6 UNK         0.0297 
     41 CB         26.6781  -29.3972  -42.5832 C.3       6 UNK        -0.2006 
     42 C          25.5088  -29.7290  -40.3728 C.2       6 UNK         0.4892 
     43 O          25.9270  -30.6494  -39.6702 O.2       6 UNK        -0.5089 
     44 N          24.2119  -29.4074  -40.5166 N.am      7 UNK        -0.4243 
     45 CA         23.0446  -30.0814  -39.9365 C.3       7 UNK         0.0196 
     46 CB         23.0288  -29.9401  -38.4004 C.3       7 UNK        -0.2007 
     47 C          22.9439  -31.5399  -40.4164 C.2       7 UNK         0.5020 
     48 O          23.0018  -32.4735  -39.6132 O.2       7 UNK        -0.5147 
     49 N          22.8091  -31.7034  -41.7404 N.am      8 UNK        -0.4734 
     50 CA         22.8341  -32.9901  -42.4495 C.3       8 UNK         0.0238 
     51 CB         22.8776  -32.7280  -43.9645 C.3       8 UNK        -0.1912 
     52 C          21.6987  -33.9738  -42.0986 C.2       8 UNK         0.5038 
     53 O          21.7822  -35.1362  -42.4980 O.2       8 UNK        -0.5046 
     54 N          20.6745  -33.5161  -41.3655 N.am      9 UNK        -0.4200 
     55 CA         19.5902  -34.3522  -40.8234 C.3       9 UNK         0.0839 
     56 C          20.0496  -35.3665  -39.7348 C.2       9 UNK         0.5513 
     57 N          21.1985  -35.1757  -39.0949 N.am      9 UNK        -0.7519 
     58 O          19.3480  -36.3385  -39.4673 O.2       9 UNK        -0.4960 
     59 C59        18.3835  -33.5212  -40.2977 C.3       10 UNK        -0.0876 
     60 S60        17.9334  -32.0656  -41.3007 S.3       10 UNK        -0.2414 
     61 C61        17.4029  -32.8120  -42.8724 C.3       10 UNK         0.0169 
     62 H62        18.5817  -29.2981  -42.5760 H         1 UNK         0.0903 
     63 H63        19.7483  -28.2104  -41.8237 H         1 UNK         0.0903 
     64 H64        18.3022  -28.7081  -40.9396 H         1 UNK         0.0903 
     65 H65        17.2753  -28.2611  -44.0867 H         1 UNK         0.3096 
     66 H66        15.8487  -25.8736  -43.5362 H         1 UNK         0.1121 
     67 H67        15.0325  -26.0258  -45.8560 H         1 UNK         0.0849 
     68 H68        16.2891  -27.1463  -46.2875 H         1 UNK         0.0849 
     69 H69        14.3566  -30.3128  -46.0798 H         1 UNK         0.0865 
     70 H70        15.2918  -29.2051  -47.0418 H         1 UNK         0.0865 
     71 H71        15.3505  -31.4725  -44.1060 H         1 UNK         0.1346 
     72 H72        19.6155  -31.8375  -44.0620 H         1 UNK         0.1412 
     73 H73        17.7412  -29.0009  -46.6757 H         1 UNK         0.1426 
     74 H74        20.7172  -30.6488  -46.4080 H         1 UNK         0.0716 
     75 H75        20.1130  -29.0066  -46.5124 H         1 UNK         0.0716 
     76 H76        23.5054  -28.8769  -44.8957 H         1 UNK         0.0695 
     77 H77        22.4731  -28.4086  -46.2092 H         1 UNK         0.0695 
     78 H78        23.3694  -26.4088  -45.0842 H         1 UNK         0.0983 
     79 H79        20.5569  -26.8895  -45.2727 H         1 UNK         0.3095 
     80 H80        19.5271  -23.5132  -45.0532 H         1 UNK         0.0454 
     81 H81        19.7203  -25.2253  -47.5977 H         1 UNK         0.0851 
     82 H82        18.6263  -23.8666  -47.3451 H         1 UNK         0.0851 
     83 H83        20.3584  -23.5957  -47.4210 H         1 UNK         0.0851 
     84 H84        18.9709  -26.3590  -44.8641 H         1 UNK         0.2976 
     85 H85        21.4920  -25.3587  -42.8392 H         1 UNK         0.3116 
     86 H86        21.6764  -26.8047  -40.5028 H         1 UNK         0.0646 
     87 H87        21.1008  -24.6368  -39.3857 H         1 UNK         0.0847 
     88 H88        20.1522  -24.8859  -40.8390 H         1 UNK         0.0847 
     89 H89        21.5136  -23.7641  -40.8548 H         1 UNK         0.0847 
     90 H90        24.2726  -24.9095  -41.8726 H         1 UNK         0.3040 
     91 H91        25.8909  -24.6621  -39.4949 H         1 UNK         0.1015 
     92 H92        26.2422  -23.2188  -41.4900 H         1 UNK         0.0786 
     93 H93        26.6611  -24.6275  -42.4668 H         1 UNK         0.0786 
     94 H94        27.6990  -24.1323  -41.1370 H         1 UNK         0.0786 
     95 H95        25.3243  -27.2560  -41.8062 H         1 UNK         0.3172 
     96 H96        27.4892  -28.9561  -40.6486 H         1 UNK         0.0595 
     97 H97        27.0019  -30.4389  -42.5820 H         1 UNK         0.0839 
     98 H98        27.4253  -28.8265  -43.1347 H         1 UNK         0.0839 
     99 H99        25.7415  -29.3485  -43.1404 H         1 UNK         0.0839 
    100 H100       23.9936  -28.6729  -41.1876 H         1 UNK         0.2998 
    101 H101       22.1651  -29.5625  -40.3215 H         1 UNK         0.0822 
    102 H102       23.0689  -28.8925  -38.1009 H         1 UNK         0.0787 
    103 H103       22.1160  -30.3644  -37.9807 H         1 UNK         0.0787 
    104 H104       23.8695  -30.4542  -37.9337 H         1 UNK         0.0787 
    105 H105       22.7568  -30.8771  -42.3207 H         1 UNK         0.3055 
    106 H106       23.7647  -33.4881  -42.1684 H         1 UNK         0.1106 
    107 H107       23.0101  -33.6586  -44.5180 H         1 UNK         0.0828 
    108 H108       21.9561  -32.2704  -44.3219 H         1 UNK         0.0828 
    109 H109       23.7063  -32.0732  -44.2349 H         1 UNK         0.0828 
    110 H110       20.6779  -32.5485  -41.0816 H         1 UNK         0.2931 
    111 H111       19.2268  -34.9586  -41.6546 H         1 UNK         0.0412 
    112 H112       21.4895  -35.8366  -38.3918 H         1 UNK         0.3472 
    113 H113       21.7735  -34.3682  -39.2991 H         1 UNK         0.3472 
    114 H114       18.5939  -33.1478  -39.2933 H         1 UNK         0.0970 
    115 H115       17.5033  -34.1591  -40.1981 H         1 UNK         0.0970 
    116 H116       16.3923  -33.2086  -42.7656 H         1 UNK         0.0612 
    117 H117       18.0465  -33.6518  -43.1340 H         1 UNK         0.0612 
@<TRIPOS>BOND
     1    1    2 1    
     2    1   62 1    
     3    1   63 1    
     4    1   64 1    
     5    2    3 2    
     6    2    4 am   BACKBONE|DICT|INTERRES
     7    4    5 1    
     8    4   65 1    
     9    5    6 1    
    10    5   25 1    
    11    5   66 1    
    12    6    7 1    
    13    6   67 1    
    14    6   68 1    
    15    7    8 1    
    16    8    9 1    
    17    8   69 1    
    18    8   70 1    
    19    9   10 ar   
    20    9   14 ar   
    21   10   11 ar   
    22   10   71 1    
    23   11   12 ar   
    24   11   61 1    
    25   12   13 ar   
    26   12   72 1    
    27   13   14 ar   
    28   13   15 1    
    29   14   73 1    
    30   15   16 1    
    31   15   74 1    
    32   15   75 1    
    33   16   17 1    
    34   17   18 1    
    35   17   76 1    
    36   17   77 1    
    37   18   19 1    
    38   18   27 1    
    39   18   78 1    
    40   19   20 am   BACKBONE|DICT|INTERRES
    41   19   79 1    
    42   20   21 2    
    43   20   22 1    
    44   22   23 1    
    45   22   24 1    
    46   22   80 1    
    47   23   81 1    
    48   23   82 1    
    49   23   83 1    
    50   24   25 am   BACKBONE|DICT|INTERRES
    51   24   84 1    
    52   25   26 2    
    53   27   28 2    
    54   27   29 am   BACKBONE|DICT|INTERRES
    55   29   30 1    
    56   29   85 1    
    57   30   31 1    
    58   30   32 1    
    59   30   86 1    
    60   31   87 1    
    61   31   88 1    
    62   31   89 1    
    63   32   33 2    
    64   32   34 am   BACKBONE|DICT|INTERRES
    65   34   35 1    
    66   34   90 1    
    67   35   36 1    
    68   35   37 1    
    69   35   91 1    
    70   36   92 1    
    71   36   93 1    
    72   36   94 1    
    73   37   38 2    
    74   37   39 am   BACKBONE|DICT|INTERRES
    75   39   40 1    
    76   39   95 1    
    77   40   41 1    
    78   40   42 1    
    79   40   96 1    
    80   41   97 1    
    81   41   98 1    
    82   41   99 1    
    83   42   43 2    
    84   42   44 am   BACKBONE|DICT|INTERRES
    85   44   45 1    
    86   44  100 1    
    87   45   46 1    
    88   45   47 1    
    89   45  101 1    
    90   46  102 1    
    91   46  103 1    
    92   46  104 1    
    93   47   48 2    
    94   47   49 am   BACKBONE|DICT|INTERRES
    95   49   50 1    
    96   49  105 1    
    97   50   51 1    
    98   50   52 1    
    99   50  106 1    
   100   51  107 1    
   101   51  108 1    
   102   51  109 1    
   103   52   53 2    
   104   52   54 am   BACKBONE|DICT|INTERRES
   105   54   55 1    
   106   54  110 1    
   107   55   56 1    
   108   55   59 1    
   109   55  111 1    
   110   56   57 am   BACKBONE|DICT|INTERRES
   111   56   58 2    
   112   57  112 1    
   113   57  113 1    
   114   59   60 1    
   115   59  114 1    
   116   59  115 1    
   117   60   61 1    
   118   61  116 1    
   119   61  117 1    
@<TRIPOS>SUBSTRUCTURE
     1 UNK         1 GROUP             0       ****    0 ROOT    
