@<TRIPOS>MOLECULE
3R8
117   119    1
SMALL
USER_CHARGES


@<TRIPOS>ATOM
      1 CA         14.9518  -25.8853  -38.9464 C.3       0 UNK        -0.2013 
      2 C          15.5786  -25.5309  -40.2867 C.2       0 UNK         0.4866 
      3 O          15.4090  -24.4094  -40.7664 O.2       0 UNK        -0.5176 
      4 N          16.3046  -26.4748  -40.8909 N.am      1 UNK        -0.4884 
      5 CA         16.9896  -26.3300  -42.1743 C.3       1 UNK         0.0853 
      6 C6         16.0423  -26.4322  -43.4030 C.3       10 UNK        -0.0849 
      7 S7         14.8799  -27.8438  -43.3639 S.3       10 UNK        -0.2776 
      8 C8         14.9941  -28.5139  -45.0576 C.3       10 UNK         0.0316 
      9 C9         15.9354  -29.7084  -45.1739 C.ar      10 UNK        -0.0863 
     10 C10        15.7972  -30.8007  -44.3119 C.ar      10 UNK        -0.1009 
     11 C11        16.5901  -31.9396  -44.4676 C.ar      10 UNK        -0.0712 
     12 C12        17.5329  -31.9846  -45.5007 C.ar      10 UNK        -0.0894 
     13 C13        17.6807  -30.9042  -46.3781 C.ar      10 UNK        -0.0745 
     14 C14        16.8807  -29.7673  -46.2036 C.ar      10 UNK        -0.0972 
     15 C15        18.6218  -31.0195  -47.5754 C.3       10 UNK         0.0209 
     16 S16        19.6884  -29.5593  -47.8230 S.3       10 UNK        -0.2568 
     17 C17        21.3309  -30.1549  -47.2936 C.3       10 UNK        -0.0983 
     18 CA         22.0695  -29.1088  -46.4198 C.3       3 UNK         0.0876 
     19 N          21.4097  -28.9199  -45.1299 N.am      3 UNK        -0.4424 
     20 C          20.7837  -27.8197  -44.7118 C.2       2 UNK         0.4918 
     21 O          20.6034  -26.8038  -45.3861 O.2       2 UNK        -0.4875 
     22 CA         20.3315  -27.8648  -43.2543 C.3       2 UNK         0.0481 
     23 CB         21.4494  -27.3883  -42.3098 C.3       2 UNK        -0.1831 
     24 N          19.1401  -27.0487  -43.0744 N.am      2 UNK        -0.4498 
     25 C          18.1497  -27.3353  -42.2237 C.2       1 UNK         0.5027 
     26 O          18.1415  -28.3295  -41.4880 O.2       1 UNK        -0.4969 
     27 C          23.5429  -29.4768  -46.1396 C.2       3 UNK         0.5005 
     28 O          24.1105  -30.3510  -46.7971 O.2       3 UNK        -0.5279 
     29 N          24.1266  -28.8137  -45.1339 N.am      4 UNK        -0.4463 
     30 CA         25.4826  -28.9779  -44.6272 C.3       4 UNK         0.0283 
     31 CB         25.5545  -30.2033  -43.6957 C.3       4 UNK        -0.1875 
     32 C          25.8589  -27.6903  -43.8824 C.2       4 UNK         0.4949 
     33 O          24.9887  -26.8551  -43.6208 O.2       4 UNK        -0.5039 
     34 N          27.1468  -27.5549  -43.5476 N.am      5 UNK        -0.4663 
     35 CA         27.7168  -26.3785  -42.8804 C.3       5 UNK         0.0242 
     36 CB         29.2441  -26.4016  -43.0639 C.3       5 UNK        -0.1982 
     37 C          27.3579  -26.2445  -41.3866 C.2       5 UNK         0.5017 
     38 O          27.6148  -25.1869  -40.8091 O.2       5 UNK        -0.5012 
     39 N          26.8002  -27.2980  -40.7792 N.am      6 UNK        -0.4439 
     40 CA         26.4223  -27.3642  -39.3702 C.3       6 UNK         0.0297 
     41 CB         27.6553  -27.7372  -38.5231 C.3       6 UNK        -0.2006 
     42 C          25.2905  -28.3844  -39.1884 C.2       6 UNK         0.4892 
     43 O          24.9984  -29.1455  -40.1154 O.2       6 UNK        -0.5089 
     44 N          24.7059  -28.3857  -37.9814 N.am      7 UNK        -0.4243 
     45 CA         23.6061  -29.2426  -37.5202 C.3       7 UNK         0.0196 
     46 CB         24.0337  -30.7297  -37.5099 C.3       7 UNK        -0.2007 
     47 C          22.2912  -28.9726  -38.2807 C.2       7 UNK         0.5020 
     48 O          22.0604  -27.8423  -38.7150 O.2       7 UNK        -0.5147 
     49 N          21.4412  -29.9976  -38.3969 N.am      8 UNK        -0.4734 
     50 CA         20.2005  -29.9917  -39.1690 C.3       8 UNK         0.0238 
     51 CB         19.0132  -30.2670  -38.2320 C.3       8 UNK        -0.1912 
     52 C          20.3012  -31.0777  -40.2455 C.2       8 UNK         0.5038 
     53 O          20.9815  -32.0847  -40.0322 O.2       8 UNK        -0.5046 
     54 N          19.6310  -30.8461  -41.3780 N.am      9 UNK        -0.4200 
     55 CA         19.6309  -31.6906  -42.5872 C.3       9 UNK         0.0839 
     56 C          21.0006  -31.8300  -43.3196 C.2       9 UNK         0.5513 
     57 N          22.0416  -31.0936  -42.9476 N.am      9 UNK        -0.7519 
     58 O          21.1117  -32.5785  -44.2853 O.2       9 UNK        -0.4960 
     59 C59        18.9411  -33.0665  -42.3725 C.3       10 UNK        -0.0876 
     60 S60        17.1831  -32.8924  -41.9236 S.3       10 UNK        -0.2414 
     61 C61        16.3859  -33.1327  -43.5432 C.3       10 UNK         0.0169 
     62 H62        13.8680  -25.7882  -39.0024 H         1 UNK         0.0903 
     63 H63        15.1853  -26.9063  -38.6448 H         1 UNK         0.0903 
     64 H64        15.3154  -25.2110  -38.1715 H         1 UNK         0.0903 
     65 H65        16.4539  -27.3785  -40.4583 H         1 UNK         0.3096 
     66 H66        17.4505  -25.3393  -42.1863 H         1 UNK         0.1121 
     67 H67        15.4385  -25.5252  -43.4586 H         1 UNK         0.0849 
     68 H68        16.6189  -26.4488  -44.3295 H         1 UNK         0.0849 
     69 H69        13.9987  -28.8422  -45.3595 H         1 UNK         0.0865 
     70 H70        15.2694  -27.7220  -45.7555 H         1 UNK         0.0865 
     71 H71        15.0545  -30.7735  -43.5260 H         1 UNK         0.1346 
     72 H72        18.1327  -32.8741  -45.6376 H         1 UNK         0.1412 
     73 H73        16.9693  -28.9433  -46.8985 H         1 UNK         0.1426 
     74 H74        19.2328  -31.9206  -47.5079 H         1 UNK         0.0716 
     75 H75        18.0098  -31.1434  -48.4696 H         1 UNK         0.0716 
     76 H76        21.2362  -31.0982  -46.7528 H         1 UNK         0.0695 
     77 H77        21.8981  -30.3741  -48.2000 H         1 UNK         0.0695 
     78 H78        22.0989  -28.1645  -46.9683 H         1 UNK         0.0983 
     79 H79        21.5353  -29.6837  -44.4773 H         1 UNK         0.3095 
     80 H80        20.0890  -28.8995  -43.0285 H         1 UNK         0.0454 
     81 H81        21.7454  -26.3607  -42.5240 H         1 UNK         0.0851 
     82 H82        21.1351  -27.4315  -41.2675 H         1 UNK         0.0851 
     83 H83        22.3421  -28.0083  -42.4023 H         1 UNK         0.0851 
     84 H84        19.0738  -26.2488  -43.6913 H         1 UNK         0.2976 
     85 H85        23.6286  -28.0523  -44.6868 H         1 UNK         0.3116 
     86 H86        26.1674  -29.1067  -45.4680 H         1 UNK         0.0646 
     87 H87        26.5688  -30.3617  -43.3280 H         1 UNK         0.0847 
     88 H88        25.2587  -31.1159  -44.2131 H         1 UNK         0.0847 
     89 H89        24.9092  -30.0848  -42.8242 H         1 UNK         0.0847 
     90 H90        27.7938  -28.2917  -43.7918 H         1 UNK         0.3040 
     91 H91        27.3287  -25.4860  -43.3771 H         1 UNK         0.1015 
     92 H92        29.6940  -27.2760  -42.5917 H         1 UNK         0.0786 
     93 H93        29.7063  -25.5186  -42.6199 H         1 UNK         0.0786 
     94 H94        29.5181  -26.4094  -44.1191 H         1 UNK         0.0786 
     95 H95        26.5410  -28.1108  -41.3240 H         1 UNK         0.3172 
     96 H96        26.0430  -26.3899  -39.0543 H         1 UNK         0.0595 
     97 H97        27.4125  -27.7789  -37.4608 H         1 UNK         0.0839 
     98 H98        28.4540  -27.0042  -38.6383 H         1 UNK         0.0839 
     99 H99        28.0545  -28.7123  -38.8050 H         1 UNK         0.0839 
    100 H100       25.0101  -27.6897  -37.3149 H         1 UNK         0.2998 
    101 H101       23.4154  -28.9504  -36.4865 H         1 UNK         0.0822 
    102 H102       25.0026  -30.8567  -37.0267 H         1 UNK         0.0787 
    103 H103       23.3244  -31.3458  -36.9562 H         1 UNK         0.0787 
    104 H104       24.1116  -31.1387  -38.5183 H         1 UNK         0.0787 
    105 H105       21.7410  -30.9103  -38.0804 H         1 UNK         0.3055 
    106 H106       20.0526  -29.0248  -39.6554 H         1 UNK         0.1106 
    107 H107       18.0724  -30.2593  -38.7844 H         1 UNK         0.0828 
    108 H108       19.0984  -31.2387  -37.7437 H         1 UNK         0.0828 
    109 H109       18.9386  -29.5061  -37.4551 H         1 UNK         0.0828 
    110 H110       19.0699  -29.9998  -41.4413 H         1 UNK         0.2931 
    111 H111       19.0227  -31.1295  -43.2955 H         1 UNK         0.0412 
    112 H112       22.9248  -31.2521  -43.4062 H         1 UNK         0.3472 
    113 H113       22.0051  -30.5595  -42.0943 H         1 UNK         0.3472 
    114 H114       19.0073  -33.6863  -43.2681 H         1 UNK         0.0970 
    115 H115       19.4473  -33.6319  -41.5890 H         1 UNK         0.0970 
    116 H116       16.7546  -34.0502  -44.0043 H         1 UNK         0.0612 
    117 H117       15.3174  -33.2852  -43.3840 H         1 UNK         0.0612 
@<TRIPOS>BOND
     1    1    2 1    
     2    1   62 1    
     3    1   63 1    
     4    1   64 1    
     5    2    3 2    
     6    2    4 am   BACKBONE|DICT|INTERRES
     7    4    5 1    
     8    4   65 1    
     9    5    6 1    
    10    5   25 1    
    11    5   66 1    
    12    6    7 1    
    13    6   67 1    
    14    6   68 1    
    15    7    8 1    
    16    8    9 1    
    17    8   69 1    
    18    8   70 1    
    19    9   10 ar   
    20    9   14 ar   
    21   10   11 ar   
    22   10   71 1    
    23   11   12 ar   
    24   11   61 1    
    25   12   13 ar   
    26   12   72 1    
    27   13   14 ar   
    28   13   15 1    
    29   14   73 1    
    30   15   16 1    
    31   15   74 1    
    32   15   75 1    
    33   16   17 1    
    34   17   18 1    
    35   17   76 1    
    36   17   77 1    
    37   18   19 1    
    38   18   27 1    
    39   18   78 1    
    40   19   20 am   BACKBONE|DICT|INTERRES
    41   19   79 1    
    42   20   21 2    
    43   20   22 1    
    44   22   23 1    
    45   22   24 1    
    46   22   80 1    
    47   23   81 1    
    48   23   82 1    
    49   23   83 1    
    50   24   25 am   BACKBONE|DICT|INTERRES
    51   24   84 1    
    52   25   26 2    
    53   27   28 2    
    54   27   29 am   BACKBONE|DICT|INTERRES
    55   29   30 1    
    56   29   85 1    
    57   30   31 1    
    58   30   32 1    
    59   30   86 1    
    60   31   87 1    
    61   31   88 1    
    62   31   89 1    
    63   32   33 2    
    64   32   34 am   BACKBONE|DICT|INTERRES
    65   34   35 1    
    66   34   90 1    
    67   35   36 1    
    68   35   37 1    
    69   35   91 1    
    70   36   92 1    
    71   36   93 1    
    72   36   94 1    
    73   37   38 2    
    74   37   39 am   BACKBONE|DICT|INTERRES
    75   39   40 1    
    76   39   95 1    
    77   40   41 1    
    78   40   42 1    
    79   40   96 1    
    80   41   97 1    
    81   41   98 1    
    82   41   99 1    
    83   42   43 2    
    84   42   44 am   BACKBONE|DICT|INTERRES
    85   44   45 1    
    86   44  100 1    
    87   45   46 1    
    88   45   47 1    
    89   45  101 1    
    90   46  102 1    
    91   46  103 1    
    92   46  104 1    
    93   47   48 2    
    94   47   49 am   BACKBONE|DICT|INTERRES
    95   49   50 1    
    96   49  105 1    
    97   50   51 1    
    98   50   52 1    
    99   50  106 1    
   100   51  107 1    
   101   51  108 1    
   102   51  109 1    
   103   52   53 2    
   104   52   54 am   BACKBONE|DICT|INTERRES
   105   54   55 1    
   106   54  110 1    
   107   55   56 1    
   108   55   59 1    
   109   55  111 1    
   110   56   57 am   BACKBONE|DICT|INTERRES
   111   56   58 2    
   112   57  112 1    
   113   57  113 1    
   114   59   60 1    
   115   59  114 1    
   116   59  115 1    
   117   60   61 1    
   118   61  116 1    
   119   61  117 1    
@<TRIPOS>SUBSTRUCTURE
     1 UNK         1 GROUP             0       ****    0 ROOT    
