@<TRIPOS>MOLECULE
3R8
117   119    1
SMALL
USER_CHARGES


@<TRIPOS>ATOM
      1 CA         21.1470  -26.0141  -46.3472 C.3       0 UNK        -0.2013 
      2 C          19.9692  -26.2048  -45.4047 C.2       0 UNK         0.4866 
      3 O          20.1698  -26.5675  -44.2472 O.2       0 UNK        -0.5176 
      4 N          18.7410  -25.9760  -45.8857 N.am      1 UNK        -0.4884 
      5 CA         17.5130  -26.0627  -45.0878 C.3       1 UNK         0.0853 
      6 C6         16.2694  -26.2013  -46.0077 C.3       10 UNK        -0.0849 
      7 S7         14.8800  -27.0829  -45.2165 S.3       10 UNK        -0.2776 
      8 C8         15.1171  -28.8006  -45.7827 C.3       10 UNK         0.0316 
      9 C9         16.3530  -29.4539  -45.1749 C.ar      10 UNK        -0.0863 
     10 C10        17.5698  -29.4199  -45.8620 C.ar      10 UNK        -0.1009 
     11 C11        18.7122  -30.0232  -45.3298 C.ar      10 UNK        -0.0712 
     12 C12        18.6127  -30.7076  -44.1132 C.ar      10 UNK        -0.0894 
     13 C13        17.4114  -30.7374  -43.4039 C.ar      10 UNK        -0.0745 
     14 C14        16.2810  -30.1099  -43.9407 C.ar      10 UNK        -0.0972 
     15 C15        17.3430  -31.4595  -42.0641 C.3       10 UNK         0.0209 
     16 S16        17.1399  -30.3060  -40.6702 S.3       10 UNK        -0.2568 
     17 C17        18.8327  -29.6736  -40.3545 C.3       10 UNK        -0.0983 
     18 CA         19.4116  -28.6866  -41.4153 C.3       3 UNK         0.0876 
     19 N          18.3927  -27.8039  -41.9940 N.am      3 UNK        -0.4424 
     20 C          17.7701  -26.7813  -41.3951 C.2       2 UNK         0.4918 
     21 O          18.0785  -26.3124  -40.2984 O.2       2 UNK        -0.4875 
     22 CA         16.5768  -26.1958  -42.1601 C.3       2 UNK         0.0481 
     23 CB         15.4121  -25.8607  -41.2124 C.3       2 UNK        -0.1831 
     24 N          16.9732  -24.9811  -42.8715 N.am      2 UNK        -0.4498 
     25 C          17.4131  -24.8450  -44.1322 C.2       1 UNK         0.5027 
     26 O          17.7308  -23.7370  -44.5678 O.2       1 UNK        -0.4969 
     27 C          20.6593  -27.9221  -40.9148 C.2       3 UNK         0.5005 
     28 O          21.1696  -28.2171  -39.8346 O.2       3 UNK        -0.5279 
     29 N          21.1034  -26.9200  -41.6840 N.am      4 UNK        -0.4463 
     30 CA         22.1774  -26.0026  -41.3072 C.3       4 UNK         0.0283 
     31 CB         21.9741  -24.6568  -42.0221 C.3       4 UNK        -0.1875 
     32 C          23.5698  -26.5699  -41.6099 C.2       4 UNK         0.4949 
     33 O          24.4566  -26.4711  -40.7604 O.2       4 UNK        -0.5039 
     34 N          23.7483  -27.1393  -42.8116 N.am      5 UNK        -0.4663 
     35 CA         25.0305  -27.6542  -43.3050 C.3       5 UNK         0.0242 
     36 CB         24.8928  -28.0573  -44.7815 C.3       5 UNK        -0.1982 
     37 C          25.5148  -28.8346  -42.4515 C.2       5 UNK         0.5017 
     38 O          24.8352  -29.8596  -42.4028 O.2       5 UNK        -0.5012 
     39 N          26.6271  -28.6480  -41.7262 N.am      6 UNK        -0.4439 
     40 CA         27.1924  -29.5888  -40.7438 C.3       6 UNK         0.0297 
     41 CB         27.7914  -30.8166  -41.4631 C.3       6 UNK        -0.2006 
     42 C          26.2067  -29.9965  -39.6220 C.2       6 UNK         0.4892 
     43 O          26.3830  -31.0530  -39.0138 O.2       6 UNK        -0.5089 
     44 N          25.1804  -29.1617  -39.3908 N.am      7 UNK        -0.4243 
     45 CA         24.0410  -29.3624  -38.4924 C.3       7 UNK         0.0196 
     46 CB         24.5058  -29.3727  -37.0196 C.3       7 UNK        -0.2007 
     47 C          23.1491  -30.5776  -38.8428 C.2       7 UNK         0.5020 
     48 O          22.4554  -31.0717  -37.9511 O.2       7 UNK        -0.5147 
     49 N          23.1591  -31.0526  -40.1019 N.am      8 UNK        -0.4734 
     50 CA         22.3920  -32.2412  -40.5101 C.3       8 UNK         0.0238 
     51 CB         23.0627  -33.5165  -39.9545 C.3       8 UNK        -0.1912 
     52 C          22.1669  -32.4068  -42.0229 C.2       8 UNK         0.5038 
     53 O          21.2257  -33.1083  -42.3944 O.2       8 UNK        -0.5046 
     54 N          23.0362  -31.8323  -42.8644 N.am      9 UNK        -0.4200 
     55 CA         23.1741  -32.1147  -44.3065 C.3       9 UNK         0.0839 
     56 C          23.6957  -33.5507  -44.6257 C.2       9 UNK         0.5513 
     57 N          24.3188  -34.2516  -43.6853 N.am      9 UNK        -0.7519 
     58 O          23.5656  -34.0311  -45.7489 O.2       9 UNK        -0.4960 
     59 C59        21.9314  -31.7268  -45.1556 C.3       10 UNK        -0.0876 
     60 S60        21.5200  -29.9540  -45.0533 S.3       10 UNK        -0.2414 
     61 C61        20.0263  -29.9187  -46.1008 C.3       10 UNK         0.0169 
     62 H62        21.7916  -25.2150  -45.9826 H         1 UNK         0.0903 
     63 H63        21.7359  -26.9297  -46.3984 H         1 UNK         0.0903 
     64 H64        20.8250  -25.7602  -47.3568 H         1 UNK         0.0903 
     65 H65        18.6320  -25.6323  -46.8292 H         1 UNK         0.3096 
     66 H66        17.6126  -26.9757  -44.5066 H         1 UNK         0.1121 
     67 H67        15.9192  -25.2245  -46.3479 H         1 UNK         0.0849 
     68 H68        16.5263  -26.7430  -46.9191 H         1 UNK         0.0849 
     69 H69        14.2320  -29.3802  -45.5159 H         1 UNK         0.0865 
     70 H70        15.1692  -28.8231  -46.8725 H         1 UNK         0.0865 
     71 H71        17.6318  -28.9105  -46.8139 H         1 UNK         0.1346 
     72 H72        19.4759  -31.2027  -43.6933 H         1 UNK         0.1412 
     73 H73        15.3456  -30.1366  -43.3978 H         1 UNK         0.1426 
     74 H74        18.2277  -32.0772  -41.8992 H         1 UNK         0.0716 
     75 H75        16.4929  -32.1429  -42.0772 H         1 UNK         0.0716 
     76 H76        18.7821  -29.1818  -39.3812 H         1 UNK         0.0695 
     77 H77        19.5066  -30.5216  -40.2235 H         1 UNK         0.0695 
     78 H78        19.7886  -29.2846  -42.2424 H         1 UNK         0.0983 
     79 H79        18.0658  -28.1009  -42.9013 H         1 UNK         0.3095 
     80 H80        16.2058  -26.9573  -42.8407 H         1 UNK         0.0454 
     81 H81        15.6760  -25.0814  -40.4965 H         1 UNK         0.0851 
     82 H82        15.1116  -26.7400  -40.6408 H         1 UNK         0.0851 
     83 H83        14.5371  -25.5228  -41.7679 H         1 UNK         0.0851 
     84 H84        16.9655  -24.1472  -42.3023 H         1 UNK         0.2976 
     85 H85        20.6562  -26.7612  -42.5895 H         1 UNK         0.3116 
     86 H86        22.1193  -25.8171  -40.2323 H         1 UNK         0.0646 
     87 H87        22.0154  -24.7610  -43.1070 H         1 UNK         0.0847 
     88 H88        22.7450  -23.9412  -41.7333 H         1 UNK         0.0847 
     89 H89        21.0102  -24.2159  -41.7668 H         1 UNK         0.0847 
     90 H90        22.9516  -27.2278  -43.4264 H         1 UNK         0.3040 
     91 H91        25.7611  -26.8447  -43.2431 H         1 UNK         0.1015 
     92 H92        24.1954  -28.8836  -44.9118 H         1 UNK         0.0786 
     93 H93        25.8528  -28.3795  -45.1868 H         1 UNK         0.0786 
     94 H94        24.5454  -27.2243  -45.3930 H         1 UNK         0.0786 
     95 H95        27.0954  -27.7539  -41.7911 H         1 UNK         0.3172 
     96 H96        28.0095  -29.0610  -40.2498 H         1 UNK         0.0595 
     97 H97        27.0184  -31.4318  -41.9250 H         1 UNK         0.0839 
     98 H98        28.3381  -31.4528  -40.7660 H         1 UNK         0.0839 
     99 H99        28.4925  -30.5181  -42.2423 H         1 UNK         0.0839 
    100 H100       25.1331  -28.3154  -39.9491 H         1 UNK         0.2998 
    101 H101       23.4127  -28.4814  -38.6215 H         1 UNK         0.0822 
    102 H102       25.1241  -28.5044  -36.7919 H         1 UNK         0.0787 
    103 H103       23.6535  -29.3468  -36.3394 H         1 UNK         0.0787 
    104 H104       25.0819  -30.2678  -36.7833 H         1 UNK         0.0787 
    105 H105       23.7303  -30.5885  -40.7995 H         1 UNK         0.3055 
    106 H106       21.3938  -32.1638  -40.0730 H         1 UNK         0.1106 
    107 H107       22.5484  -34.4168  -40.2947 H         1 UNK         0.0828 
    108 H108       24.1028  -33.5928  -40.2731 H         1 UNK         0.0828 
    109 H109       23.0474  -33.5392  -38.8651 H         1 UNK         0.0828 
    110 H110       23.7577  -31.2084  -42.5103 H         1 UNK         0.2931 
    111 H111       23.9869  -31.4660  -44.6347 H         1 UNK         0.0412 
    112 H112       24.6618  -35.1739  -43.9040 H         1 UNK         0.3472 
    113 H113       24.4583  -33.8649  -42.7665 H         1 UNK         0.3472 
    114 H114       22.1162  -31.9429  -46.2093 H         1 UNK         0.0970 
    115 H115       21.0668  -32.3299  -44.8786 H         1 UNK         0.0970 
    116 H116       20.0689  -30.7158  -46.8438 H         1 UNK         0.0612 
    117 H117       20.0443  -28.9824  -46.6597 H         1 UNK         0.0612 
@<TRIPOS>BOND
     1    1    2 1    
     2    1   62 1    
     3    1   63 1    
     4    1   64 1    
     5    2    3 2    
     6    2    4 am   BACKBONE|DICT|INTERRES
     7    4    5 1    
     8    4   65 1    
     9    5    6 1    
    10    5   25 1    
    11    5   66 1    
    12    6    7 1    
    13    6   67 1    
    14    6   68 1    
    15    7    8 1    
    16    8    9 1    
    17    8   69 1    
    18    8   70 1    
    19    9   10 ar   
    20    9   14 ar   
    21   10   11 ar   
    22   10   71 1    
    23   11   12 ar   
    24   11   61 1    
    25   12   13 ar   
    26   12   72 1    
    27   13   14 ar   
    28   13   15 1    
    29   14   73 1    
    30   15   16 1    
    31   15   74 1    
    32   15   75 1    
    33   16   17 1    
    34   17   18 1    
    35   17   76 1    
    36   17   77 1    
    37   18   19 1    
    38   18   27 1    
    39   18   78 1    
    40   19   20 am   BACKBONE|DICT|INTERRES
    41   19   79 1    
    42   20   21 2    
    43   20   22 1    
    44   22   23 1    
    45   22   24 1    
    46   22   80 1    
    47   23   81 1    
    48   23   82 1    
    49   23   83 1    
    50   24   25 am   BACKBONE|DICT|INTERRES
    51   24   84 1    
    52   25   26 2    
    53   27   28 2    
    54   27   29 am   BACKBONE|DICT|INTERRES
    55   29   30 1    
    56   29   85 1    
    57   30   31 1    
    58   30   32 1    
    59   30   86 1    
    60   31   87 1    
    61   31   88 1    
    62   31   89 1    
    63   32   33 2    
    64   32   34 am   BACKBONE|DICT|INTERRES
    65   34   35 1    
    66   34   90 1    
    67   35   36 1    
    68   35   37 1    
    69   35   91 1    
    70   36   92 1    
    71   36   93 1    
    72   36   94 1    
    73   37   38 2    
    74   37   39 am   BACKBONE|DICT|INTERRES
    75   39   40 1    
    76   39   95 1    
    77   40   41 1    
    78   40   42 1    
    79   40   96 1    
    80   41   97 1    
    81   41   98 1    
    82   41   99 1    
    83   42   43 2    
    84   42   44 am   BACKBONE|DICT|INTERRES
    85   44   45 1    
    86   44  100 1    
    87   45   46 1    
    88   45   47 1    
    89   45  101 1    
    90   46  102 1    
    91   46  103 1    
    92   46  104 1    
    93   47   48 2    
    94   47   49 am   BACKBONE|DICT|INTERRES
    95   49   50 1    
    96   49  105 1    
    97   50   51 1    
    98   50   52 1    
    99   50  106 1    
   100   51  107 1    
   101   51  108 1    
   102   51  109 1    
   103   52   53 2    
   104   52   54 am   BACKBONE|DICT|INTERRES
   105   54   55 1    
   106   54  110 1    
   107   55   56 1    
   108   55   59 1    
   109   55  111 1    
   110   56   57 am   BACKBONE|DICT|INTERRES
   111   56   58 2    
   112   57  112 1    
   113   57  113 1    
   114   59   60 1    
   115   59  114 1    
   116   59  115 1    
   117   60   61 1    
   118   61  116 1    
   119   61  117 1    
@<TRIPOS>SUBSTRUCTURE
     1 UNK         1 GROUP             0       ****    0 ROOT    
