@<TRIPOS>MOLECULE
3R8
117   119    1
SMALL
USER_CHARGES


@<TRIPOS>ATOM
      1 CA         15.8602  -22.3270  -42.7631 C.3       0 UNK        -0.2013 
      2 C          16.1408  -23.3108  -43.8890 C.2       0 UNK         0.4866 
      3 O          16.1001  -22.9305  -45.0598 O.2       0 UNK        -0.5176 
      4 N          16.4145  -24.5750  -43.5444 N.am      1 UNK        -0.4884 
      5 CA         16.7875  -25.6476  -44.4726 C.3       1 UNK         0.0853 
      6 C6         16.6318  -27.0638  -43.8456 C.3       10 UNK        -0.0849 
      7 S7         16.9068  -27.2025  -42.0359 S.3       10 UNK        -0.2776 
      8 C8         18.6878  -27.5391  -41.8734 C.3       10 UNK         0.0316 
      9 C9         19.1160  -28.8019  -42.6037 C.ar      10 UNK        -0.0863 
     10 C10        18.9691  -30.0633  -42.0217 C.ar      10 UNK        -0.1009 
     11 C11        19.4081  -31.2084  -42.6967 C.ar      10 UNK        -0.0712 
     12 C12        20.0092  -31.0816  -43.9561 C.ar      10 UNK        -0.0894 
     13 C13        20.1442  -29.8232  -44.5526 C.ar      10 UNK        -0.0745 
     14 C14        19.6867  -28.6960  -43.8695 C.ar      10 UNK        -0.0972 
     15 C15        20.7230  -29.6704  -45.9546 C.3       10 UNK         0.0209 
     16 S16        22.5168  -29.3193  -45.9983 S.3       10 UNK        -0.2568 
     17 C17        22.7665  -27.8958  -44.8771 C.3       10 UNK        -0.0983 
     18 CA         22.5436  -26.4994  -45.5148 C.3       3 UNK         0.0876 
     19 N          21.1957  -26.3488  -46.0776 N.am      3 UNK        -0.4424 
     20 C          20.8159  -25.3719  -46.9084 C.2       2 UNK         0.4918 
     21 O          21.5765  -24.5006  -47.3302 O.2       2 UNK        -0.4875 
     22 CA         19.3405  -25.3526  -47.3497 C.3       2 UNK         0.0481 
     23 CB         19.1758  -26.1590  -48.6484 C.3       2 UNK        -0.1831 
     24 N          18.3230  -25.7943  -46.3800 N.am      2 UNK        -0.4498 
     25 C          18.1776  -25.3968  -45.1047 C.2       1 UNK         0.5027 
     26 O          19.0629  -24.8457  -44.4464 O.2       1 UNK        -0.4969 
     27 C          22.8978  -25.3915  -44.4910 C.2       3 UNK         0.5005 
     28 O          24.0810  -25.2148  -44.1983 O.2       3 UNK        -0.5279 
     29 N          21.8857  -24.6859  -43.9534 N.am      4 UNK        -0.4463 
     30 CA         21.9564  -23.6161  -42.9445 C.3       4 UNK         0.0283 
     31 CB         22.7963  -22.4227  -43.4465 C.3       4 UNK        -0.1875 
     32 C          22.3869  -24.0879  -41.5395 C.2       4 UNK         0.4949 
     33 O          22.6497  -23.2544  -40.6717 O.2       4 UNK        -0.5039 
     34 N          22.4192  -25.4057  -41.3274 N.am      5 UNK        -0.4663 
     35 CA         22.7513  -26.1094  -40.0943 C.3       5 UNK         0.0242 
     36 CB         24.2635  -26.0125  -39.8118 C.3       5 UNK        -0.1982 
     37 C          22.3253  -27.5698  -40.2848 C.2       5 UNK         0.5017 
     38 O          22.0920  -27.9861  -41.4220 O.2       5 UNK        -0.5012 
     39 N          22.2439  -28.3299  -39.1869 N.am      6 UNK        -0.4439 
     40 CA         21.9588  -29.7653  -39.2088 C.3       6 UNK         0.0297 
     41 CB         21.5186  -30.2236  -37.8074 C.3       6 UNK        -0.2006 
     42 C          23.1865  -30.5455  -39.7096 C.2       6 UNK         0.4892 
     43 O          24.0669  -30.8823  -38.9141 O.2       6 UNK        -0.5089 
     44 N          23.2392  -30.7889  -41.0242 N.am      7 UNK        -0.4243 
     45 CA         24.3098  -31.4994  -41.7270 C.3       7 UNK         0.0196 
     46 CB         24.2328  -31.1401  -43.2214 C.3       7 UNK        -0.2007 
     47 C          24.2507  -33.0195  -41.4811 C.2       7 UNK         0.5020 
     48 O          23.9858  -33.7871  -42.4087 O.2       7 UNK        -0.5147 
     49 N          24.4621  -33.4205  -40.2196 N.am      8 UNK        -0.4734 
     50 CA         24.3744  -34.7706  -39.6397 C.3       8 UNK         0.0238 
     51 CB         25.3540  -35.7546  -40.3098 C.3       8 UNK        -0.1912 
     52 C          22.9407  -35.3288  -39.6073 C.2       8 UNK         0.5038 
     53 O          22.4763  -35.7301  -38.5397 O.2       8 UNK        -0.5046 
     54 N          22.2660  -35.3076  -40.7623 N.am      9 UNK        -0.4200 
     55 CA         20.8402  -35.6131  -40.9642 C.3       9 UNK         0.0839 
     56 C          20.4369  -37.0957  -40.7017 C.2       9 UNK         0.5513 
     57 N          21.3708  -38.0391  -40.6841 N.am      9 UNK        -0.7519 
     58 O          19.2583  -37.4049  -40.5443 O.2       9 UNK        -0.4960 
     59 C59        19.9032  -34.5938  -40.2519 C.3       10 UNK        -0.0876 
     60 S60        20.3015  -32.8590  -40.6641 S.3       10 UNK        -0.2414 
     61 C61        19.1962  -32.5820  -42.0779 C.3       10 UNK         0.0169 
     62 H62        15.9134  -22.8024  -41.7838 H         1 UNK         0.0903 
     63 H63        16.5866  -21.5151  -42.7856 H         1 UNK         0.0903 
     64 H64        14.8652  -21.8981  -42.8782 H         1 UNK         0.0903 
     65 H65        16.4509  -24.8351  -42.5681 H         1 UNK         0.3096 
     66 H66        16.0719  -25.5905  -45.2968 H         1 UNK         0.1121 
     67 H67        15.5974  -27.3770  -43.9957 H         1 UNK         0.0849 
     68 H68        17.2098  -27.8144  -44.3841 H         1 UNK         0.0849 
     69 H69        19.2518  -26.6766  -42.2329 H         1 UNK         0.0865 
     70 H70        18.9346  -27.6344  -40.8149 H         1 UNK         0.0865 
     71 H71        18.5142  -30.1555  -41.0450 H         1 UNK         0.1346 
     72 H72        20.3488  -31.9628  -44.4829 H         1 UNK         0.1412 
     73 H73        19.7814  -27.7194  -44.3124 H         1 UNK         0.1426 
     74 H74        20.1871  -28.8907  -46.4960 H         1 UNK         0.0716 
     75 H75        20.5455  -30.5858  -46.5210 H         1 UNK         0.0716 
     76 H76        23.8002  -27.9682  -44.5338 H         1 UNK         0.0695 
     77 H77        22.1720  -28.0218  -43.9767 H         1 UNK         0.0695 
     78 H78        23.2520  -26.3952  -46.3398 H         1 UNK         0.0983 
     79 H79        20.5151  -27.0400  -45.8117 H         1 UNK         0.3095 
     80 H80        19.1036  -24.3114  -47.5770 H         1 UNK         0.0454 
     81 H81        19.8973  -25.8412  -49.4029 H         1 UNK         0.0851 
     82 H82        18.1842  -26.0230  -49.0802 H         1 UNK         0.0851 
     83 H83        19.3277  -27.2263  -48.4834 H         1 UNK         0.0851 
     84 H84        17.5431  -26.2849  -46.7946 H         1 UNK         0.2976 
     85 H85        20.9382  -24.8980  -44.2604 H         1 UNK         0.3116 
     86 H86        20.9306  -23.2623  -42.8307 H         1 UNK         0.0646 
     87 H87        23.8568  -22.6680  -43.5058 H         1 UNK         0.0847 
     88 H88        22.7011  -21.5682  -42.7755 H         1 UNK         0.0847 
     89 H89        22.4704  -22.0952  -44.4336 H         1 UNK         0.0847 
     90 H90        22.1671  -26.0324  -42.0827 H         1 UNK         0.3040 
     91 H91        22.1816  -25.6759  -39.2696 H         1 UNK         0.1015 
     92 H92        24.8506  -26.4275  -40.6324 H         1 UNK         0.0786 
     93 H93        24.5333  -26.5591  -38.9074 H         1 UNK         0.0786 
     94 H94        24.5788  -24.9793  -39.6662 H         1 UNK         0.0786 
     95 H95        22.4841  -27.9286  -38.2917 H         1 UNK         0.3172 
     96 H96        21.1272  -29.9495  -39.8929 H         1 UNK         0.0595 
     97 H97        22.2862  -30.0361  -37.0555 H         1 UNK         0.0839 
     98 H98        21.3097  -31.2944  -37.7999 H         1 UNK         0.0839 
     99 H99        20.6075  -29.7150  -37.4922 H         1 UNK         0.0839 
    100 H100       22.4804  -30.4410  -41.5964 H         1 UNK         0.2998 
    101 H101       25.2708  -31.1450  -41.3481 H         1 UNK         0.0822 
    102 H102       24.3583  -30.0687  -43.3751 H         1 UNK         0.0787 
    103 H103       25.0176  -31.6421  -43.7885 H         1 UNK         0.0787 
    104 H104       23.2757  -31.4298  -43.6580 H         1 UNK         0.0787 
    105 H105       24.5827  -32.6719  -39.5412 H         1 UNK         0.3055 
    106 H106       24.6862  -34.6626  -38.5992 H         1 UNK         0.1106 
    107 H107       25.3423  -36.7191  -39.8005 H         1 UNK         0.0828 
    108 H108       25.1057  -35.9398  -41.3550 H         1 UNK         0.0828 
    109 H109       26.3773  -35.3813  -40.2709 H         1 UNK         0.0828 
    110 H110       22.7560  -34.9261  -41.5672 H         1 UNK         0.2931 
    111 H111       20.6833  -35.4834  -42.0355 H         1 UNK         0.0412 
    112 H112       22.3395  -37.7984  -40.8214 H         1 UNK         0.3472 
    113 H113       21.1041  -38.9981  -40.5246 H         1 UNK         0.3472 
    114 H114       18.8589  -34.7843  -40.5055 H         1 UNK         0.0970 
    115 H115       19.9723  -34.7107  -39.1692 H         1 UNK         0.0970 
    116 H116       18.1599  -32.6758  -41.7502 H         1 UNK         0.0612 
    117 H117       19.3610  -33.3653  -42.8194 H         1 UNK         0.0612 
@<TRIPOS>BOND
     1    1    2 1    
     2    1   62 1    
     3    1   63 1    
     4    1   64 1    
     5    2    3 2    
     6    2    4 am   BACKBONE|DICT|INTERRES
     7    4    5 1    
     8    4   65 1    
     9    5    6 1    
    10    5   25 1    
    11    5   66 1    
    12    6    7 1    
    13    6   67 1    
    14    6   68 1    
    15    7    8 1    
    16    8    9 1    
    17    8   69 1    
    18    8   70 1    
    19    9   10 ar   
    20    9   14 ar   
    21   10   11 ar   
    22   10   71 1    
    23   11   12 ar   
    24   11   61 1    
    25   12   13 ar   
    26   12   72 1    
    27   13   14 ar   
    28   13   15 1    
    29   14   73 1    
    30   15   16 1    
    31   15   74 1    
    32   15   75 1    
    33   16   17 1    
    34   17   18 1    
    35   17   76 1    
    36   17   77 1    
    37   18   19 1    
    38   18   27 1    
    39   18   78 1    
    40   19   20 am   BACKBONE|DICT|INTERRES
    41   19   79 1    
    42   20   21 2    
    43   20   22 1    
    44   22   23 1    
    45   22   24 1    
    46   22   80 1    
    47   23   81 1    
    48   23   82 1    
    49   23   83 1    
    50   24   25 am   BACKBONE|DICT|INTERRES
    51   24   84 1    
    52   25   26 2    
    53   27   28 2    
    54   27   29 am   BACKBONE|DICT|INTERRES
    55   29   30 1    
    56   29   85 1    
    57   30   31 1    
    58   30   32 1    
    59   30   86 1    
    60   31   87 1    
    61   31   88 1    
    62   31   89 1    
    63   32   33 2    
    64   32   34 am   BACKBONE|DICT|INTERRES
    65   34   35 1    
    66   34   90 1    
    67   35   36 1    
    68   35   37 1    
    69   35   91 1    
    70   36   92 1    
    71   36   93 1    
    72   36   94 1    
    73   37   38 2    
    74   37   39 am   BACKBONE|DICT|INTERRES
    75   39   40 1    
    76   39   95 1    
    77   40   41 1    
    78   40   42 1    
    79   40   96 1    
    80   41   97 1    
    81   41   98 1    
    82   41   99 1    
    83   42   43 2    
    84   42   44 am   BACKBONE|DICT|INTERRES
    85   44   45 1    
    86   44  100 1    
    87   45   46 1    
    88   45   47 1    
    89   45  101 1    
    90   46  102 1    
    91   46  103 1    
    92   46  104 1    
    93   47   48 2    
    94   47   49 am   BACKBONE|DICT|INTERRES
    95   49   50 1    
    96   49  105 1    
    97   50   51 1    
    98   50   52 1    
    99   50  106 1    
   100   51  107 1    
   101   51  108 1    
   102   51  109 1    
   103   52   53 2    
   104   52   54 am   BACKBONE|DICT|INTERRES
   105   54   55 1    
   106   54  110 1    
   107   55   56 1    
   108   55   59 1    
   109   55  111 1    
   110   56   57 am   BACKBONE|DICT|INTERRES
   111   56   58 2    
   112   57  112 1    
   113   57  113 1    
   114   59   60 1    
   115   59  114 1    
   116   59  115 1    
   117   60   61 1    
   118   61  116 1    
   119   61  117 1    
@<TRIPOS>SUBSTRUCTURE
     1 UNK         1 GROUP             0       ****    0 ROOT    
