@<TRIPOS>MOLECULE
3R8
117   119    1
SMALL
USER_CHARGES


@<TRIPOS>ATOM
      1 CA         14.8547  -24.4727  -46.1965 C.3       0 UNK        -0.2013 
      2 C          16.3429  -24.7254  -46.3871 C.2       0 UNK         0.4866 
      3 O          17.0847  -23.7988  -46.7160 O.2       0 UNK        -0.5176 
      4 N          16.7835  -25.9741  -46.1925 N.am      1 UNK        -0.4884 
      5 CA         18.1891  -26.3881  -46.2499 C.3       1 UNK         0.0853 
      6 C6         18.3187  -27.9087  -46.5229 C.3       10 UNK        -0.0849 
      7 S7         17.4975  -28.9543  -45.2702 S.3       10 UNK        -0.2776 
      8 C8         18.7549  -30.2348  -44.9792 C.3       10 UNK         0.0316 
      9 C9         18.5352  -30.8869  -43.6269 C.ar      10 UNK        -0.0863 
     10 C10        17.5809  -31.8952  -43.4697 C.ar      10 UNK        -0.1009 
     11 C11        17.3834  -32.4956  -42.2222 C.ar      10 UNK        -0.0712 
     12 C12        18.1276  -32.0547  -41.1217 C.ar      10 UNK        -0.0894 
     13 C13        19.0755  -31.0362  -41.2671 C.ar      10 UNK        -0.0745 
     14 C14        19.2862  -30.4707  -42.5267 C.ar      10 UNK        -0.0972 
     15 C15        19.8844  -30.5552  -40.0714 C.3       10 UNK         0.0209 
     16 S16        19.1056  -29.1433  -39.2153 S.3       10 UNK        -0.2568 
     17 C17        19.0887  -27.8052  -40.4642 C.3       10 UNK        -0.0983 
     18 CA         20.4886  -27.3292  -40.9294 C.3       3 UNK         0.0876 
     19 N          20.4134  -26.5662  -42.1826 N.am      3 UNK        -0.4424 
     20 C          21.4722  -26.1876  -42.9093 C.2       2 UNK         0.4918 
     21 O          22.6266  -26.5151  -42.6260 O.2       2 UNK        -0.4875 
     22 CA         21.1985  -25.2598  -44.1116 C.3       2 UNK         0.0481 
     23 CB         22.4901  -24.8096  -44.8169 C.3       2 UNK        -0.1831 
     24 N          20.2925  -25.8317  -45.1120 N.am      2 UNK        -0.4498 
     25 C          18.9619  -25.9311  -44.9903 C.2       1 UNK         0.5027 
     26 O          18.3571  -25.6712  -43.9445 O.2       1 UNK        -0.4969 
     27 C          21.2554  -26.5648  -39.8270 C.2       3 UNK         0.5005 
     28 O          22.0149  -27.1800  -39.0784 O.2       3 UNK        -0.5279 
     29 N          21.1272  -25.2287  -39.8104 N.am      4 UNK        -0.4463 
     30 CA         21.8834  -24.3181  -38.9422 C.3       4 UNK         0.0283 
     31 CB         21.3283  -22.8935  -39.0999 C.3       4 UNK        -0.1875 
     32 C          23.4063  -24.3289  -39.1890 C.2       4 UNK         0.4949 
     33 O          24.1614  -24.0006  -38.2744 O.2       4 UNK        -0.5039 
     34 N          23.8315  -24.7204  -40.3991 N.am      5 UNK        -0.4663 
     35 CA         25.2358  -24.9078  -40.7766 C.3       5 UNK         0.0242 
     36 CB         25.4311  -24.4215  -42.2230 C.3       5 UNK        -0.1982 
     37 C          25.6884  -26.3743  -40.6350 C.2       5 UNK         0.5017 
     38 O          26.8219  -26.6814  -41.0058 O.2       5 UNK        -0.5012 
     39 N          24.8077  -27.2492  -40.1223 N.am      6 UNK        -0.4439 
     40 CA         24.9839  -28.6932  -39.9466 C.3       6 UNK         0.0297 
     41 CB         26.0886  -28.9972  -38.9113 C.3       6 UNK        -0.2006 
     42 C          25.1718  -29.4462  -41.2781 C.2       6 UNK         0.4892 
     43 O          26.0144  -30.3419  -41.3597 O.2       6 UNK        -0.5089 
     44 N          24.3662  -29.0899  -42.2934 N.am      7 UNK        -0.4243 
     45 CA         24.3265  -29.7664  -43.5988 C.3       7 UNK         0.0196 
     46 CB         23.4163  -28.9814  -44.5573 C.3       7 UNK        -0.2007 
     47 C          23.8785  -31.2408  -43.5278 C.2       7 UNK         0.5020 
     48 O          24.3126  -32.0358  -44.3621 O.2       7 UNK        -0.5147 
     49 N          23.0495  -31.5612  -42.5212 N.am      8 UNK        -0.4734 
     50 CA         22.4773  -32.8703  -42.1745 C.3       8 UNK         0.0238 
     51 CB         23.5878  -33.9142  -41.9283 C.3       8 UNK        -0.1912 
     52 C          21.4269  -33.3868  -43.1768 C.2       8 UNK         0.5038 
     53 O          21.3320  -32.9025  -44.3065 O.2       8 UNK        -0.5046 
     54 N          20.6412  -34.3687  -42.7166 N.am      9 UNK        -0.4200 
     55 CA         19.5416  -34.9925  -43.4702 C.3       9 UNK         0.0839 
     56 C          19.9867  -36.0741  -44.4987 C.2       9 UNK         0.5513 
     57 N          21.2574  -36.4550  -44.5570 N.am      9 UNK        -0.7519 
     58 O          19.1664  -36.5742  -45.2637 O.2       9 UNK        -0.4960 
     59 C59        18.4291  -35.5075  -42.5080 C.3       10 UNK        -0.0876 
     60 S60        16.7537  -35.0754  -43.0904 S.3       10 UNK        -0.2414 
     61 C61        16.3637  -33.6175  -42.0632 C.3       10 UNK         0.0169 
     62 H62        14.6976  -23.7357  -45.4095 H         1 UNK         0.0903 
     63 H63        14.4182  -24.0870  -47.1174 H         1 UNK         0.0903 
     64 H64        14.3188  -25.3812  -45.9219 H         1 UNK         0.0903 
     65 H65        16.1418  -26.6915  -45.8840 H         1 UNK         0.3096 
     66 H66        18.6429  -25.8693  -47.0980 H         1 UNK         0.1121 
     67 H67        17.8720  -28.1415  -47.4909 H         1 UNK         0.0849 
     68 H68        19.3696  -28.1864  -46.6192 H         1 UNK         0.0849 
     69 H69        18.7092  -30.9834  -45.7717 H         1 UNK         0.0865 
     70 H70        19.7557  -29.8021  -45.0209 H         1 UNK         0.0865 
     71 H71        16.9996  -32.2223  -44.3210 H         1 UNK         0.1346 
     72 H72        17.9700  -32.5031  -40.1503 H         1 UNK         0.1412 
     73 H73        20.0235  -29.6915  -42.6528 H         1 UNK         0.1426 
     74 H74        20.8997  -30.2992  -40.3729 H         1 UNK         0.0716 
     75 H75        19.9922  -31.3699  -39.3536 H         1 UNK         0.0716 
     76 H76        18.5037  -28.1535  -41.3161 H         1 UNK         0.0695 
     77 H77        18.5208  -26.9673  -40.0555 H         1 UNK         0.0695 
     78 H78        21.0927  -28.2064  -41.1589 H         1 UNK         0.0983 
     79 H79        19.4935  -26.2785  -42.5072 H         1 UNK         0.3095 
     80 H80        20.7268  -24.3613  -43.7083 H         1 UNK         0.0454 
     81 H81        23.1337  -24.2595  -44.1313 H         1 UNK         0.0851 
     82 H82        23.0619  -25.6547  -45.2013 H         1 UNK         0.0851 
     83 H83        22.2768  -24.1413  -45.6512 H         1 UNK         0.0851 
     84 H84        20.7192  -26.1024  -45.9866 H         1 UNK         0.2976 
     85 H85        20.4864  -24.8035  -40.4651 H         1 UNK         0.3116 
     86 H86        21.7206  -24.6360  -37.9101 H         1 UNK         0.0646 
     87 H87        21.8504  -22.1966  -38.4424 H         1 UNK         0.0847 
     88 H88        20.2705  -22.8467  -38.8407 H         1 UNK         0.0847 
     89 H89        21.4430  -22.5248  -40.1200 H         1 UNK         0.0847 
     90 H90        23.1496  -25.0108  -41.0880 H         1 UNK         0.3040 
     91 H91        25.8770  -24.3071  -40.1277 H         1 UNK         0.1015 
     92 H92        25.0359  -23.4158  -42.3665 H         1 UNK         0.0786 
     93 H93        24.9449  -25.0859  -42.9374 H         1 UNK         0.0786 
     94 H94        26.4900  -24.3922  -42.4831 H         1 UNK         0.0786 
     95 H95        23.9016  -26.8963  -39.8320 H         1 UNK         0.3172 
     96 H96        24.0445  -29.0591  -39.5299 H         1 UNK         0.0595 
     97 H97        25.9113  -28.4681  -37.9750 H         1 UNK         0.0839 
     98 H98        27.0769  -28.7150  -39.2751 H         1 UNK         0.0839 
     99 H99        26.1222  -30.0622  -38.6783 H         1 UNK         0.0839 
    100 H100       23.7559  -28.2884  -42.1793 H         1 UNK         0.2998 
    101 H101       25.3402  -29.7546  -44.0050 H         1 UNK         0.0822 
    102 H102       23.7783  -27.9633  -44.6991 H         1 UNK         0.0787 
    103 H103       23.3854  -29.4526  -45.5407 H         1 UNK         0.0787 
    104 H104       22.3911  -28.9290  -44.1892 H         1 UNK         0.0787 
    105 H105       22.7661  -30.7999  -41.9236 H         1 UNK         0.3055 
    106 H106       21.9538  -32.7141  -41.2296 H         1 UNK         0.1106 
    107 H107       24.3393  -33.5364  -41.2347 H         1 UNK         0.0828 
    108 H108       24.0968  -34.1936  -42.8512 H         1 UNK         0.0828 
    109 H109       23.1837  -34.8294  -41.4947 H         1 UNK         0.0828 
    110 H110       20.8003  -34.7310  -41.7884 H         1 UNK         0.2931 
    111 H111       19.1121  -34.1972  -44.0817 H         1 UNK         0.0412 
    112 H112       21.5335  -37.1533  -45.2298 H         1 UNK         0.3472 
    113 H113       21.9435  -36.0442  -43.9450 H         1 UNK         0.3472 
    114 H114       18.5513  -35.0915  -41.5069 H         1 UNK         0.0970 
    115 H115       18.4850  -36.5891  -42.3701 H         1 UNK         0.0970 
    116 H116       16.2889  -33.9313  -41.0209 H         1 UNK         0.0612 
    117 H117       15.3781  -33.2435  -42.3432 H         1 UNK         0.0612 
@<TRIPOS>BOND
     1    1    2 1    
     2    1   62 1    
     3    1   63 1    
     4    1   64 1    
     5    2    3 2    
     6    2    4 am   BACKBONE|DICT|INTERRES
     7    4    5 1    
     8    4   65 1    
     9    5    6 1    
    10    5   25 1    
    11    5   66 1    
    12    6    7 1    
    13    6   67 1    
    14    6   68 1    
    15    7    8 1    
    16    8    9 1    
    17    8   69 1    
    18    8   70 1    
    19    9   10 ar   
    20    9   14 ar   
    21   10   11 ar   
    22   10   71 1    
    23   11   12 ar   
    24   11   61 1    
    25   12   13 ar   
    26   12   72 1    
    27   13   14 ar   
    28   13   15 1    
    29   14   73 1    
    30   15   16 1    
    31   15   74 1    
    32   15   75 1    
    33   16   17 1    
    34   17   18 1    
    35   17   76 1    
    36   17   77 1    
    37   18   19 1    
    38   18   27 1    
    39   18   78 1    
    40   19   20 am   BACKBONE|DICT|INTERRES
    41   19   79 1    
    42   20   21 2    
    43   20   22 1    
    44   22   23 1    
    45   22   24 1    
    46   22   80 1    
    47   23   81 1    
    48   23   82 1    
    49   23   83 1    
    50   24   25 am   BACKBONE|DICT|INTERRES
    51   24   84 1    
    52   25   26 2    
    53   27   28 2    
    54   27   29 am   BACKBONE|DICT|INTERRES
    55   29   30 1    
    56   29   85 1    
    57   30   31 1    
    58   30   32 1    
    59   30   86 1    
    60   31   87 1    
    61   31   88 1    
    62   31   89 1    
    63   32   33 2    
    64   32   34 am   BACKBONE|DICT|INTERRES
    65   34   35 1    
    66   34   90 1    
    67   35   36 1    
    68   35   37 1    
    69   35   91 1    
    70   36   92 1    
    71   36   93 1    
    72   36   94 1    
    73   37   38 2    
    74   37   39 am   BACKBONE|DICT|INTERRES
    75   39   40 1    
    76   39   95 1    
    77   40   41 1    
    78   40   42 1    
    79   40   96 1    
    80   41   97 1    
    81   41   98 1    
    82   41   99 1    
    83   42   43 2    
    84   42   44 am   BACKBONE|DICT|INTERRES
    85   44   45 1    
    86   44  100 1    
    87   45   46 1    
    88   45   47 1    
    89   45  101 1    
    90   46  102 1    
    91   46  103 1    
    92   46  104 1    
    93   47   48 2    
    94   47   49 am   BACKBONE|DICT|INTERRES
    95   49   50 1    
    96   49  105 1    
    97   50   51 1    
    98   50   52 1    
    99   50  106 1    
   100   51  107 1    
   101   51  108 1    
   102   51  109 1    
   103   52   53 2    
   104   52   54 am   BACKBONE|DICT|INTERRES
   105   54   55 1    
   106   54  110 1    
   107   55   56 1    
   108   55   59 1    
   109   55  111 1    
   110   56   57 am   BACKBONE|DICT|INTERRES
   111   56   58 2    
   112   57  112 1    
   113   57  113 1    
   114   59   60 1    
   115   59  114 1    
   116   59  115 1    
   117   60   61 1    
   118   61  116 1    
   119   61  117 1    
@<TRIPOS>SUBSTRUCTURE
     1 UNK         1 GROUP             0       ****    0 ROOT    
