@<TRIPOS>MOLECULE
3R8
117   119    1
SMALL
USER_CHARGES


@<TRIPOS>ATOM
      1 CA         15.6235  -25.8124  -39.8109 C.3       0 UNK        -0.2013 
      2 C          15.4799  -25.9718  -41.3170 C.2       0 UNK         0.4866 
      3 O          15.0847  -25.0259  -41.9987 O.2       0 UNK        -0.5176 
      4 N          15.8004  -27.1619  -41.8367 N.am      1 UNK        -0.4884 
      5 CA         15.8604  -27.4642  -43.2700 C.3       1 UNK         0.0853 
      6 C6         15.6027  -28.9688  -43.5278 C.3       10 UNK        -0.0849 
      7 S7         14.9220  -29.2865  -45.1882 S.3       10 UNK        -0.2776 
      8 C8         15.4806  -30.9946  -45.4856 C.3       10 UNK         0.0316 
      9 C9         16.9810  -31.0538  -45.7245 C.ar      10 UNK        -0.0863 
     10 C10        17.8421  -31.5330  -44.7327 C.ar      10 UNK        -0.1009 
     11 C11        19.2247  -31.5364  -44.9383 C.ar      10 UNK        -0.0712 
     12 C12        19.7406  -31.0989  -46.1600 C.ar      10 UNK        -0.0894 
     13 C13        18.8882  -30.6233  -47.1595 C.ar      10 UNK        -0.0745 
     14 C14        17.5094  -30.6054  -46.9374 C.ar      10 UNK        -0.0972 
     15 C15        19.4491  -30.1081  -48.4734 C.3       10 UNK         0.0209 
     16 S16        19.7430  -28.3147  -48.4002 S.3       10 UNK        -0.2568 
     17 C17        21.3619  -28.2413  -47.5668 C.3       10 UNK        -0.0983 
     18 CA         21.4314  -27.1268  -46.4974 C.3       3 UNK         0.0876 
     19 N          20.5504  -27.3538  -45.3361 N.am      3 UNK        -0.4424 
     20 C          20.2434  -26.3724  -44.4742 C.2       2 UNK         0.4918 
     21 O          20.4860  -25.1836  -44.6963 O.2       2 UNK        -0.4875 
     22 CA         19.6381  -26.7804  -43.1150 C.3       2 UNK         0.0481 
     23 CB         19.6417  -25.6027  -42.1182 C.3       2 UNK        -0.1831 
     24 N          18.2924  -27.3611  -43.1373 N.am      2 UNK        -0.4498 
     25 C          17.2108  -26.9698  -43.8318 C.2       1 UNK         0.5027 
     26 O          17.2269  -26.1941  -44.7879 O.2       1 UNK        -0.4969 
     27 C          22.8972  -26.9044  -46.0574 C.2       3 UNK         0.5005 
     28 O          23.6296  -26.1826  -46.7366 O.2       3 UNK        -0.5279 
     29 N          23.2917  -27.5030  -44.9261 N.am      4 UNK        -0.4463 
     30 CA         24.5672  -27.2996  -44.2521 C.3       4 UNK         0.0283 
     31 CB         25.6093  -28.3040  -44.7738 C.3       4 UNK        -0.1875 
     32 C          24.3272  -27.4898  -42.7533 C.2       4 UNK         0.4949 
     33 O          23.5734  -28.3881  -42.3731 O.2       4 UNK        -0.5039 
     34 N          24.9848  -26.6672  -41.9270 N.am      5 UNK        -0.4663 
     35 CA         24.8907  -26.7305  -40.4635 C.3       5 UNK         0.0242 
     36 CB         25.5053  -25.4607  -39.8538 C.3       5 UNK        -0.1982 
     37 C          25.5516  -27.9874  -39.8735 C.2       5 UNK         0.5017 
     38 O          25.0713  -28.5084  -38.8671 O.2       5 UNK        -0.5012 
     39 N          26.6136  -28.4731  -40.5338 N.am      6 UNK        -0.4439 
     40 CA         27.3733  -29.6735  -40.1667 C.3       6 UNK         0.0297 
     41 CB         28.6140  -29.7784  -41.0685 C.3       6 UNK        -0.2006 
     42 C          26.5588  -30.9799  -40.2233 C.2       6 UNK         0.4892 
     43 O          26.9191  -31.9403  -39.5424 O.2       6 UNK        -0.5089 
     44 N          25.4758  -30.9914  -41.0133 N.am      7 UNK        -0.4243 
     45 CA         24.5231  -32.0993  -41.1039 C.3       7 UNK         0.0196 
     46 CB         23.7987  -32.0162  -42.4569 C.3       7 UNK        -0.2007 
     47 C          23.5174  -32.1350  -39.9350 C.2       7 UNK         0.5020 
     48 O          22.8027  -33.1280  -39.8015 O.2       7 UNK        -0.5147 
     49 N          23.4681  -31.0669  -39.1201 N.am      8 UNK        -0.4734 
     50 CA         22.6256  -30.8757  -37.9280 C.3       8 UNK         0.0238 
     51 CB         22.9672  -31.9157  -36.8395 C.3       8 UNK        -0.1912 
     52 C          21.1097  -30.7993  -38.2085 C.2       8 UNK         0.5038 
     53 O          20.3163  -30.8796  -37.2694 O.2       8 UNK        -0.5046 
     54 N          20.7335  -30.6186  -39.4789 N.am      9 UNK        -0.4200 
     55 CA         19.3535  -30.4770  -39.9660 C.3       9 UNK         0.0839 
     56 C          18.8122  -29.0187  -39.9532 C.2       9 UNK         0.5513 
     57 N          19.4942  -28.0597  -39.3403 N.am      9 UNK        -0.7519 
     58 O          17.7509  -28.7499  -40.5115 O.2       9 UNK        -0.4960 
     59 C59        19.1679  -31.1771  -41.3377 C.3       10 UNK        -0.0876 
     60 S60        20.3794  -30.6587  -42.6022 S.3       10 UNK        -0.2414 
     61 C61        20.1699  -31.9800  -43.8355 C.3       10 UNK         0.0169 
     62 H62        14.6611  -25.5612  -39.3660 H         1 UNK         0.0903 
     63 H63        15.9885  -26.7244  -39.3381 H         1 UNK         0.0903 
     64 H64        16.3249  -25.0100  -39.5842 H         1 UNK         0.0903 
     65 H65        16.2034  -27.8668  -41.2242 H         1 UNK         0.3096 
     66 H66        15.0707  -26.8937  -43.7653 H         1 UNK         0.1121 
     67 H67        16.5033  -29.5581  -43.3537 H         1 UNK         0.0849 
     68 H68        14.8650  -29.3471  -42.8179 H         1 UNK         0.0849 
     69 H69        15.1914  -31.6269  -44.6445 H         1 UNK         0.0865 
     70 H70        14.9600  -31.3917  -46.3583 H         1 UNK         0.0865 
     71 H71        17.4397  -31.8779  -43.7909 H         1 UNK         0.1346 
     72 H72        20.8085  -31.1170  -46.3235 H         1 UNK         0.1412 
     73 H73        16.8465  -30.2227  -47.7019 H         1 UNK         0.1426 
     74 H74        20.3712  -30.6299  -48.7345 H         1 UNK         0.0716 
     75 H75        18.7449  -30.3153  -49.2807 H         1 UNK         0.0716 
     76 H76        21.6184  -29.2047  -47.1289 H         1 UNK         0.0695 
     77 H77        22.1032  -28.0658  -48.3493 H         1 UNK         0.0695 
     78 H78        21.1146  -26.1988  -46.9799 H         1 UNK         0.0983 
     79 H79        20.2761  -28.3051  -45.1356 H         1 UNK         0.3095 
     80 H80        20.2940  -27.5503  -42.7062 H         1 UNK         0.0454 
     81 H81        18.9991  -24.7887  -42.4562 H         1 UNK         0.0851 
     82 H82        19.2923  -25.9098  -41.1341 H         1 UNK         0.0851 
     83 H83        20.6465  -25.1976  -41.9911 H         1 UNK         0.0851 
     84 H84        18.1167  -28.0091  -42.3777 H         1 UNK         0.2976 
     85 H85        22.6329  -28.0632  -44.3995 H         1 UNK         0.3116 
     86 H86        24.9180  -26.2805  -44.4297 H         1 UNK         0.0646 
     87 H87        25.2942  -29.3351  -44.6067 H         1 UNK         0.0847 
     88 H88        25.7812  -28.1768  -45.8427 H         1 UNK         0.0847 
     89 H89        26.5691  -28.1694  -44.2738 H         1 UNK         0.0847 
     90 H90        25.5797  -25.9490  -42.3169 H         1 UNK         0.3040 
     91 H91        23.8325  -26.7627  -40.1923 H         1 UNK         0.1015 
     92 H92        26.5623  -25.3601  -40.1041 H         1 UNK         0.0786 
     93 H93        25.4282  -25.4744  -38.7655 H         1 UNK         0.0786 
     94 H94        24.9905  -24.5646  -40.2011 H         1 UNK         0.0786 
     95 H95        26.9267  -27.9697  -41.3510 H         1 UNK         0.3172 
     96 H96        27.7096  -29.5468  -39.1355 H         1 UNK         0.0595 
     97 H97        29.2183  -30.6467  -40.8014 H         1 UNK         0.0839 
     98 H98        29.2535  -28.9010  -40.9705 H         1 UNK         0.0839 
     99 H99        28.3425  -29.8829  -42.1199 H         1 UNK         0.0839 
    100 H100       25.2423  -30.1525  -41.5267 H         1 UNK         0.2998 
    101 H101       25.0757  -33.0410  -41.0760 H         1 UNK         0.0822 
    102 H102       23.0551  -32.8082  -42.5557 H         1 UNK         0.0787 
    103 H103       23.2825  -31.0644  -42.5782 H         1 UNK         0.0787 
    104 H104       24.4972  -32.1233  -43.2869 H         1 UNK         0.0787 
    105 H105       24.1028  -30.2979  -39.3097 H         1 UNK         0.3055 
    106 H106       22.8960  -29.8948  -37.5332 H         1 UNK         0.1106 
    107 H107       24.0378  -31.9396  -36.6362 H         1 UNK         0.0828 
    108 H108       22.4671  -31.6793  -35.8995 H         1 UNK         0.0828 
    109 H109       22.6567  -32.9207  -37.1262 H         1 UNK         0.0828 
    110 H110       21.4505  -30.5497  -40.1864 H         1 UNK         0.2931 
    111 H111       18.7022  -31.0080  -39.2695 H         1 UNK         0.0412 
    112 H112       19.1226  -27.1249  -39.3169 H         1 UNK         0.3472 
    113 H113       20.3608  -28.2698  -38.8736 H         1 UNK         0.3472 
    114 H114       19.2705  -32.2531  -41.1897 H         1 UNK         0.0970 
    115 H115       18.1575  -31.0302  -41.7214 H         1 UNK         0.0970 
    116 H116       21.1489  -32.2227  -44.2513 H         1 UNK         0.0612 
    117 H117       19.8043  -32.8959  -43.3697 H         1 UNK         0.0612 
@<TRIPOS>BOND
     1    1    2 1    
     2    1   62 1    
     3    1   63 1    
     4    1   64 1    
     5    2    3 2    
     6    2    4 am   BACKBONE|DICT|INTERRES
     7    4    5 1    
     8    4   65 1    
     9    5    6 1    
    10    5   25 1    
    11    5   66 1    
    12    6    7 1    
    13    6   67 1    
    14    6   68 1    
    15    7    8 1    
    16    8    9 1    
    17    8   69 1    
    18    8   70 1    
    19    9   10 ar   
    20    9   14 ar   
    21   10   11 ar   
    22   10   71 1    
    23   11   12 ar   
    24   11   61 1    
    25   12   13 ar   
    26   12   72 1    
    27   13   14 ar   
    28   13   15 1    
    29   14   73 1    
    30   15   16 1    
    31   15   74 1    
    32   15   75 1    
    33   16   17 1    
    34   17   18 1    
    35   17   76 1    
    36   17   77 1    
    37   18   19 1    
    38   18   27 1    
    39   18   78 1    
    40   19   20 am   BACKBONE|DICT|INTERRES
    41   19   79 1    
    42   20   21 2    
    43   20   22 1    
    44   22   23 1    
    45   22   24 1    
    46   22   80 1    
    47   23   81 1    
    48   23   82 1    
    49   23   83 1    
    50   24   25 am   BACKBONE|DICT|INTERRES
    51   24   84 1    
    52   25   26 2    
    53   27   28 2    
    54   27   29 am   BACKBONE|DICT|INTERRES
    55   29   30 1    
    56   29   85 1    
    57   30   31 1    
    58   30   32 1    
    59   30   86 1    
    60   31   87 1    
    61   31   88 1    
    62   31   89 1    
    63   32   33 2    
    64   32   34 am   BACKBONE|DICT|INTERRES
    65   34   35 1    
    66   34   90 1    
    67   35   36 1    
    68   35   37 1    
    69   35   91 1    
    70   36   92 1    
    71   36   93 1    
    72   36   94 1    
    73   37   38 2    
    74   37   39 am   BACKBONE|DICT|INTERRES
    75   39   40 1    
    76   39   95 1    
    77   40   41 1    
    78   40   42 1    
    79   40   96 1    
    80   41   97 1    
    81   41   98 1    
    82   41   99 1    
    83   42   43 2    
    84   42   44 am   BACKBONE|DICT|INTERRES
    85   44   45 1    
    86   44  100 1    
    87   45   46 1    
    88   45   47 1    
    89   45  101 1    
    90   46  102 1    
    91   46  103 1    
    92   46  104 1    
    93   47   48 2    
    94   47   49 am   BACKBONE|DICT|INTERRES
    95   49   50 1    
    96   49  105 1    
    97   50   51 1    
    98   50   52 1    
    99   50  106 1    
   100   51  107 1    
   101   51  108 1    
   102   51  109 1    
   103   52   53 2    
   104   52   54 am   BACKBONE|DICT|INTERRES
   105   54   55 1    
   106   54  110 1    
   107   55   56 1    
   108   55   59 1    
   109   55  111 1    
   110   56   57 am   BACKBONE|DICT|INTERRES
   111   56   58 2    
   112   57  112 1    
   113   57  113 1    
   114   59   60 1    
   115   59  114 1    
   116   59  115 1    
   117   60   61 1    
   118   61  116 1    
   119   61  117 1    
@<TRIPOS>SUBSTRUCTURE
     1 UNK         1 GROUP             0       ****    0 ROOT    
