@<TRIPOS>MOLECULE
3R8
117   119    1
SMALL
USER_CHARGES


@<TRIPOS>ATOM
      1 CA         14.1936  -21.4160  -43.6477 C.3       0 UNK        -0.2013 
      2 C          14.8660  -22.6336  -44.2642 C.2       0 UNK         0.4866 
      3 O          14.8812  -22.7679  -45.4877 O.2       0 UNK        -0.5176 
      4 N          15.4135  -23.5234  -43.4247 N.am      1 UNK        -0.4884 
      5 CA         16.1468  -24.7295  -43.8289 C.3       1 UNK         0.0853 
      6 C6         16.2744  -25.7191  -42.6336 C.3       10 UNK        -0.0849 
      7 S7         17.5424  -27.0214  -42.7768 S.3       10 UNK        -0.2776 
      8 C8         16.6765  -28.2580  -43.7899 C.3       10 UNK         0.0316 
      9 C9         17.6857  -29.2550  -44.3283 C.ar      10 UNK        -0.0863 
     10 C10        17.8707  -30.4924  -43.7064 C.ar      10 UNK        -0.1009 
     11 C11        18.8753  -31.3618  -44.1443 C.ar      10 UNK        -0.0712 
     12 C12        19.6852  -30.9865  -45.2231 C.ar      10 UNK        -0.0894 
     13 C13        19.4991  -29.7545  -45.8600 C.ar      10 UNK        -0.0745 
     14 C14        18.4805  -28.9054  -45.4216 C.ar      10 UNK        -0.0972 
     15 C15        20.3957  -29.3403  -47.0193 C.3       10 UNK         0.0209 
     16 S16        21.8860  -28.4465  -46.4602 S.3       10 UNK        -0.2568 
     17 C17        21.2391  -26.7695  -46.0954 C.3       10 UNK        -0.0983 
     18 CA         21.6550  -26.1088  -44.7421 C.3       3 UNK         0.0876 
     19 N          20.7068  -25.0860  -44.3004 N.am      3 UNK        -0.4424 
     20 C          20.5998  -23.8735  -44.8559 C.2       2 UNK         0.4918 
     21 O          21.3053  -23.4968  -45.7938 O.2       2 UNK        -0.4875 
     22 CA         19.5415  -22.9150  -44.2633 C.3       2 UNK         0.0481 
     23 CB         19.1982  -21.7553  -45.2223 C.3       2 UNK        -0.1831 
     24 N          18.3029  -23.5590  -43.8021 N.am      2 UNK        -0.4498 
     25 C          17.4819  -24.3515  -44.5119 C.2       1 UNK         0.5027 
     26 O          17.7143  -24.7492  -45.6546 O.2       1 UNK        -0.4969 
     27 C          21.9051  -27.0696  -43.5713 C.2       3 UNK         0.5005 
     28 O          23.0209  -27.1143  -43.0479 O.2       3 UNK        -0.5279 
     29 N          20.8680  -27.8332  -43.1924 N.am      4 UNK        -0.4463 
     30 CA         20.8605  -28.8545  -42.1337 C.3       4 UNK         0.0283 
     31 CB         20.9473  -28.1880  -40.7453 C.3       4 UNK        -0.1875 
     32 C          21.9215  -29.9614  -42.3144 C.2       4 UNK         0.4949 
     33 O          22.3148  -30.5888  -41.3312 O.2       4 UNK        -0.5039 
     34 N          22.4055  -30.1504  -43.5523 N.am      5 UNK        -0.4663 
     35 CA         23.5408  -30.9951  -43.9417 C.3       5 UNK         0.0242 
     36 CB         23.1658  -32.4878  -43.8203 C.3       5 UNK        -0.1982 
     37 C          24.8367  -30.6333  -43.1833 C.2       5 UNK         0.5017 
     38 O          25.6042  -31.5272  -42.8296 O.2       5 UNK        -0.5012 
     39 N          25.0298  -29.3335  -42.8986 N.am      6 UNK        -0.4439 
     40 CA         26.0671  -28.7727  -42.0204 C.3       6 UNK         0.0297 
     41 CB         27.4803  -28.9878  -42.6038 C.3       6 UNK        -0.2006 
     42 C          25.9241  -29.2664  -40.5643 C.2       6 UNK         0.4892 
     43 O          26.9213  -29.5780  -39.9121 O.2       6 UNK        -0.5089 
     44 N          24.6658  -29.3361  -40.1058 N.am      7 UNK        -0.4243 
     45 CA         24.1740  -29.8241  -38.8117 C.3       7 UNK         0.0196 
     46 CB         24.8201  -29.0679  -37.6316 C.3       7 UNK        -0.2007 
     47 C          24.2381  -31.3552  -38.6395 C.2       7 UNK         0.5020 
     48 O          23.9694  -31.8386  -37.5388 O.2       7 UNK        -0.5147 
     49 N          24.5574  -32.1074  -39.7036 N.am      8 UNK        -0.4734 
     50 CA         24.6730  -33.5685  -39.6660 C.3       8 UNK         0.0238 
     51 CB         25.4358  -34.0711  -40.9007 C.3       8 UNK        -0.1912 
     52 C          23.3272  -34.3005  -39.5302 C.2       8 UNK         0.5038 
     53 O          23.3104  -35.3812  -38.9387 O.2       8 UNK        -0.5046 
     54 N          22.2373  -33.7229  -40.0597 N.am      9 UNK        -0.4200 
     55 CA         20.8748  -34.2717  -39.9184 C.3       9 UNK         0.0839 
     56 C          20.1167  -33.7724  -38.6523 C.2       9 UNK         0.5513 
     57 N          20.7163  -32.9555  -37.7928 N.am      9 UNK        -0.7519 
     58 O          18.9705  -34.1546  -38.4304 O.2       9 UNK        -0.4960 
     59 C59        20.0442  -34.1619  -41.2274 C.3       10 UNK        -0.0876 
     60 S60        19.6034  -32.4614  -41.7071 S.3       10 UNK        -0.2414 
     61 C61        19.0936  -32.6951  -43.4395 C.3       10 UNK         0.0169 
     62 H62        14.6759  -20.5040  -43.9986 H         1 UNK         0.0903 
     63 H63        13.1440  -21.3798  -43.9383 H         1 UNK         0.0903 
     64 H64        14.2434  -21.4282  -42.5591 H         1 UNK         0.0903 
     65 H65        15.3535  -23.3555  -42.4301 H         1 UNK         0.3096 
     66 H66        15.5507  -25.2306  -44.5953 H         1 UNK         0.1121 
     67 H67        16.5193  -25.1666  -41.7248 H         1 UNK         0.0849 
     68 H68        15.3080  -26.1858  -42.4353 H         1 UNK         0.0849 
     69 H69        15.9114  -28.7561  -43.1922 H         1 UNK         0.0865 
     70 H70        16.1617  -27.7706  -44.6194 H         1 UNK         0.0865 
     71 H71        17.2607  -30.7661  -42.8562 H         1 UNK         0.1346 
     72 H72        20.4702  -31.6477  -45.5624 H         1 UNK         0.1412 
     73 H73        18.3177  -27.9538  -45.9083 H         1 UNK         0.1426 
     74 H74        19.8428  -28.7243  -47.7303 H         1 UNK         0.0716 
     75 H75        20.7101  -30.2270  -47.5719 H         1 UNK         0.0716 
     76 H76        20.1536  -26.7933  -46.1651 H         1 UNK         0.0695 
     77 H77        21.5485  -26.1191  -46.9148 H         1 UNK         0.0695 
     78 H78        22.6156  -25.6164  -44.9127 H         1 UNK         0.0983 
     79 H79        20.1221  -25.3198  -43.5099 H         1 UNK         0.3095 
     80 H80        20.0016  -22.4788  -43.3756 H         1 UNK         0.0454 
     81 H81        20.0861  -21.1743  -45.4746 H         1 UNK         0.0851 
     82 H82        18.4821  -21.0669  -44.7735 H         1 UNK         0.0851 
     83 H83        18.7704  -22.1202  -46.1568 H         1 UNK         0.0851 
     84 H84        18.0114  -23.3120  -42.8667 H         1 UNK         0.2976 
     85 H85        20.0019  -27.7586  -43.7109 H         1 UNK         0.3116 
     86 H86        19.8937  -29.3523  -42.1938 H         1 UNK         0.0646 
     87 H87        21.9109  -27.7039  -40.5855 H         1 UNK         0.0847 
     88 H88        20.1685  -27.4359  -40.6203 H         1 UNK         0.0847 
     89 H89        20.8131  -28.9219  -39.9495 H         1 UNK         0.0847 
     90 H90        22.0076  -29.5876  -44.2936 H         1 UNK         0.3040 
     91 H91        23.7403  -30.7869  -44.9940 H         1 UNK         0.1015 
     92 H92        23.9757  -33.1283  -44.1713 H         1 UNK         0.0786 
     93 H93        22.2883  -32.7254  -44.4196 H         1 UNK         0.0786 
     94 H94        22.9481  -32.7686  -42.7902 H         1 UNK         0.0786 
     95 H95        24.3166  -28.6709  -43.1927 H         1 UNK         0.3172 
     96 H96        25.8861  -27.6971  -41.9929 H         1 UNK         0.0595 
     97 H97        27.7692  -30.0391  -42.5983 H         1 UNK         0.0839 
     98 H98        28.2270  -28.4463  -42.0218 H         1 UNK         0.0839 
     99 H99        27.5458  -28.6265  -43.6299 H         1 UNK         0.0839 
    100 H100       23.9296  -29.1354  -40.7703 H         1 UNK         0.2998 
    101 H101       23.1104  -29.5820  -38.8019 H         1 UNK         0.0822 
    102 H102       24.3180  -29.3069  -36.6933 H         1 UNK         0.0787 
    103 H103       24.7533  -27.9884  -37.7664 H         1 UNK         0.0787 
    104 H104       25.8715  -29.3284  -37.5080 H         1 UNK         0.0787 
    105 H105       24.7385  -31.6512  -40.5887 H         1 UNK         0.3055 
    106 H106       25.2658  -33.8273  -38.7853 H         1 UNK         0.1106 
    107 H107       26.4048  -33.5810  -40.9981 H         1 UNK         0.0828 
    108 H108       25.6208  -35.1440  -40.8333 H         1 UNK         0.0828 
    109 H109       24.8778  -33.8979  -41.8202 H         1 UNK         0.0828 
    110 H110       22.3136  -32.8117  -40.4960 H         1 UNK         0.2931 
    111 H111       20.9708  -35.3460  -39.7513 H         1 UNK         0.0412 
    112 H112       20.2154  -32.6493  -36.9737 H         1 UNK         0.3472 
    113 H113       21.6702  -32.6612  -37.9401 H         1 UNK         0.3472 
    114 H114       20.6011  -34.6234  -42.0442 H         1 UNK         0.0970 
    115 H115       19.1222  -34.7390  -41.1369 H         1 UNK         0.0970 
    116 H116       19.8513  -33.2823  -43.9600 H         1 UNK         0.0612 
    117 H117       18.1713  -33.2766  -43.4683 H         1 UNK         0.0612 
@<TRIPOS>BOND
     1    1    2 1    
     2    1   62 1    
     3    1   63 1    
     4    1   64 1    
     5    2    3 2    
     6    2    4 am   BACKBONE|DICT|INTERRES
     7    4    5 1    
     8    4   65 1    
     9    5    6 1    
    10    5   25 1    
    11    5   66 1    
    12    6    7 1    
    13    6   67 1    
    14    6   68 1    
    15    7    8 1    
    16    8    9 1    
    17    8   69 1    
    18    8   70 1    
    19    9   10 ar   
    20    9   14 ar   
    21   10   11 ar   
    22   10   71 1    
    23   11   12 ar   
    24   11   61 1    
    25   12   13 ar   
    26   12   72 1    
    27   13   14 ar   
    28   13   15 1    
    29   14   73 1    
    30   15   16 1    
    31   15   74 1    
    32   15   75 1    
    33   16   17 1    
    34   17   18 1    
    35   17   76 1    
    36   17   77 1    
    37   18   19 1    
    38   18   27 1    
    39   18   78 1    
    40   19   20 am   BACKBONE|DICT|INTERRES
    41   19   79 1    
    42   20   21 2    
    43   20   22 1    
    44   22   23 1    
    45   22   24 1    
    46   22   80 1    
    47   23   81 1    
    48   23   82 1    
    49   23   83 1    
    50   24   25 am   BACKBONE|DICT|INTERRES
    51   24   84 1    
    52   25   26 2    
    53   27   28 2    
    54   27   29 am   BACKBONE|DICT|INTERRES
    55   29   30 1    
    56   29   85 1    
    57   30   31 1    
    58   30   32 1    
    59   30   86 1    
    60   31   87 1    
    61   31   88 1    
    62   31   89 1    
    63   32   33 2    
    64   32   34 am   BACKBONE|DICT|INTERRES
    65   34   35 1    
    66   34   90 1    
    67   35   36 1    
    68   35   37 1    
    69   35   91 1    
    70   36   92 1    
    71   36   93 1    
    72   36   94 1    
    73   37   38 2    
    74   37   39 am   BACKBONE|DICT|INTERRES
    75   39   40 1    
    76   39   95 1    
    77   40   41 1    
    78   40   42 1    
    79   40   96 1    
    80   41   97 1    
    81   41   98 1    
    82   41   99 1    
    83   42   43 2    
    84   42   44 am   BACKBONE|DICT|INTERRES
    85   44   45 1    
    86   44  100 1    
    87   45   46 1    
    88   45   47 1    
    89   45  101 1    
    90   46  102 1    
    91   46  103 1    
    92   46  104 1    
    93   47   48 2    
    94   47   49 am   BACKBONE|DICT|INTERRES
    95   49   50 1    
    96   49  105 1    
    97   50   51 1    
    98   50   52 1    
    99   50  106 1    
   100   51  107 1    
   101   51  108 1    
   102   51  109 1    
   103   52   53 2    
   104   52   54 am   BACKBONE|DICT|INTERRES
   105   54   55 1    
   106   54  110 1    
   107   55   56 1    
   108   55   59 1    
   109   55  111 1    
   110   56   57 am   BACKBONE|DICT|INTERRES
   111   56   58 2    
   112   57  112 1    
   113   57  113 1    
   114   59   60 1    
   115   59  114 1    
   116   59  115 1    
   117   60   61 1    
   118   61  116 1    
   119   61  117 1    
@<TRIPOS>SUBSTRUCTURE
     1 UNK         1 GROUP             0       ****    0 ROOT    
