@<TRIPOS>MOLECULE
3R8
117   119    1
SMALL
USER_CHARGES


@<TRIPOS>ATOM
      1 CA         20.7919  -29.8520  -43.4170 C.3       0 UNK        -0.2013 
      2 C          20.4484  -28.5185  -42.7848 C.2       0 UNK         0.4866 
      3 O          21.3605  -27.8249  -42.3405 O.2       0 UNK        -0.5176 
      4 N          19.1566  -28.1563  -42.7173 N.am      1 UNK        -0.4884 
      5 CA         18.6595  -26.9524  -42.0283 C.3       1 UNK         0.0853 
      6 C6         17.1108  -26.9230  -41.9080 C.3       10 UNK        -0.0849 
      7 S7         16.1895  -26.6158  -43.4612 S.3       10 UNK        -0.2776 
      8 C8         15.3654  -28.2052  -43.7811 C.3       10 UNK         0.0316 
      9 C9         16.3293  -29.2495  -44.3224 C.ar      10 UNK        -0.0863 
     10 C10        16.6543  -30.3714  -43.5567 C.ar      10 UNK        -0.1009 
     11 C11        17.5136  -31.3516  -44.0618 C.ar      10 UNK        -0.0712 
     12 C12        18.0370  -31.2076  -45.3528 C.ar      10 UNK        -0.0894 
     13 C13        17.7346  -30.0797  -46.1237 C.ar      10 UNK        -0.0745 
     14 C14        16.8708  -29.1100  -45.6043 C.ar      10 UNK        -0.0972 
     15 C15        18.2962  -29.9372  -47.5357 C.3       10 UNK         0.0209 
     16 S16        19.2096  -28.3790  -47.8015 S.3       10 UNK        -0.2568 
     17 C17        20.8231  -28.7340  -47.0254 C.3       10 UNK        -0.0983 
     18 CA         21.5994  -27.4405  -46.6516 C.3       3 UNK         0.0876 
     19 N          20.8135  -26.5783  -45.7657 N.am      3 UNK        -0.4424 
     20 C          20.9051  -25.2450  -45.6602 C.2       2 UNK         0.4918 
     21 O          21.7525  -24.5772  -46.2535 O.2       2 UNK        -0.4875 
     22 CA         19.8940  -24.5374  -44.7409 C.3       2 UNK         0.0481 
     23 CB         18.8856  -23.7321  -45.5759 C.3       2 UNK        -0.1831 
     24 N          19.1660  -25.5080  -43.9245 N.am      2 UNK        -0.4498 
     25 C          19.2643  -25.6509  -42.5988 C.2       1 UNK         0.5027 
     26 O          19.8534  -24.8660  -41.8541 O.2       1 UNK        -0.4969 
     27 C          23.0003  -27.7243  -46.0608 C.2       3 UNK         0.5005 
     28 O          23.3777  -28.8843  -45.8902 O.2       3 UNK        -0.5279 
     29 N          23.7382  -26.6512  -45.7409 N.am      4 UNK        -0.4463 
     30 CA         25.1355  -26.5653  -45.2860 C.3       4 UNK         0.0283 
     31 CB         26.0910  -27.1121  -46.3644 C.3       4 UNK        -0.1875 
     32 C          25.4695  -27.1848  -43.9133 C.2       4 UNK         0.4949 
     33 O          26.4063  -26.7105  -43.2699 O.2       4 UNK        -0.5039 
     34 N          24.7418  -28.2236  -43.4853 N.am      5 UNK        -0.4663 
     35 CA         25.0329  -29.0031  -42.2745 C.3       5 UNK         0.0242 
     36 CB         24.2741  -30.3382  -42.3366 C.3       5 UNK        -0.1982 
     37 C          24.7262  -28.2772  -40.9512 C.2       5 UNK         0.5017 
     38 O          25.2083  -28.7225  -39.9107 O.2       5 UNK        -0.5012 
     39 N          23.9212  -27.2063  -41.0041 N.am      6 UNK        -0.4439 
     40 CA         23.4206  -26.4111  -39.8750 C.3       6 UNK         0.0297 
     41 CB         24.5712  -25.6975  -39.1335 C.3       6 UNK        -0.2006 
     42 C          22.5175  -27.2449  -38.9459 C.2       6 UNK         0.4892 
     43 O          22.7426  -27.3018  -37.7364 O.2       6 UNK        -0.5089 
     44 N          21.5203  -27.8917  -39.5640 N.am      7 UNK        -0.4243 
     45 CA         20.4902  -28.7673  -38.9895 C.3       7 UNK         0.0196 
     46 CB         19.6794  -28.0527  -37.8885 C.3       7 UNK        -0.2007 
     47 C          20.9925  -30.1527  -38.5453 C.2       7 UNK         0.5020 
     48 O          20.1964  -30.9349  -38.0240 O.2       7 UNK        -0.5147 
     49 N          22.2657  -30.4825  -38.8031 N.am      8 UNK        -0.4734 
     50 CA         22.8543  -31.8031  -38.5543 C.3       8 UNK         0.0238 
     51 CB         24.3727  -31.6517  -38.3490 C.3       8 UNK        -0.1912 
     52 C          22.4976  -32.8042  -39.6731 C.2       8 UNK         0.5038 
     53 O          23.3912  -33.3524  -40.3212 O.2       8 UNK        -0.5046 
     54 N          21.1925  -33.0000  -39.8932 N.am      9 UNK        -0.4200 
     55 CA         20.6110  -33.9516  -40.8502 C.3       9 UNK         0.0839 
     56 C          20.9425  -35.4265  -40.4935 C.2       9 UNK         0.5513 
     57 N          21.1508  -36.2737  -41.4918 N.am      9 UNK        -0.7519 
     58 O          20.9655  -35.8161  -39.3275 O.2       9 UNK        -0.4960 
     59 C59        19.0774  -33.7554  -40.9696 C.3       10 UNK        -0.0876 
     60 S60        18.6365  -32.1131  -41.6325 S.3       10 UNK        -0.2414 
     61 C61        17.8632  -32.5716  -43.2185 C.3       10 UNK         0.0169 
     62 H62        20.9452  -30.6052  -42.6460 H         1 UNK         0.0903 
     63 H63        20.0047  -30.1935  -44.0754 H         1 UNK         0.0903 
     64 H64        21.7072  -29.7745  -44.0005 H         1 UNK         0.0903 
     65 H65        18.4463  -28.7611  -43.1114 H         1 UNK         0.3096 
     66 H66        19.0386  -27.0177  -41.0067 H         1 UNK         0.1121 
     67 H67        16.8203  -26.1422  -41.2026 H         1 UNK         0.0849 
     68 H68        16.7621  -27.8539  -41.4582 H         1 UNK         0.0849 
     69 H69        14.5726  -28.0459  -44.5134 H         1 UNK         0.0865 
     70 H70        14.8702  -28.5527  -42.8730 H         1 UNK         0.0865 
     71 H71        16.2368  -30.4892  -42.5657 H         1 UNK         0.1346 
     72 H72        18.6921  -31.9695  -45.7529 H         1 UNK         0.1412 
     73 H73        16.6146  -28.2458  -46.2025 H         1 UNK         0.1426 
     74 H74        17.4644  -29.9734  -48.2403 H         1 UNK         0.0716 
     75 H75        18.9452  -30.7772  -47.7881 H         1 UNK         0.0716 
     76 H76        21.4036  -29.3385  -47.7249 H         1 UNK         0.0695 
     77 H77        20.6593  -29.3566  -46.1480 H         1 UNK         0.0695 
     78 H78        21.7730  -26.8955  -47.5824 H         1 UNK         0.0983 
     79 H79        20.1193  -27.0504  -45.2104 H         1 UNK         0.3095 
     80 H80        20.4543  -23.8461  -44.1087 H         1 UNK         0.0454 
     81 H81        18.3158  -24.3719  -46.2509 H         1 UNK         0.0851 
     82 H82        19.3921  -22.9826  -46.1855 H         1 UNK         0.0851 
     83 H83        18.1768  -23.2043  -44.9378 H         1 UNK         0.0851 
     84 H84        18.5735  -26.1641  -44.4147 H         1 UNK         0.2976 
     85 H85        23.2829  -25.7531  -45.8829 H         1 UNK         0.3116 
     86 H86        25.3362  -25.4973  -45.1875 H         1 UNK         0.0646 
     87 H87        25.9437  -26.6074  -47.3190 H         1 UNK         0.0847 
     88 H88        25.9533  -28.1818  -46.5248 H         1 UNK         0.0847 
     89 H89        27.1323  -26.9606  -46.0768 H         1 UNK         0.0847 
     90 H90        24.0341  -28.5845  -44.1196 H         1 UNK         0.3040 
     91 H91        26.1026  -29.2246  -42.2777 H         1 UNK         0.1015 
     92 H92        24.6639  -31.0391  -41.5984 H         1 UNK         0.0786 
     93 H93        24.3693  -30.8154  -43.3123 H         1 UNK         0.0786 
     94 H94        23.2151  -30.2074  -42.1224 H         1 UNK         0.0786 
     95 H95        23.5098  -26.9962  -41.9049 H         1 UNK         0.3172 
     96 H96        22.7828  -25.6388  -40.3080 H         1 UNK         0.0595 
     97 H97        25.2310  -26.4020  -38.6263 H         1 UNK         0.0839 
     98 H98        24.1804  -25.0188  -38.3746 H         1 UNK         0.0839 
     99 H99        25.1769  -25.1045  -39.8186 H         1 UNK         0.0839 
    100 H100       21.4820  -27.7961  -40.5797 H         1 UNK         0.2998 
    101 H101       19.7990  -28.9758  -39.8067 H         1 UNK         0.0822 
    102 H102       19.3050  -27.0886  -38.2323 H         1 UNK         0.0787 
    103 H103       18.8144  -28.6476  -37.5926 H         1 UNK         0.0787 
    104 H104       20.2740  -27.8828  -36.9907 H         1 UNK         0.0787 
    105 H105       22.8657  -29.7905  -39.2302 H         1 UNK         0.3055 
    106 H106       22.4410  -32.2054  -37.6263 H         1 UNK         0.1106 
    107 H107       24.8724  -31.2953  -39.2490 H         1 UNK         0.0828 
    108 H108       24.8268  -32.6072  -38.0835 H         1 UNK         0.0828 
    109 H109       24.5974  -30.9518  -37.5439 H         1 UNK         0.0828 
    110 H110       20.5371  -32.4901  -39.3119 H         1 UNK         0.2931 
    111 H111       21.0576  -33.7354  -41.8232 H         1 UNK         0.0412 
    112 H112       21.3514  -37.2394  -41.2817 H         1 UNK         0.3472 
    113 H113       21.1257  -35.9657  -42.4517 H         1 UNK         0.3472 
    114 H114       18.6410  -34.5256  -41.6086 H         1 UNK         0.0970 
    115 H115       18.6001  -33.8733  -39.9950 H         1 UNK         0.0970 
    116 H116       16.9549  -33.1435  -43.0241 H         1 UNK         0.0612 
    117 H117       18.5408  -33.2313  -43.7629 H         1 UNK         0.0612 
@<TRIPOS>BOND
     1    1    2 1    
     2    1   62 1    
     3    1   63 1    
     4    1   64 1    
     5    2    3 2    
     6    2    4 am   BACKBONE|DICT|INTERRES
     7    4    5 1    
     8    4   65 1    
     9    5    6 1    
    10    5   25 1    
    11    5   66 1    
    12    6    7 1    
    13    6   67 1    
    14    6   68 1    
    15    7    8 1    
    16    8    9 1    
    17    8   69 1    
    18    8   70 1    
    19    9   10 ar   
    20    9   14 ar   
    21   10   11 ar   
    22   10   71 1    
    23   11   12 ar   
    24   11   61 1    
    25   12   13 ar   
    26   12   72 1    
    27   13   14 ar   
    28   13   15 1    
    29   14   73 1    
    30   15   16 1    
    31   15   74 1    
    32   15   75 1    
    33   16   17 1    
    34   17   18 1    
    35   17   76 1    
    36   17   77 1    
    37   18   19 1    
    38   18   27 1    
    39   18   78 1    
    40   19   20 am   BACKBONE|DICT|INTERRES
    41   19   79 1    
    42   20   21 2    
    43   20   22 1    
    44   22   23 1    
    45   22   24 1    
    46   22   80 1    
    47   23   81 1    
    48   23   82 1    
    49   23   83 1    
    50   24   25 am   BACKBONE|DICT|INTERRES
    51   24   84 1    
    52   25   26 2    
    53   27   28 2    
    54   27   29 am   BACKBONE|DICT|INTERRES
    55   29   30 1    
    56   29   85 1    
    57   30   31 1    
    58   30   32 1    
    59   30   86 1    
    60   31   87 1    
    61   31   88 1    
    62   31   89 1    
    63   32   33 2    
    64   32   34 am   BACKBONE|DICT|INTERRES
    65   34   35 1    
    66   34   90 1    
    67   35   36 1    
    68   35   37 1    
    69   35   91 1    
    70   36   92 1    
    71   36   93 1    
    72   36   94 1    
    73   37   38 2    
    74   37   39 am   BACKBONE|DICT|INTERRES
    75   39   40 1    
    76   39   95 1    
    77   40   41 1    
    78   40   42 1    
    79   40   96 1    
    80   41   97 1    
    81   41   98 1    
    82   41   99 1    
    83   42   43 2    
    84   42   44 am   BACKBONE|DICT|INTERRES
    85   44   45 1    
    86   44  100 1    
    87   45   46 1    
    88   45   47 1    
    89   45  101 1    
    90   46  102 1    
    91   46  103 1    
    92   46  104 1    
    93   47   48 2    
    94   47   49 am   BACKBONE|DICT|INTERRES
    95   49   50 1    
    96   49  105 1    
    97   50   51 1    
    98   50   52 1    
    99   50  106 1    
   100   51  107 1    
   101   51  108 1    
   102   51  109 1    
   103   52   53 2    
   104   52   54 am   BACKBONE|DICT|INTERRES
   105   54   55 1    
   106   54  110 1    
   107   55   56 1    
   108   55   59 1    
   109   55  111 1    
   110   56   57 am   BACKBONE|DICT|INTERRES
   111   56   58 2    
   112   57  112 1    
   113   57  113 1    
   114   59   60 1    
   115   59  114 1    
   116   59  115 1    
   117   60   61 1    
   118   61  116 1    
   119   61  117 1    
@<TRIPOS>SUBSTRUCTURE
     1 UNK         1 GROUP             0       ****    0 ROOT    
