@<TRIPOS>MOLECULE
3R8
117   119    1
SMALL
USER_CHARGES


@<TRIPOS>ATOM
      1 CA         15.8318  -23.1807  -46.2886 C.3       0 UNK        -0.2013 
      2 C          16.3548  -24.4449  -45.6241 C.2       0 UNK         0.4866 
      3 O          17.1150  -25.1923  -46.2409 O.2       0 UNK        -0.5176 
      4 N          15.9623  -24.6894  -44.3670 N.am      1 UNK        -0.4884 
      5 CA         16.3579  -25.8500  -43.5594 C.3       1 UNK         0.0853 
      6 C6         15.3197  -26.1474  -42.4420 C.3       10 UNK        -0.0849 
      7 S7         13.9298  -27.1302  -43.0985 S.3       10 UNK        -0.2776 
      8 C8         14.4231  -28.8232  -42.6176 C.3       10 UNK         0.0316 
      9 C9         15.8122  -29.1864  -43.1305 C.ar      10 UNK        -0.0863 
     10 C10        16.9117  -29.1603  -42.2658 C.ar      10 UNK        -0.1009 
     11 C11        18.1996  -29.4376  -42.7327 C.ar      10 UNK        -0.0712 
     12 C12        18.3708  -29.7730  -44.0811 C.ar      10 UNK        -0.0894 
     13 C13        17.2842  -29.8034  -44.9591 C.ar      10 UNK        -0.0745 
     14 C14        16.0048  -29.5127  -44.4759 C.ar      10 UNK        -0.0972 
     15 C15        17.4882  -30.1561  -46.4267 C.3       10 UNK         0.0209 
     16 S16        18.3246  -28.8227  -47.3494 S.3       10 UNK        -0.2568 
     17 C17        20.0873  -29.2601  -47.1490 C.3       10 UNK        -0.0983 
     18 CA         20.9687  -28.0840  -46.6533 C.3       3 UNK         0.0876 
     19 N          20.4473  -27.4179  -45.4503 N.am      3 UNK        -0.4424 
     20 C          20.9359  -26.2760  -44.9379 C.2       2 UNK         0.4918 
     21 O          21.8972  -25.6698  -45.4116 O.2       2 UNK        -0.4875 
     22 CA         20.2014  -25.6989  -43.7179 C.3       2 UNK         0.0481 
     23 CB         20.6498  -24.2663  -43.3607 C.3       2 UNK        -0.1831 
     24 N          18.7622  -25.7391  -43.9588 N.am      2 UNK        -0.4498 
     25 C          17.8016  -25.7091  -43.0303 C.2       1 UNK         0.5027 
     26 O          18.0191  -25.5769  -41.8244 O.2       1 UNK        -0.4969 
     27 C          22.4304  -28.5397  -46.4658 C.2       3 UNK         0.5005 
     28 O          23.2872  -28.1890  -47.2791 O.2       3 UNK        -0.5279 
     29 N          22.6849  -29.2801  -45.3771 N.am      4 UNK        -0.4463 
     30 CA         24.0317  -29.6161  -44.9061 C.3       4 UNK         0.0283 
     31 CB         24.0456  -31.0475  -44.3454 C.3       4 UNK        -0.1875 
     32 C          24.5063  -28.6166  -43.8380 C.2       4 UNK         0.4949 
     33 O          25.6952  -28.2989  -43.8049 O.2       4 UNK        -0.5039 
     34 N          23.5631  -28.1421  -43.0051 N.am      5 UNK        -0.4663 
     35 CA         23.7347  -27.2521  -41.8482 C.3       5 UNK         0.0242 
     36 CB         24.3528  -25.9030  -42.2762 C.3       5 UNK        -0.1982 
     37 C          24.5133  -27.9187  -40.6954 C.2       5 UNK         0.5017 
     38 O          24.8698  -29.0947  -40.7846 O.2       5 UNK        -0.5012 
     39 N          24.7145  -27.1703  -39.5988 N.am      6 UNK        -0.4439 
     40 CA         25.4854  -27.5438  -38.3987 C.3       6 UNK         0.0297 
     41 CB         26.9937  -27.5483  -38.7273 C.3       6 UNK        -0.2006 
     42 C          25.0352  -28.8583  -37.7194 C.2       6 UNK         0.4892 
     43 O          25.8572  -29.5407  -37.1058 O.2       6 UNK        -0.5089 
     44 N          23.7439  -29.1951  -37.8660 N.am      7 UNK        -0.4243 
     45 CA         23.0870  -30.4418  -37.4487 C.3       7 UNK         0.0196 
     46 CB         23.0999  -30.5909  -35.9120 C.3       7 UNK        -0.2007 
     47 C          23.6037  -31.7086  -38.1683 C.2       7 UNK         0.5020 
     48 O          23.3308  -32.8163  -37.7043 O.2       7 UNK        -0.5147 
     49 N          24.2992  -31.5497  -39.3050 N.am      8 UNK        -0.4734 
     50 CA         24.8148  -32.6510  -40.1288 C.3       8 UNK         0.0238 
     51 CB         26.0587  -32.1652  -40.8932 C.3       8 UNK        -0.1912 
     52 C          23.7664  -33.2239  -41.1020 C.2       8 UNK         0.5038 
     53 O          24.0762  -34.1719  -41.8246 O.2       8 UNK        -0.5046 
     54 N          22.5625  -32.6367  -41.1205 N.am      9 UNK        -0.4200 
     55 CA         21.4288  -33.0062  -41.9825 C.3       9 UNK         0.0839 
     56 C          20.8406  -34.4259  -41.7323 C.2       9 UNK         0.5513 
     57 N          21.1052  -35.0658  -40.5992 N.am      9 UNK        -0.7519 
     58 O          20.1287  -34.9522  -42.5834 O.2       9 UNK        -0.4960 
     59 C59        20.2990  -31.9447  -41.9224 C.3       10 UNK        -0.0876 
     60 S60        20.8755  -30.2399  -42.2293 S.3       10 UNK        -0.2414 
     61 C61        19.3766  -29.3093  -41.7633 C.3       10 UNK         0.0169 
     62 H62        15.2782  -23.4347  -47.1922 H         1 UNK         0.0903 
     63 H63        15.1688  -22.6179  -45.6317 H         1 UNK         0.0903 
     64 H64        16.6624  -22.5334  -46.5685 H         1 UNK         0.0903 
     65 H65        15.3511  -24.0296  -43.9067 H         1 UNK         0.3096 
     66 H66        16.3908  -26.7152  -44.2248 H         1 UNK         0.1121 
     67 H67        15.7531  -26.6968  -41.6054 H         1 UNK         0.0849 
     68 H68        14.9355  -25.2228  -42.0083 H         1 UNK         0.0849 
     69 H69        14.3787  -28.9149  -41.5311 H         1 UNK         0.0865 
     70 H70        13.6924  -29.5317  -43.0105 H         1 UNK         0.0865 
     71 H71        16.7696  -28.8928  -41.2274 H         1 UNK         0.1346 
     72 H72        19.3531  -30.0061  -44.4570 H         1 UNK         0.1412 
     73 H73        15.1575  -29.5235  -45.1484 H         1 UNK         0.1426 
     74 H74        16.5249  -30.3433  -46.9035 H         1 UNK         0.0716 
     75 H75        18.0474  -31.0887  -46.5134 H         1 UNK         0.0716 
     76 H76        20.4453  -29.5988  -48.1231 H         1 UNK         0.0695 
     77 H77        20.1822  -30.1256  -46.4934 H         1 UNK         0.0695 
     78 H78        20.9732  -27.3298  -47.4439 H         1 UNK         0.0983 
     79 H79        19.6214  -27.8244  -45.0358 H         1 UNK         0.3095 
     80 H80        20.4361  -26.3517  -42.8758 H         1 UNK         0.0454 
     81 H81        21.7224  -24.2254  -43.1696 H         1 UNK         0.0851 
     82 H82        20.1530  -23.9024  -42.4616 H         1 UNK         0.0851 
     83 H83        20.4339  -23.5668  -44.1689 H         1 UNK         0.0851 
     84 H84        18.4668  -25.7673  -44.9329 H         1 UNK         0.2976 
     85 H85        21.9133  -29.5437  -44.7829 H         1 UNK         0.3116 
     86 H86        24.7374  -29.5793  -45.7389 H         1 UNK         0.0646 
     87 H87        23.4275  -31.1403  -43.4537 H         1 UNK         0.0847 
     88 H88        23.6889  -31.7692  -45.0801 H         1 UNK         0.0847 
     89 H89        25.0576  -31.3431  -44.0662 H         1 UNK         0.0847 
     90 H90        22.6388  -28.5360  -43.0930 H         1 UNK         0.3040 
     91 H91        22.7289  -27.0582  -41.4719 H         1 UNK         0.1015 
     92 H92        24.2483  -25.1496  -41.4953 H         1 UNK         0.0786 
     93 H93        23.8642  -25.5087  -43.1673 H         1 UNK         0.0786 
     94 H94        25.4169  -25.9958  -42.4966 H         1 UNK         0.0786 
     95 H95        24.3462  -26.2287  -39.5958 H         1 UNK         0.3172 
     96 H96        25.3100  -26.7548  -37.6660 H         1 UNK         0.0595 
     97 H97        27.2513  -28.3520  -39.4184 H         1 UNK         0.0839 
     98 H98        27.5943  -27.6874  -37.8274 H         1 UNK         0.0839 
     99 H99        27.3056  -26.6062  -39.1780 H         1 UNK         0.0839 
    100 H100       23.1634  -28.5556  -38.3902 H         1 UNK         0.2998 
    101 H101       22.0443  -30.3407  -37.7538 H         1 UNK         0.0822 
    102 H102       22.4698  -31.4222  -35.5933 H         1 UNK         0.0787 
    103 H103       22.7200  -29.6941  -35.4225 H         1 UNK         0.0787 
    104 H104       24.1032  -30.7826  -35.5307 H         1 UNK         0.0787 
    105 H105       24.4825  -30.6109  -39.6531 H         1 UNK         0.3055 
    106 H106       25.1216  -33.4690  -39.4730 H         1 UNK         0.1106 
    107 H107       26.8049  -31.7497  -40.2158 H         1 UNK         0.0828 
    108 H108       26.5325  -32.9864  -41.4325 H         1 UNK         0.0828 
    109 H109       25.8088  -31.3984  -41.6267 H         1 UNK         0.0828 
    110 H110       22.4119  -31.8532  -40.5043 H         1 UNK         0.2931 
    111 H111       21.8114  -33.0165  -43.0048 H         1 UNK         0.0412 
    112 H112       20.7205  -35.9853  -40.4487 H         1 UNK         0.3472 
    113 H113       21.6887  -34.6405  -39.8960 H         1 UNK         0.3472 
    114 H114       19.8112  -31.9731  -40.9460 H         1 UNK         0.0970 
    115 H115       19.5233  -32.1762  -42.6551 H         1 UNK         0.0970 
    116 H116       19.6389  -28.2544  -41.6843 H         1 UNK         0.0612 
    117 H117       19.0715  -29.6219  -40.7634 H         1 UNK         0.0612 
@<TRIPOS>BOND
     1    1    2 1    
     2    1   62 1    
     3    1   63 1    
     4    1   64 1    
     5    2    3 2    
     6    2    4 am   BACKBONE|DICT|INTERRES
     7    4    5 1    
     8    4   65 1    
     9    5    6 1    
    10    5   25 1    
    11    5   66 1    
    12    6    7 1    
    13    6   67 1    
    14    6   68 1    
    15    7    8 1    
    16    8    9 1    
    17    8   69 1    
    18    8   70 1    
    19    9   10 ar   
    20    9   14 ar   
    21   10   11 ar   
    22   10   71 1    
    23   11   12 ar   
    24   11   61 1    
    25   12   13 ar   
    26   12   72 1    
    27   13   14 ar   
    28   13   15 1    
    29   14   73 1    
    30   15   16 1    
    31   15   74 1    
    32   15   75 1    
    33   16   17 1    
    34   17   18 1    
    35   17   76 1    
    36   17   77 1    
    37   18   19 1    
    38   18   27 1    
    39   18   78 1    
    40   19   20 am   BACKBONE|DICT|INTERRES
    41   19   79 1    
    42   20   21 2    
    43   20   22 1    
    44   22   23 1    
    45   22   24 1    
    46   22   80 1    
    47   23   81 1    
    48   23   82 1    
    49   23   83 1    
    50   24   25 am   BACKBONE|DICT|INTERRES
    51   24   84 1    
    52   25   26 2    
    53   27   28 2    
    54   27   29 am   BACKBONE|DICT|INTERRES
    55   29   30 1    
    56   29   85 1    
    57   30   31 1    
    58   30   32 1    
    59   30   86 1    
    60   31   87 1    
    61   31   88 1    
    62   31   89 1    
    63   32   33 2    
    64   32   34 am   BACKBONE|DICT|INTERRES
    65   34   35 1    
    66   34   90 1    
    67   35   36 1    
    68   35   37 1    
    69   35   91 1    
    70   36   92 1    
    71   36   93 1    
    72   36   94 1    
    73   37   38 2    
    74   37   39 am   BACKBONE|DICT|INTERRES
    75   39   40 1    
    76   39   95 1    
    77   40   41 1    
    78   40   42 1    
    79   40   96 1    
    80   41   97 1    
    81   41   98 1    
    82   41   99 1    
    83   42   43 2    
    84   42   44 am   BACKBONE|DICT|INTERRES
    85   44   45 1    
    86   44  100 1    
    87   45   46 1    
    88   45   47 1    
    89   45  101 1    
    90   46  102 1    
    91   46  103 1    
    92   46  104 1    
    93   47   48 2    
    94   47   49 am   BACKBONE|DICT|INTERRES
    95   49   50 1    
    96   49  105 1    
    97   50   51 1    
    98   50   52 1    
    99   50  106 1    
   100   51  107 1    
   101   51  108 1    
   102   51  109 1    
   103   52   53 2    
   104   52   54 am   BACKBONE|DICT|INTERRES
   105   54   55 1    
   106   54  110 1    
   107   55   56 1    
   108   55   59 1    
   109   55  111 1    
   110   56   57 am   BACKBONE|DICT|INTERRES
   111   56   58 2    
   112   57  112 1    
   113   57  113 1    
   114   59   60 1    
   115   59  114 1    
   116   59  115 1    
   117   60   61 1    
   118   61  116 1    
   119   61  117 1    
@<TRIPOS>SUBSTRUCTURE
     1 UNK         1 GROUP             0       ****    0 ROOT    
