@<TRIPOS>MOLECULE
3R8
117   119    1
SMALL
USER_CHARGES


@<TRIPOS>ATOM
      1 CA         15.7780  -23.7747  -48.2292 C.3       0 UNK        -0.2013 
      2 C          16.3626  -24.4825  -47.0159 C.2       0 UNK         0.4866 
      3 O          17.5778  -24.4586  -46.8200 O.2       0 UNK        -0.5176 
      4 N          15.5082  -25.1190  -46.2056 N.am      1 UNK        -0.4884 
      5 CA         15.8902  -25.8209  -44.9749 C.3       1 UNK         0.0853 
      6 C6         14.7497  -26.7349  -44.4616 C.3       10 UNK        -0.0849 
      7 S7         14.2814  -28.0176  -45.6691 S.3       10 UNK        -0.2776 
      8 C8         14.7554  -29.5446  -44.7931 C.3       10 UNK         0.0316 
      9 C9         16.2639  -29.7088  -44.6461 C.ar      10 UNK        -0.0863 
     10 C10        16.8301  -29.9375  -43.3870 C.ar      10 UNK        -0.1009 
     11 C11        18.2034  -30.1688  -43.2578 C.ar      10 UNK        -0.0712 
     12 C12        19.0114  -30.1646  -44.3973 C.ar      10 UNK        -0.0894 
     13 C13        18.4633  -29.9123  -45.6578 C.ar      10 UNK        -0.0745 
     14 C14        17.0888  -29.6903  -45.7755 C.ar      10 UNK        -0.0972 
     15 C15        19.3440  -29.9097  -46.8992 C.3       10 UNK         0.0209 
     16 S16        20.0281  -28.2576  -47.2485 S.3       10 UNK        -0.2568 
     17 C17        21.3940  -28.1579  -46.0415 C.3       10 UNK        -0.0983 
     18 CA         21.2296  -27.0038  -45.0168 C.3       3 UNK         0.0876 
     19 N          19.9451  -27.0618  -44.3077 N.am      3 UNK        -0.4424 
     20 C          19.3492  -26.0229  -43.7124 C.2       2 UNK         0.4918 
     21 O          19.8054  -24.8763  -43.7213 O.2       2 UNK        -0.4875 
     22 CA         18.0647  -26.3222  -42.9263 C.3       2 UNK         0.0481 
     23 CB         18.4122  -26.6621  -41.4690 C.3       2 UNK        -0.1831 
     24 N          17.1873  -25.1508  -42.9377 N.am      2 UNK        -0.4498 
     25 C          16.2805  -24.8133  -43.8652 C.2       1 UNK         0.5027 
     26 O          15.6963  -23.7291  -43.8140 O.2       1 UNK        -0.4969 
     27 C          22.3944  -26.9623  -44.0000 C.2       3 UNK         0.5005 
     28 O          23.1621  -27.9215  -43.9012 O.2       3 UNK        -0.5279 
     29 N          22.4692  -25.8660  -43.2309 N.am      4 UNK        -0.4463 
     30 CA         23.3252  -25.6612  -42.0579 C.3       4 UNK         0.0283 
     31 CB         24.8229  -25.6590  -42.4467 C.3       4 UNK        -0.1875 
     32 C          22.9563  -26.6457  -40.9276 C.2       4 UNK         0.4949 
     33 O          21.7693  -26.8996  -40.7137 O.2       4 UNK        -0.5039 
     34 N          23.9586  -27.1650  -40.2147 N.am      5 UNK        -0.4663 
     35 CA         23.8274  -28.1701  -39.1652 C.3       5 UNK         0.0242 
     36 CB         23.5600  -27.4840  -37.8136 C.3       5 UNK        -0.1982 
     37 C          25.1228  -28.9873  -39.1275 C.2       5 UNK         0.5017 
     38 O          26.1480  -28.5212  -39.6344 O.2       5 UNK        -0.5012 
     39 N          25.0541  -30.1906  -38.5420 N.am      6 UNK        -0.4439 
     40 CA         26.1176  -31.1967  -38.3776 C.3       6 UNK         0.0297 
     41 CB         27.3134  -30.6470  -37.5753 C.3       6 UNK        -0.2006 
     42 C          26.5776  -31.8496  -39.6946 C.2       6 UNK         0.4892 
     43 O          26.6800  -33.0752  -39.7521 O.2       6 UNK        -0.5089 
     44 N          26.8034  -31.0363  -40.7348 N.am      7 UNK        -0.4243 
     45 CA         27.0396  -31.4654  -42.1168 C.3       7 UNK         0.0196 
     46 CB         27.4958  -30.2559  -42.9484 C.3       7 UNK        -0.2007 
     47 C          25.7963  -32.1172  -42.7508 C.2       7 UNK         0.5020 
     48 O          25.9361  -32.9769  -43.6208 O.2       7 UNK        -0.5147 
     49 N          24.6110  -31.7161  -42.2810 N.am      8 UNK        -0.4734 
     50 CA         23.3198  -32.3280  -42.5600 C.3       8 UNK         0.0238 
     51 CB         22.6295  -31.5889  -43.7174 C.3       8 UNK        -0.1912 
     52 C          22.4901  -32.2396  -41.2747 C.2       8 UNK         0.5038 
     53 O          22.6627  -31.2867  -40.5088 O.2       8 UNK        -0.5046 
     54 N          21.6122  -33.2276  -41.0664 N.am      9 UNK        -0.4200 
     55 CA         20.6999  -33.3470  -39.9127 C.3       9 UNK         0.0839 
     56 C          21.4019  -33.5339  -38.5309 C.2       9 UNK         0.5513 
     57 N          22.6715  -33.9194  -38.4799 N.am      9 UNK        -0.7519 
     58 O          20.7803  -33.3600  -37.4856 O.2       9 UNK        -0.4960 
     59 C59        19.6059  -32.2397  -39.8835 C.3       10 UNK        -0.0876 
     60 S60        18.6280  -32.1826  -41.4250 S.3       10 UNK        -0.2414 
     61 C61        18.8160  -30.4374  -41.8922 C.3       10 UNK         0.0169 
     62 H62        14.6964  -23.8941  -48.2896 H         1 UNK         0.0903 
     63 H63        15.9997  -22.7088  -48.1841 H         1 UNK         0.0903 
     64 H64        16.2146  -24.1755  -49.1436 H         1 UNK         0.0903 
     65 H65        14.5187  -25.1015  -46.4072 H         1 UNK         0.3096 
     66 H66        16.7495  -26.4407  -45.2344 H         1 UNK         0.1121 
     67 H67        13.8592  -26.1457  -44.2329 H         1 UNK         0.0849 
     68 H68        15.0365  -27.2159  -43.5243 H         1 UNK         0.0849 
     69 H69        14.2601  -29.5676  -43.8210 H         1 UNK         0.0865 
     70 H70        14.3680  -30.3990  -45.3497 H         1 UNK         0.0865 
     71 H71        16.2018  -29.9618  -42.5068 H         1 UNK         0.1346 
     72 H72        20.0679  -30.3633  -44.3000 H         1 UNK         0.1412 
     73 H73        16.6555  -29.5154  -46.7512 H         1 UNK         0.1426 
     74 H74        18.7610  -30.2320  -47.7633 H         1 UNK         0.0716 
     75 H75        20.1525  -30.6355  -46.7980 H         1 UNK         0.0716 
     76 H76        22.3167  -28.0186  -46.6078 H         1 UNK         0.0695 
     77 H77        21.5059  -29.1171  -45.5360 H         1 UNK         0.0695 
     78 H78        21.2655  -26.0685  -45.5807 H         1 UNK         0.0983 
     79 H79        19.5109  -27.9729  -44.2615 H         1 UNK         0.3095 
     80 H80        17.5634  -27.1885  -43.3562 H         1 UNK         0.0454 
     81 H81        17.5224  -26.9305  -40.8996 H         1 UNK         0.0851 
     82 H82        18.8987  -25.8276  -40.9620 H         1 UNK         0.0851 
     83 H83        19.0989  -27.5074  -41.4164 H         1 UNK         0.0851 
     84 H84        17.4103  -24.4533  -42.2428 H         1 UNK         0.2976 
     85 H85        21.7233  -25.1858  -43.3486 H         1 UNK         0.3116 
     86 H86        23.0831  -24.6668  -41.6804 H         1 UNK         0.0646 
     87 H87        25.1749  -26.6491  -42.7391 H         1 UNK         0.0847 
     88 H88        25.4464  -25.3170  -41.6199 H         1 UNK         0.0847 
     89 H89        25.0099  -24.9837  -43.2816 H         1 UNK         0.0847 
     90 H90        24.9173  -26.9602  -40.4699 H         1 UNK         0.3040 
     91 H91        23.0011  -28.8423  -39.4092 H         1 UNK         0.1015 
     92 H92        24.3703  -26.8073  -37.5390 H         1 UNK         0.0786 
     93 H93        23.4597  -28.2174  -37.0125 H         1 UNK         0.0786 
     94 H94        22.6358  -26.9063  -37.8388 H         1 UNK         0.0786 
     95 H95        24.1439  -30.4900  -38.2171 H         1 UNK         0.3172 
     96 H96        25.6683  -31.9917  -37.7799 H         1 UNK         0.0595 
     97 H97        27.8446  -29.8609  -38.1124 H         1 UNK         0.0839 
     98 H98        28.0355  -31.4376  -37.3671 H         1 UNK         0.0839 
     99 H99        26.9937  -30.2402  -36.6160 H         1 UNK         0.0839 
    100 H100       26.7075  -30.0377  -40.5661 H         1 UNK         0.2998 
    101 H101       27.8400  -32.2083  -42.1114 H         1 UNK         0.0822 
    102 H102       28.4107  -29.8202  -42.5463 H         1 UNK         0.0787 
    103 H103       27.7013  -30.5467  -43.9796 H         1 UNK         0.0787 
    104 H104       26.7348  -29.4744  -42.9748 H         1 UNK         0.0787 
    105 H105       24.5861  -31.0324  -41.5352 H         1 UNK         0.3055 
    106 H106       23.4603  -33.3790  -42.8237 H         1 UNK         0.1106 
    107 H107       21.6782  -32.0609  -43.9646 H         1 UNK         0.0828 
    108 H108       23.2422  -31.6006  -44.6189 H         1 UNK         0.0828 
    109 H109       22.4292  -30.5470  -43.4638 H         1 UNK         0.0828 
    110 H110       21.5430  -33.9711  -41.7460 H         1 UNK         0.2931 
    111 H111       20.1798  -34.2926  -40.0701 H         1 UNK         0.0412 
    112 H112       23.1087  -34.0551  -37.5821 H         1 UNK         0.3472 
    113 H113       23.1927  -34.0836  -39.3258 H         1 UNK         0.3472 
    114 H114       20.0569  -31.2661  -39.6846 H         1 UNK         0.0970 
    115 H115       18.9047  -32.4163  -39.0660 H         1 UNK         0.0970 
    116 H116       19.8749  -30.1716  -41.8926 H         1 UNK         0.0612 
    117 H117       18.3358  -29.8128  -41.1377 H         1 UNK         0.0612 
@<TRIPOS>BOND
     1    1    2 1    
     2    1   62 1    
     3    1   63 1    
     4    1   64 1    
     5    2    3 2    
     6    2    4 am   BACKBONE|DICT|INTERRES
     7    4    5 1    
     8    4   65 1    
     9    5    6 1    
    10    5   25 1    
    11    5   66 1    
    12    6    7 1    
    13    6   67 1    
    14    6   68 1    
    15    7    8 1    
    16    8    9 1    
    17    8   69 1    
    18    8   70 1    
    19    9   10 ar   
    20    9   14 ar   
    21   10   11 ar   
    22   10   71 1    
    23   11   12 ar   
    24   11   61 1    
    25   12   13 ar   
    26   12   72 1    
    27   13   14 ar   
    28   13   15 1    
    29   14   73 1    
    30   15   16 1    
    31   15   74 1    
    32   15   75 1    
    33   16   17 1    
    34   17   18 1    
    35   17   76 1    
    36   17   77 1    
    37   18   19 1    
    38   18   27 1    
    39   18   78 1    
    40   19   20 am   BACKBONE|DICT|INTERRES
    41   19   79 1    
    42   20   21 2    
    43   20   22 1    
    44   22   23 1    
    45   22   24 1    
    46   22   80 1    
    47   23   81 1    
    48   23   82 1    
    49   23   83 1    
    50   24   25 am   BACKBONE|DICT|INTERRES
    51   24   84 1    
    52   25   26 2    
    53   27   28 2    
    54   27   29 am   BACKBONE|DICT|INTERRES
    55   29   30 1    
    56   29   85 1    
    57   30   31 1    
    58   30   32 1    
    59   30   86 1    
    60   31   87 1    
    61   31   88 1    
    62   31   89 1    
    63   32   33 2    
    64   32   34 am   BACKBONE|DICT|INTERRES
    65   34   35 1    
    66   34   90 1    
    67   35   36 1    
    68   35   37 1    
    69   35   91 1    
    70   36   92 1    
    71   36   93 1    
    72   36   94 1    
    73   37   38 2    
    74   37   39 am   BACKBONE|DICT|INTERRES
    75   39   40 1    
    76   39   95 1    
    77   40   41 1    
    78   40   42 1    
    79   40   96 1    
    80   41   97 1    
    81   41   98 1    
    82   41   99 1    
    83   42   43 2    
    84   42   44 am   BACKBONE|DICT|INTERRES
    85   44   45 1    
    86   44  100 1    
    87   45   46 1    
    88   45   47 1    
    89   45  101 1    
    90   46  102 1    
    91   46  103 1    
    92   46  104 1    
    93   47   48 2    
    94   47   49 am   BACKBONE|DICT|INTERRES
    95   49   50 1    
    96   49  105 1    
    97   50   51 1    
    98   50   52 1    
    99   50  106 1    
   100   51  107 1    
   101   51  108 1    
   102   51  109 1    
   103   52   53 2    
   104   52   54 am   BACKBONE|DICT|INTERRES
   105   54   55 1    
   106   54  110 1    
   107   55   56 1    
   108   55   59 1    
   109   55  111 1    
   110   56   57 am   BACKBONE|DICT|INTERRES
   111   56   58 2    
   112   57  112 1    
   113   57  113 1    
   114   59   60 1    
   115   59  114 1    
   116   59  115 1    
   117   60   61 1    
   118   61  116 1    
   119   61  117 1    
@<TRIPOS>SUBSTRUCTURE
     1 UNK         1 GROUP             0       ****    0 ROOT    
