@<TRIPOS>MOLECULE
3R8
117   119    1
SMALL
USER_CHARGES


@<TRIPOS>ATOM
      1 CA         21.3742  -23.7829  -48.8163 C.3       0 UNK        -0.2013 
      2 C          20.9930  -24.1727  -47.3959 C.2       0 UNK         0.4866 
      3 O          21.3461  -23.4645  -46.4538 O.2       0 UNK        -0.5176 
      4 N          20.2840  -25.2971  -47.2397 N.am      1 UNK        -0.4884 
      5 CA         19.7878  -25.8314  -45.9653 C.3       1 UNK         0.0853 
      6 C6         19.2088  -27.2576  -46.1498 C.3       10 UNK        -0.0849 
      7 S7         20.3734  -28.4301  -46.9330 S.3       10 UNK        -0.2776 
      8 C8         19.2618  -29.7884  -47.4337 C.3       10 UNK         0.0316 
      9 C9         18.6174  -30.4595  -46.2292 C.ar      10 UNK        -0.0863 
     10 C10        19.2430  -31.5345  -45.5894 C.ar      10 UNK        -0.1009 
     11 C11        18.6812  -32.0988  -44.4389 C.ar      10 UNK        -0.0712 
     12 C12        17.4826  -31.5844  -43.9339 C.ar      10 UNK        -0.0894 
     13 C13        16.8476  -30.5150  -44.5714 C.ar      10 UNK        -0.0745 
     14 C14        17.4049  -29.9769  -45.7323 C.ar      10 UNK        -0.0972 
     15 C15        15.5823  -29.9028  -43.9938 C.3       10 UNK         0.0209 
     16 S16        15.9068  -28.2437  -43.3119 S.3       10 UNK        -0.2568 
     17 C17        16.9224  -28.6335  -41.8465 C.3       10 UNK        -0.0983 
     18 CA         18.4187  -28.2485  -41.9957 C.3       3 UNK         0.0876 
     19 N          18.5878  -26.8360  -42.3647 N.am      3 UNK        -0.4424 
     20 C          19.7512  -26.2109  -42.5922 C.2       2 UNK         0.4918 
     21 O          20.8542  -26.7488  -42.5138 O.2       2 UNK        -0.4875 
     22 CA         19.6430  -24.7295  -42.9896 C.3       2 UNK         0.0481 
     23 CB         21.0026  -24.0352  -43.2145 C.3       2 UNK        -0.1831 
     24 N          18.7101  -24.4840  -44.0982 N.am      2 UNK        -0.4498 
     25 C          18.7007  -24.8935  -45.3793 C.2       1 UNK         0.5027 
     26 O          17.7910  -24.5380  -46.1305 O.2       1 UNK        -0.4969 
     27 C          19.1664  -28.6319  -40.7000 C.2       3 UNK         0.5005 
     28 O          19.7065  -29.7321  -40.6113 O.2       3 UNK        -0.5279 
     29 N          19.1608  -27.7327  -39.7064 N.am      4 UNK        -0.4463 
     30 CA         19.7700  -27.9496  -38.3964 C.3       4 UNK         0.0283 
     31 CB         19.1682  -26.9571  -37.3866 C.3       4 UNK        -0.1875 
     32 C          21.2983  -27.8134  -38.4635 C.2       4 UNK         0.4949 
     33 O          21.7980  -26.6949  -38.6005 O.2       4 UNK        -0.5039 
     34 N          22.0036  -28.9470  -38.3476 N.am      5 UNK        -0.4663 
     35 CA         23.4579  -29.1242  -38.2171 C.3       5 UNK         0.0242 
     36 CB         23.9936  -28.4377  -36.9455 C.3       5 UNK        -0.1982 
     37 C          24.2914  -28.7264  -39.4468 C.2       5 UNK         0.5017 
     38 O          25.1525  -29.5050  -39.8557 O.2       5 UNK        -0.5012 
     39 N          24.0320  -27.5449  -40.0204 N.am      6 UNK        -0.4439 
     40 CA         24.7514  -26.9662  -41.1622 C.3       6 UNK         0.0297 
     41 CB         24.2247  -25.5481  -41.4251 C.3       6 UNK        -0.2006 
     42 C          24.6749  -27.8167  -42.4425 C.2       6 UNK         0.4892 
     43 O          25.6333  -27.8401  -43.2148 O.2       6 UNK        -0.5089 
     44 N          23.5546  -28.5266  -42.6172 N.am      7 UNK        -0.4243 
     45 CA         23.3172  -29.4916  -43.6901 C.3       7 UNK         0.0196 
     46 CB         21.8007  -29.6199  -43.8832 C.3       7 UNK        -0.2007 
     47 C          23.9595  -30.8740  -43.4469 C.2       7 UNK         0.5020 
     48 O          23.7991  -31.7539  -44.2932 O.2       7 UNK        -0.5147 
     49 N          24.6600  -31.0535  -42.3144 N.am      8 UNK        -0.4734 
     50 CA         25.2759  -32.2976  -41.8314 C.3       8 UNK         0.0238 
     51 CB         26.3822  -32.7921  -42.7889 C.3       8 UNK        -0.1912 
     52 C          24.2271  -33.3755  -41.4968 C.2       8 UNK         0.5038 
     53 O          24.4051  -34.5469  -41.8376 O.2       8 UNK        -0.5046 
     54 N          23.1524  -32.9497  -40.8271 N.am      9 UNK        -0.4200 
     55 CA         22.0192  -33.7713  -40.3931 C.3       9 UNK         0.0839 
     56 C          21.3393  -33.1538  -39.1394 C.2       9 UNK         0.5513 
     57 N          20.4326  -33.8839  -38.5042 N.am      9 UNK        -0.7519 
     58 O          21.6300  -32.0305  -38.7275 O.2       9 UNK        -0.4960 
     59 C59        21.0299  -34.0760  -41.5560 C.3       10 UNK        -0.0876 
     60 S60        20.3256  -32.5701  -42.3034 S.3       10 UNK        -0.2414 
     61 C61        19.3889  -33.2307  -43.7095 C.3       10 UNK         0.0169 
     62 H62        21.0107  -24.5030  -49.5492 H         1 UNK         0.0903 
     63 H63        20.9552  -22.8076  -49.0624 H         1 UNK         0.0903 
     64 H64        22.4581  -23.7218  -48.9102 H         1 UNK         0.0903 
     65 H65        20.0274  -25.8361  -48.0544 H         1 UNK         0.3096 
     66 H66        20.6387  -25.9009  -45.2916 H         1 UNK         0.1121 
     67 H67        18.9165  -27.6696  -45.1826 H         1 UNK         0.0849 
     68 H68        18.3021  -27.2223  -46.7573 H         1 UNK         0.0849 
     69 H69        18.4975  -29.4057  -48.1119 H         1 UNK         0.0865 
     70 H70        19.8339  -30.5213  -48.0046 H         1 UNK         0.0865 
     71 H71        20.1846  -31.9098  -45.9666 H         1 UNK         0.1346 
     72 H72        17.0630  -32.0004  -43.0281 H         1 UNK         0.1412 
     73 H73        16.9151  -29.1445  -46.2186 H         1 UNK         0.1426 
     74 H74        15.1509  -30.5409  -43.2209 H         1 UNK         0.0716 
     75 H75        14.8306  -29.8217  -44.7802 H         1 UNK         0.0716 
     76 H76        16.8263  -29.6973  -41.6201 H         1 UNK         0.0695 
     77 H77        16.4773  -28.1089  -40.9987 H         1 UNK         0.0695 
     78 H78        18.8485  -28.8468  -42.8028 H         1 UNK         0.0983 
     79 H79        17.7309  -26.3152  -42.4850 H         1 UNK         0.3095 
     80 H80        19.1887  -24.2335  -42.1305 H         1 UNK         0.0454 
     81 H81        21.5477  -23.9596  -42.2738 H         1 UNK         0.0851 
     82 H82        20.8742  -23.0194  -43.5882 H         1 UNK         0.0851 
     83 H83        21.6501  -24.5651  -43.9110 H         1 UNK         0.0851 
     84 H84        17.9369  -23.8881  -43.8373 H         1 UNK         0.2976 
     85 H85        18.7297  -26.8346  -39.8684 H         1 UNK         0.3116 
     86 H86        19.5198  -28.9575  -38.0570 H         1 UNK         0.0646 
     87 H87        18.0921  -27.0980  -37.2838 H         1 UNK         0.0847 
     88 H88        19.3449  -25.9210  -37.6783 H         1 UNK         0.0847 
     89 H89        19.6077  -27.0948  -36.3977 H         1 UNK         0.0847 
     90 H90        21.4855  -29.8203  -38.3511 H         1 UNK         0.3040 
     91 H91        23.6052  -30.1979  -38.0869 H         1 UNK         0.1015 
     92 H92        25.0547  -28.6496  -36.8068 H         1 UNK         0.0786 
     93 H93        23.4744  -28.7931  -36.0554 H         1 UNK         0.0786 
     94 H94        23.8838  -27.3535  -36.9870 H         1 UNK         0.0786 
     95 H95        23.2772  -26.9959  -39.6107 H         1 UNK         0.3172 
     96 H96        25.8040  -26.8934  -40.8815 H         1 UNK         0.0595 
     97 H97        24.7411  -25.0860  -42.2677 H         1 UNK         0.0839 
     98 H98        24.3712  -24.9014  -40.5598 H         1 UNK         0.0839 
     99 H99        23.1607  -25.5596  -41.6592 H         1 UNK         0.0839 
    100 H100       22.8025  -28.3968  -41.9544 H         1 UNK         0.2998 
    101 H101       23.7442  -29.1005  -44.6159 H         1 UNK         0.0822 
    102 H102       21.5627  -30.3525  -44.6531 H         1 UNK         0.0787 
    103 H103       21.3629  -28.6738  -44.1960 H         1 UNK         0.0787 
    104 H104       21.3010  -29.9281  -42.9655 H         1 UNK         0.0787 
    105 H105       24.7457  -30.2675  -41.6773 H         1 UNK         0.3055 
    106 H106       25.7582  -32.0486  -40.8845 H         1 UNK         0.1106 
    107 H107       27.1074  -32.0057  -42.9971 H         1 UNK         0.0828 
    108 H108       26.9286  -33.6285  -42.3516 H         1 UNK         0.0828 
    109 H109       25.9762  -33.1359  -43.7405 H         1 UNK         0.0828 
    110 H110       23.0822  -31.9773  -40.5613 H         1 UNK         0.2931 
    111 H111       22.4329  -34.7224  -40.0520 H         1 UNK         0.0412 
    112 H112       19.9833  -33.4996  -37.6879 H         1 UNK         0.3472 
    113 H113       20.1902  -34.8100  -38.8195 H         1 UNK         0.3472 
    114 H114       21.5444  -34.6390  -42.3361 H         1 UNK         0.0970 
    115 H115       20.2149  -34.7164  -41.2156 H         1 UNK         0.0970 
    116 H116       20.0663  -33.7593  -44.3819 H         1 UNK         0.0612 
    117 H117       18.6602  -33.9608  -43.3542 H         1 UNK         0.0612 
@<TRIPOS>BOND
     1    1    2 1    
     2    1   62 1    
     3    1   63 1    
     4    1   64 1    
     5    2    3 2    
     6    2    4 am   BACKBONE|DICT|INTERRES
     7    4    5 1    
     8    4   65 1    
     9    5    6 1    
    10    5   25 1    
    11    5   66 1    
    12    6    7 1    
    13    6   67 1    
    14    6   68 1    
    15    7    8 1    
    16    8    9 1    
    17    8   69 1    
    18    8   70 1    
    19    9   10 ar   
    20    9   14 ar   
    21   10   11 ar   
    22   10   71 1    
    23   11   12 ar   
    24   11   61 1    
    25   12   13 ar   
    26   12   72 1    
    27   13   14 ar   
    28   13   15 1    
    29   14   73 1    
    30   15   16 1    
    31   15   74 1    
    32   15   75 1    
    33   16   17 1    
    34   17   18 1    
    35   17   76 1    
    36   17   77 1    
    37   18   19 1    
    38   18   27 1    
    39   18   78 1    
    40   19   20 am   BACKBONE|DICT|INTERRES
    41   19   79 1    
    42   20   21 2    
    43   20   22 1    
    44   22   23 1    
    45   22   24 1    
    46   22   80 1    
    47   23   81 1    
    48   23   82 1    
    49   23   83 1    
    50   24   25 am   BACKBONE|DICT|INTERRES
    51   24   84 1    
    52   25   26 2    
    53   27   28 2    
    54   27   29 am   BACKBONE|DICT|INTERRES
    55   29   30 1    
    56   29   85 1    
    57   30   31 1    
    58   30   32 1    
    59   30   86 1    
    60   31   87 1    
    61   31   88 1    
    62   31   89 1    
    63   32   33 2    
    64   32   34 am   BACKBONE|DICT|INTERRES
    65   34   35 1    
    66   34   90 1    
    67   35   36 1    
    68   35   37 1    
    69   35   91 1    
    70   36   92 1    
    71   36   93 1    
    72   36   94 1    
    73   37   38 2    
    74   37   39 am   BACKBONE|DICT|INTERRES
    75   39   40 1    
    76   39   95 1    
    77   40   41 1    
    78   40   42 1    
    79   40   96 1    
    80   41   97 1    
    81   41   98 1    
    82   41   99 1    
    83   42   43 2    
    84   42   44 am   BACKBONE|DICT|INTERRES
    85   44   45 1    
    86   44  100 1    
    87   45   46 1    
    88   45   47 1    
    89   45  101 1    
    90   46  102 1    
    91   46  103 1    
    92   46  104 1    
    93   47   48 2    
    94   47   49 am   BACKBONE|DICT|INTERRES
    95   49   50 1    
    96   49  105 1    
    97   50   51 1    
    98   50   52 1    
    99   50  106 1    
   100   51  107 1    
   101   51  108 1    
   102   51  109 1    
   103   52   53 2    
   104   52   54 am   BACKBONE|DICT|INTERRES
   105   54   55 1    
   106   54  110 1    
   107   55   56 1    
   108   55   59 1    
   109   55  111 1    
   110   56   57 am   BACKBONE|DICT|INTERRES
   111   56   58 2    
   112   57  112 1    
   113   57  113 1    
   114   59   60 1    
   115   59  114 1    
   116   59  115 1    
   117   60   61 1    
   118   61  116 1    
   119   61  117 1    
@<TRIPOS>SUBSTRUCTURE
     1 UNK         1 GROUP             0       ****    0 ROOT    
