@<TRIPOS>MOLECULE
3R8
117   119    1
SMALL
USER_CHARGES


@<TRIPOS>ATOM
      1 CA         20.1889  -24.7218  -39.5875 C.3       0 UNK        -0.2013 
      2 C          19.1456  -24.7796  -40.6919 C.2       0 UNK         0.4866 
      3 O          18.0984  -24.1420  -40.5753 O.2       0 UNK        -0.5176 
      4 N          19.4236  -25.5406  -41.7548 N.am      1 UNK        -0.4884 
      5 CA         18.5610  -25.6933  -42.9293 C.3       1 UNK         0.0853 
      6 C6         18.4077  -27.1862  -43.3192 C.3       10 UNK        -0.0849 
      7 S7         17.5476  -28.1550  -42.0337 S.3       10 UNK        -0.2776 
      8 C8         16.8523  -29.5337  -43.0050 C.3       10 UNK         0.0316 
      9 C9         17.9216  -30.2583  -43.8107 C.ar      10 UNK        -0.0863 
     10 C10        18.9406  -30.9560  -43.1567 C.ar      10 UNK        -0.1009 
     11 C11        19.9622  -31.5702  -43.8852 C.ar      10 UNK        -0.0712 
     12 C12        19.9454  -31.5060  -45.2815 C.ar      10 UNK        -0.0894 
     13 C13        18.9228  -30.8233  -45.9487 C.ar      10 UNK        -0.0745 
     14 C14        17.9102  -30.2064  -45.2079 C.ar      10 UNK        -0.0972 
     15 C15        18.9286  -30.7274  -47.4691 C.3       10 UNK         0.0209 
     16 S16        19.1868  -29.0203  -48.0574 S.3       10 UNK        -0.2568 
     17 C17        20.7973  -28.6147  -47.3020 C.3       10 UNK        -0.0983 
     18 CA         21.1662  -27.1156  -47.4221 C.3       3 UNK         0.0876 
     19 N          20.1134  -26.2380  -46.9048 N.am      3 UNK        -0.4424 
     20 C          20.0312  -24.9183  -47.1240 C.2       2 UNK         0.4918 
     21 O          20.8299  -24.2842  -47.8138 O.2       2 UNK        -0.4875 
     22 CA         18.8542  -24.1764  -46.4594 C.3       2 UNK         0.0481 
     23 CB         17.6687  -24.0755  -47.4325 C.3       2 UNK        -0.1831 
     24 N          18.4056  -24.7987  -45.2078 N.am      2 UNK        -0.4498 
     25 C          19.1527  -24.8788  -44.0968 C.2       1 UNK         0.5027 
     26 O          20.2710  -24.3659  -44.0005 O.2       1 UNK        -0.4969 
     27 C          22.5181  -26.8555  -46.7289 C.2       3 UNK         0.5005 
     28 O          23.5424  -26.7754  -47.4093 O.2       3 UNK        -0.5279 
     29 N          22.4974  -26.7424  -45.3935 N.am      4 UNK        -0.4463 
     30 CA         23.6612  -26.5725  -44.5294 C.3       4 UNK         0.0283 
     31 CB         24.5035  -27.8655  -44.4953 C.3       4 UNK        -0.1875 
     32 C          23.1889  -26.2260  -43.1135 C.2       4 UNK         0.4949 
     33 O          22.0723  -26.5849  -42.7282 O.2       4 UNK        -0.5039 
     34 N          24.0794  -25.5853  -42.3445 N.am      5 UNK        -0.4663 
     35 CA         23.8825  -25.2789  -40.9232 C.3       5 UNK         0.0242 
     36 CB         24.9520  -24.2753  -40.4646 C.3       5 UNK        -0.1982 
     37 C          23.8996  -26.5318  -40.0276 C.2       5 UNK         0.5017 
     38 O          23.2781  -26.5262  -38.9645 O.2       5 UNK        -0.5012 
     39 N          24.5828  -27.5922  -40.4806 N.am      6 UNK        -0.4439 
     40 CA         24.6094  -28.9189  -39.8640 C.3       6 UNK         0.0297 
     41 CB         25.8712  -29.6645  -40.3371 C.3       6 UNK        -0.2006 
     42 C          23.3141  -29.6897  -40.1819 C.2       6 UNK         0.4892 
     43 O          23.3427  -30.6661  -40.9316 O.2       6 UNK        -0.5089 
     44 N          22.1964  -29.2094  -39.6213 N.am      7 UNK        -0.4243 
     45 CA         20.8433  -29.7312  -39.8331 C.3       7 UNK         0.0196 
     46 CB         19.8284  -28.7509  -39.2259 C.3       7 UNK        -0.2007 
     47 C          20.6163  -31.1469  -39.2740 C.2       7 UNK         0.5020 
     48 O          19.7348  -31.8545  -39.7598 O.2       7 UNK        -0.5147 
     49 N          21.4114  -31.5532  -38.2764 N.am      8 UNK        -0.4734 
     50 CA         21.3488  -32.8628  -37.6199 C.3       8 UNK         0.0238 
     51 CB         21.9281  -32.7290  -36.1983 C.3       8 UNK        -0.1912 
     52 C          22.0350  -33.9783  -38.4386 C.2       8 UNK         0.5038 
     53 O          22.8321  -34.7388  -37.8854 O.2       8 UNK        -0.5046 
     54 N          21.7241  -34.0580  -39.7384 N.am      9 UNK        -0.4200 
     55 CA         22.2252  -35.0876  -40.6628 C.3       9 UNK         0.0839 
     56 C          21.4964  -36.4606  -40.5691 C.2       9 UNK         0.5513 
     57 N          20.4071  -36.5896  -39.8204 N.am      9 UNK        -0.7519 
     58 O          21.9406  -37.4331  -41.1742 O.2       9 UNK        -0.4960 
     59 C59        22.3230  -34.5637  -42.1200 C.3       10 UNK        -0.0876 
     60 S60        20.7342  -34.0134  -42.8388 S.3       10 UNK        -0.2414 
     61 C61        21.1050  -32.2651  -43.1635 C.3       10 UNK         0.0169 
     62 H62        20.8988  -25.5430  -39.6673 H         1 UNK         0.0903 
     63 H63        20.7382  -23.7821  -39.6342 H         1 UNK         0.0903 
     64 H64        19.7101  -24.7909  -38.6111 H         1 UNK         0.0903 
     65 H65        20.3421  -25.9638  -41.8559 H         1 UNK         0.3096 
     66 H66        17.5679  -25.2862  -42.7261 H         1 UNK         0.1121 
     67 H67        19.3832  -27.6435  -43.4999 H         1 UNK         0.0849 
     68 H68        17.8419  -27.2908  -44.2463 H         1 UNK         0.0849 
     69 H69        16.3721  -30.2403  -42.3266 H         1 UNK         0.0865 
     70 H70        16.0650  -29.1505  -43.6560 H         1 UNK         0.0865 
     71 H71        18.9493  -30.9964  -42.0768 H         1 UNK         0.1346 
     72 H72        20.7388  -31.9754  -45.8470 H         1 UNK         0.1412 
     73 H73        17.1287  -29.6652  -45.7239 H         1 UNK         0.1426 
     74 H74        17.9765  -31.0944  -47.8546 H         1 UNK         0.0716 
     75 H75        19.7006  -31.3692  -47.8967 H         1 UNK         0.0716 
     76 H76        21.5597  -29.2355  -47.7768 H         1 UNK         0.0695 
     77 H77        20.7741  -28.9068  -46.2509 H         1 UNK         0.0695 
     78 H78        21.2945  -26.8855  -48.4824 H         1 UNK         0.0983 
     79 H79        19.3855  -26.6849  -46.3696 H         1 UNK         0.3095 
     80 H80        19.1911  -23.1636  -46.2288 H         1 UNK         0.0454 
     81 H81        17.9686  -23.5901  -48.3623 H         1 UNK         0.0851 
     82 H82        16.8559  -23.4846  -47.0100 H         1 UNK         0.0851 
     83 H83        17.2722  -25.0578  -47.6925 H         1 UNK         0.0851 
     84 H84        17.4846  -25.2141  -45.2147 H         1 UNK         0.2976 
     85 H85        21.6170  -26.7654  -44.8944 H         1 UNK         0.3116 
     86 H86        24.2630  -25.7461  -44.9132 H         1 UNK         0.0646 
     87 H87        23.9230  -28.7122  -44.1253 H         1 UNK         0.0847 
     88 H88        24.8833  -28.1284  -45.4823 H         1 UNK         0.0847 
     89 H89        25.3712  -27.7556  -43.8442 H         1 UNK         0.0847 
     90 H90        24.9675  -25.3182  -42.7462 H         1 UNK         0.3040 
     91 H91        22.9040  -24.8082  -40.8132 H         1 UNK         0.1015 
     92 H92        24.8112  -24.0080  -39.4162 H         1 UNK         0.0786 
     93 H93        24.9026  -23.3513  -41.0412 H         1 UNK         0.0786 
     94 H94        25.9593  -24.6817  -40.5646 H         1 UNK         0.0786 
     95 H95        25.0376  -27.5038  -41.3766 H         1 UNK         0.3172 
     96 H96        24.6740  -28.8076  -38.7794 H         1 UNK         0.0595 
     97 H97        25.8829  -29.7981  -41.4198 H         1 UNK         0.0839 
     98 H98        25.9287  -30.6565  -39.8869 H         1 UNK         0.0839 
     99 H99        26.7781  -29.1295  -40.0549 H         1 UNK         0.0839 
    100 H100       22.2822  -28.3662  -39.0643 H         1 UNK         0.2998 
    101 H101       20.6718  -29.7724  -40.9104 H         1 UNK         0.0822 
    102 H102       18.8086  -29.1202  -39.3447 H         1 UNK         0.0787 
    103 H103       19.9985  -28.5978  -38.1596 H         1 UNK         0.0787 
    104 H104       19.8745  -27.7814  -39.7203 H         1 UNK         0.0787 
    105 H105       22.1324  -30.9211  -37.9602 H         1 UNK         0.3055 
    106 H106       20.2999  -33.1520  -37.5203 H         1 UNK         0.1106 
    107 H107       21.3990  -31.9688  -35.6233 H         1 UNK         0.0828 
    108 H108       21.8373  -33.6663  -35.6474 H         1 UNK         0.0828 
    109 H109       22.9855  -32.4622  -36.2164 H         1 UNK         0.0828 
    110 H110       21.0386  -33.4099  -40.1104 H         1 UNK         0.2931 
    111 H111       23.2524  -35.3042  -40.3628 H         1 UNK         0.0412 
    112 H112       19.9495  -37.4861  -39.7636 H         1 UNK         0.3472 
    113 H113       20.0289  -35.7971  -39.3274 H         1 UNK         0.3472 
    114 H114       23.0385  -33.7401  -42.1497 H         1 UNK         0.0970 
    115 H115       22.7455  -35.3299  -42.7728 H         1 UNK         0.0970 
    116 H116       21.3080  -31.7636  -42.2181 H         1 UNK         0.0612 
    117 H117       22.0187  -32.1893  -43.7551 H         1 UNK         0.0612 
@<TRIPOS>BOND
     1    1    2 1    
     2    1   62 1    
     3    1   63 1    
     4    1   64 1    
     5    2    3 2    
     6    2    4 am   BACKBONE|DICT|INTERRES
     7    4    5 1    
     8    4   65 1    
     9    5    6 1    
    10    5   25 1    
    11    5   66 1    
    12    6    7 1    
    13    6   67 1    
    14    6   68 1    
    15    7    8 1    
    16    8    9 1    
    17    8   69 1    
    18    8   70 1    
    19    9   10 ar   
    20    9   14 ar   
    21   10   11 ar   
    22   10   71 1    
    23   11   12 ar   
    24   11   61 1    
    25   12   13 ar   
    26   12   72 1    
    27   13   14 ar   
    28   13   15 1    
    29   14   73 1    
    30   15   16 1    
    31   15   74 1    
    32   15   75 1    
    33   16   17 1    
    34   17   18 1    
    35   17   76 1    
    36   17   77 1    
    37   18   19 1    
    38   18   27 1    
    39   18   78 1    
    40   19   20 am   BACKBONE|DICT|INTERRES
    41   19   79 1    
    42   20   21 2    
    43   20   22 1    
    44   22   23 1    
    45   22   24 1    
    46   22   80 1    
    47   23   81 1    
    48   23   82 1    
    49   23   83 1    
    50   24   25 am   BACKBONE|DICT|INTERRES
    51   24   84 1    
    52   25   26 2    
    53   27   28 2    
    54   27   29 am   BACKBONE|DICT|INTERRES
    55   29   30 1    
    56   29   85 1    
    57   30   31 1    
    58   30   32 1    
    59   30   86 1    
    60   31   87 1    
    61   31   88 1    
    62   31   89 1    
    63   32   33 2    
    64   32   34 am   BACKBONE|DICT|INTERRES
    65   34   35 1    
    66   34   90 1    
    67   35   36 1    
    68   35   37 1    
    69   35   91 1    
    70   36   92 1    
    71   36   93 1    
    72   36   94 1    
    73   37   38 2    
    74   37   39 am   BACKBONE|DICT|INTERRES
    75   39   40 1    
    76   39   95 1    
    77   40   41 1    
    78   40   42 1    
    79   40   96 1    
    80   41   97 1    
    81   41   98 1    
    82   41   99 1    
    83   42   43 2    
    84   42   44 am   BACKBONE|DICT|INTERRES
    85   44   45 1    
    86   44  100 1    
    87   45   46 1    
    88   45   47 1    
    89   45  101 1    
    90   46  102 1    
    91   46  103 1    
    92   46  104 1    
    93   47   48 2    
    94   47   49 am   BACKBONE|DICT|INTERRES
    95   49   50 1    
    96   49  105 1    
    97   50   51 1    
    98   50   52 1    
    99   50  106 1    
   100   51  107 1    
   101   51  108 1    
   102   51  109 1    
   103   52   53 2    
   104   52   54 am   BACKBONE|DICT|INTERRES
   105   54   55 1    
   106   54  110 1    
   107   55   56 1    
   108   55   59 1    
   109   55  111 1    
   110   56   57 am   BACKBONE|DICT|INTERRES
   111   56   58 2    
   112   57  112 1    
   113   57  113 1    
   114   59   60 1    
   115   59  114 1    
   116   59  115 1    
   117   60   61 1    
   118   61  116 1    
   119   61  117 1    
@<TRIPOS>SUBSTRUCTURE
     1 UNK         1 GROUP             0       ****    0 ROOT    
