@<TRIPOS>MOLECULE
3R8
117   119    1
SMALL
USER_CHARGES


@<TRIPOS>ATOM
      1 CA         18.4108  -29.2275  -39.5471 C.3       0 UNK        -0.2013 
      2 C          18.7288  -28.7693  -40.9613 C.2       0 UNK         0.4866 
      3 O          17.8849  -28.1480  -41.6080 O.2       0 UNK        -0.5176 
      4 N          19.9573  -29.0255  -41.4313 N.am      1 UNK        -0.4884 
      5 CA         20.5013  -28.6101  -42.7284 C.3       1 UNK         0.0853 
      6 C6         21.7776  -29.3978  -43.1576 C.3       10 UNK        -0.0849 
      7 S7         21.6659  -31.2119  -43.2279 S.3       10 UNK        -0.2776 
      8 C8         21.0196  -31.4936  -44.9157 C.3       10 UNK         0.0316 
      9 C9         19.5383  -31.1611  -44.9695 C.ar      10 UNK        -0.0863 
     10 C10        18.6680  -31.8388  -44.1195 C.ar      10 UNK        -0.1009 
     11 C11        17.3491  -31.4293  -43.9596 C.ar      10 UNK        -0.0712 
     12 C12        16.8608  -30.3968  -44.7737 C.ar      10 UNK        -0.0894 
     13 C13        17.6939  -29.7781  -45.7208 C.ar      10 UNK        -0.0745 
     14 C14        19.0400  -30.1546  -45.8001 C.ar      10 UNK        -0.0972 
     15 C15        17.1331  -28.7365  -46.6856 C.3       10 UNK         0.0209 
     16 S16        17.3658  -27.0204  -46.1161 S.3       10 UNK        -0.2568 
     17 C17        19.0187  -26.5984  -46.7833 C.3       10 UNK        -0.0983 
     18 CA         19.5928  -25.2648  -46.2275 C.3       3 UNK         0.0876 
     19 N          19.4643  -25.2310  -44.7766 N.am      3 UNK        -0.4424 
     20 C          19.8956  -24.3189  -43.8994 C.2       2 UNK         0.4918 
     21 O          20.3377  -23.2105  -44.1993 O.2       2 UNK        -0.4875 
     22 CA         19.8793  -24.7814  -42.4270 C.3       2 UNK         0.0481 
     23 CB         18.6761  -24.1829  -41.6833 C.3       2 UNK        -0.1831 
     24 N          19.8537  -26.2482  -42.2913 N.am      2 UNK        -0.4498 
     25 C          20.7792  -27.0889  -42.7778 C.2       1 UNK         0.5027 
     26 O          21.8155  -26.6830  -43.3056 O.2       1 UNK        -0.4969 
     27 C          21.0488  -25.0740  -46.7199 C.2       3 UNK         0.5005 
     28 O          21.2344  -24.4710  -47.7785 O.2       3 UNK        -0.5279 
     29 N          22.0470  -25.5844  -45.9738 N.am      4 UNK        -0.4463 
     30 CA         23.4682  -25.5119  -46.3221 C.3       4 UNK         0.0283 
     31 CB         23.7874  -26.3900  -47.5540 C.3       4 UNK        -0.1875 
     32 C          24.3723  -25.8673  -45.1287 C.2       4 UNK         0.4949 
     33 O          24.9970  -24.9764  -44.5541 O.2       4 UNK        -0.5039 
     34 N          24.4762  -27.1695  -44.8233 N.am      5 UNK        -0.4663 
     35 CA         25.5200  -27.7596  -43.9724 C.3       5 UNK         0.0242 
     36 CB         25.5511  -29.2788  -44.2166 C.3       5 UNK        -0.1982 
     37 C          25.4289  -27.4693  -42.4617 C.2       5 UNK         0.5017 
     38 O          26.4290  -27.6530  -41.7679 O.2       5 UNK        -0.5012 
     39 N          24.2485  -27.0693  -41.9705 N.am      6 UNK        -0.4439 
     40 CA         23.9059  -26.7766  -40.5683 C.3       6 UNK         0.0297 
     41 CB         24.7232  -25.5788  -40.0405 C.3       6 UNK        -0.2006 
     42 C          23.9447  -27.9819  -39.5975 C.2       6 UNK         0.4892 
     43 O          23.8233  -27.7768  -38.3885 O.2       6 UNK        -0.5089 
     44 N          24.0772  -29.2103  -40.1185 N.am      7 UNK        -0.4243 
     45 CA         23.9523  -30.4672  -39.3697 C.3       7 UNK         0.0196 
     46 CB         24.5316  -31.6048  -40.2268 C.3       7 UNK        -0.2007 
     47 C          22.4842  -30.7637  -39.0154 C.2       7 UNK         0.5020 
     48 O          21.5868  -30.2292  -39.6625 O.2       7 UNK        -0.5147 
     49 N          22.2371  -31.6453  -38.0383 N.am      8 UNK        -0.4734 
     50 CA         20.8947  -32.0149  -37.5524 C.3       8 UNK         0.0238 
     51 CB         21.0237  -32.5560  -36.1156 C.3       8 UNK        -0.1912 
     52 C          20.1347  -32.9911  -38.4845 C.2       8 UNK         0.5038 
     53 O          19.5972  -33.9963  -38.0166 O.2       8 UNK        -0.5046 
     54 N          20.1344  -32.6926  -39.7888 N.am      9 UNK        -0.4200 
     55 CA         19.6438  -33.5243  -40.9013 C.3       9 UNK         0.0839 
     56 C          20.3636  -34.9012  -41.0549 C.2       9 UNK         0.5513 
     57 N          21.5656  -35.0808  -40.5197 N.am      9 UNK        -0.7519 
     58 O          19.8463  -35.8130  -41.6953 O.2       9 UNK        -0.4960 
     59 C59        18.0869  -33.6299  -41.0043 C.3       10 UNK        -0.0876 
     60 S60        17.2056  -32.0357  -41.2156 S.3       10 UNK        -0.2414 
     61 C61        16.4797  -32.1111  -42.9037 C.3       10 UNK         0.0169 
     62 H62        17.3369  -29.3652  -39.4234 H         1 UNK         0.0903 
     63 H63        18.8945  -30.1758  -39.3239 H         1 UNK         0.0903 
     64 H64        18.7486  -28.4863  -38.8237 H         1 UNK         0.0903 
     65 H65        20.6186  -29.5067  -40.8174 H         1 UNK         0.3096 
     66 H66        19.7271  -28.7971  -43.4733 H         1 UNK         0.1121 
     67 H67        22.5879  -29.1766  -42.4661 H         1 UNK         0.0849 
     68 H68        22.1205  -29.0636  -44.1383 H         1 UNK         0.0849 
     69 H69        21.1604  -32.5422  -45.1817 H         1 UNK         0.0865 
     70 H70        21.5895  -30.9088  -45.6392 H         1 UNK         0.0865 
     71 H71        19.0388  -32.6595  -43.5339 H         1 UNK         0.1346 
     72 H72        15.8288  -30.0865  -44.6844 H         1 UNK         0.1412 
     73 H73        19.6998  -29.6645  -46.5014 H         1 UNK         0.1426 
     74 H74        16.0645  -28.9079  -46.8229 H         1 UNK         0.0716 
     75 H75        17.5816  -28.8589  -47.6727 H         1 UNK         0.0716 
     76 H76        18.9495  -26.5560  -47.8720 H         1 UNK         0.0695 
     77 H77        19.6961  -27.4202  -46.5504 H         1 UNK         0.0695 
     78 H78        19.0005  -24.4358  -46.6197 H         1 UNK         0.0983 
     79 H79        19.0507  -26.0643  -44.3859 H         1 UNK         0.3095 
     80 H80        20.7955  -24.4188  -41.9567 H         1 UNK         0.0454 
     81 H81        17.7300  -24.5317  -42.0993 H         1 UNK         0.0851 
     82 H82        18.6796  -23.0939  -41.7474 H         1 UNK         0.0851 
     83 H83        18.6939  -24.4439  -40.6251 H         1 UNK         0.0851 
     84 H84        19.0115  -26.6692  -41.9048 H         1 UNK         0.2976 
     85 H85        21.8382  -25.9998  -45.0684 H         1 UNK         0.3116 
     86 H86        23.6946  -24.4757  -46.5832 H         1 UNK         0.0646 
     87 H87        24.8628  -26.4460  -47.7296 H         1 UNK         0.0847 
     88 H88        23.3429  -25.9815  -48.4613 H         1 UNK         0.0847 
     89 H89        23.4192  -27.4096  -47.4388 H         1 UNK         0.0847 
     90 H90        23.9075  -27.8201  -45.3441 H         1 UNK         0.3040 
     91 H91        26.4770  -27.3495  -44.3031 H         1 UNK         0.1015 
     92 H92        25.7454  -29.5085  -45.2644 H         1 UNK         0.0786 
     93 H93        24.6124  -29.7574  -43.9370 H         1 UNK         0.0786 
     94 H94        26.3424  -29.7542  -43.6348 H         1 UNK         0.0786 
     95 H95        23.4891  -26.9263  -42.6348 H         1 UNK         0.3172 
     96 H96        22.8615  -26.4626  -40.5897 H         1 UNK         0.0595 
     97 H97        25.7774  -25.8286  -39.9189 H         1 UNK         0.0839 
     98 H98        24.3553  -25.2498  -39.0679 H         1 UNK         0.0839 
     99 H99        24.6556  -24.7251  -40.7150 H         1 UNK         0.0839 
    100 H100       24.1684  -29.2905  -41.1187 H         1 UNK         0.2998 
    101 H101       24.5262  -30.3844  -38.4444 H         1 UNK         0.0822 
    102 H102       25.5728  -31.4137  -40.4876 H         1 UNK         0.0787 
    103 H103       24.5034  -32.5555  -39.6929 H         1 UNK         0.0787 
    104 H104       23.9730  -31.7361  -41.1548 H         1 UNK         0.0787 
    105 H105       23.0189  -32.0858  -37.5735 H         1 UNK         0.3055 
    106 H106       20.2895  -31.1071  -37.5011 H         1 UNK         0.1106 
    107 H107       20.0439  -32.7727  -35.6875 H         1 UNK         0.0828 
    108 H108       21.6053  -33.4781  -36.0825 H         1 UNK         0.0828 
    109 H109       21.5046  -31.8307  -35.4590 H         1 UNK         0.0828 
    110 H110       20.6132  -31.8400  -40.0602 H         1 UNK         0.2931 
    111 H111       19.9930  -32.9760  -41.7662 H         1 UNK         0.0412 
    112 H112       22.0111  -34.3415  -40.0019 H         1 UNK         0.3472 
    113 H113       22.0279  -35.9692  -40.6335 H         1 UNK         0.3472 
    114 H114       17.6939  -34.1174  -40.1110 H         1 UNK         0.0970 
    115 H115       17.8041  -34.2766  -41.8359 H         1 UNK         0.0970 
    116 H116       15.5022  -31.6284  -42.8663 H         1 UNK         0.0612 
    117 H117       16.2958  -33.1463  -43.1927 H         1 UNK         0.0612 
@<TRIPOS>BOND
     1    1    2 1    
     2    1   62 1    
     3    1   63 1    
     4    1   64 1    
     5    2    3 2    
     6    2    4 am   BACKBONE|DICT|INTERRES
     7    4    5 1    
     8    4   65 1    
     9    5    6 1    
    10    5   25 1    
    11    5   66 1    
    12    6    7 1    
    13    6   67 1    
    14    6   68 1    
    15    7    8 1    
    16    8    9 1    
    17    8   69 1    
    18    8   70 1    
    19    9   10 ar   
    20    9   14 ar   
    21   10   11 ar   
    22   10   71 1    
    23   11   12 ar   
    24   11   61 1    
    25   12   13 ar   
    26   12   72 1    
    27   13   14 ar   
    28   13   15 1    
    29   14   73 1    
    30   15   16 1    
    31   15   74 1    
    32   15   75 1    
    33   16   17 1    
    34   17   18 1    
    35   17   76 1    
    36   17   77 1    
    37   18   19 1    
    38   18   27 1    
    39   18   78 1    
    40   19   20 am   BACKBONE|DICT|INTERRES
    41   19   79 1    
    42   20   21 2    
    43   20   22 1    
    44   22   23 1    
    45   22   24 1    
    46   22   80 1    
    47   23   81 1    
    48   23   82 1    
    49   23   83 1    
    50   24   25 am   BACKBONE|DICT|INTERRES
    51   24   84 1    
    52   25   26 2    
    53   27   28 2    
    54   27   29 am   BACKBONE|DICT|INTERRES
    55   29   30 1    
    56   29   85 1    
    57   30   31 1    
    58   30   32 1    
    59   30   86 1    
    60   31   87 1    
    61   31   88 1    
    62   31   89 1    
    63   32   33 2    
    64   32   34 am   BACKBONE|DICT|INTERRES
    65   34   35 1    
    66   34   90 1    
    67   35   36 1    
    68   35   37 1    
    69   35   91 1    
    70   36   92 1    
    71   36   93 1    
    72   36   94 1    
    73   37   38 2    
    74   37   39 am   BACKBONE|DICT|INTERRES
    75   39   40 1    
    76   39   95 1    
    77   40   41 1    
    78   40   42 1    
    79   40   96 1    
    80   41   97 1    
    81   41   98 1    
    82   41   99 1    
    83   42   43 2    
    84   42   44 am   BACKBONE|DICT|INTERRES
    85   44   45 1    
    86   44  100 1    
    87   45   46 1    
    88   45   47 1    
    89   45  101 1    
    90   46  102 1    
    91   46  103 1    
    92   46  104 1    
    93   47   48 2    
    94   47   49 am   BACKBONE|DICT|INTERRES
    95   49   50 1    
    96   49  105 1    
    97   50   51 1    
    98   50   52 1    
    99   50  106 1    
   100   51  107 1    
   101   51  108 1    
   102   51  109 1    
   103   52   53 2    
   104   52   54 am   BACKBONE|DICT|INTERRES
   105   54   55 1    
   106   54  110 1    
   107   55   56 1    
   108   55   59 1    
   109   55  111 1    
   110   56   57 am   BACKBONE|DICT|INTERRES
   111   56   58 2    
   112   57  112 1    
   113   57  113 1    
   114   59   60 1    
   115   59  114 1    
   116   59  115 1    
   117   60   61 1    
   118   61  116 1    
   119   61  117 1    
@<TRIPOS>SUBSTRUCTURE
     1 UNK         1 GROUP             0       ****    0 ROOT    
