@<TRIPOS>MOLECULE
3R8
117   119    1
SMALL
USER_CHARGES


@<TRIPOS>ATOM
      1 CA         12.1401  -24.0232  -43.1943 C.3       0 UNK        -0.2013 
      2 C          13.1051  -24.5061  -44.2669 C.2       0 UNK         0.4866 
      3 O          12.7905  -24.4256  -45.4550 O.2       0 UNK        -0.5176 
      4 N          14.2732  -25.0160  -43.8579 N.am      1 UNK        -0.4884 
      5 CA         15.3398  -25.4856  -44.7487 C.3       1 UNK         0.0853 
      6 C6         16.3982  -26.3178  -43.9861 C.3       10 UNK        -0.0849 
      7 S7         15.7159  -27.8535  -43.2728 S.3       10 UNK        -0.2776 
      8 C8         16.5020  -29.1403  -44.3022 C.3       10 UNK         0.0316 
      9 C9         18.0219  -29.1281  -44.1865 C.ar      10 UNK        -0.0863 
     10 C10        18.6381  -29.4381  -42.9716 C.ar      10 UNK        -0.1009 
     11 C11        20.0297  -29.4040  -42.8527 C.ar      10 UNK        -0.0712 
     12 C12        20.8081  -29.0619  -43.9635 C.ar      10 UNK        -0.0894 
     13 C13        20.2084  -28.7550  -45.1897 C.ar      10 UNK        -0.0745 
     14 C14        18.8123  -28.8035  -45.2936 C.ar      10 UNK        -0.0972 
     15 C15        21.0834  -28.4296  -46.4001 C.3       10 UNK         0.0209 
     16 S16        20.3953  -27.1319  -47.4888 S.3       10 UNK        -0.2568 
     17 C17        21.3170  -25.6272  -47.0049 C.3       10 UNK        -0.0983 
     18 CA         20.5898  -24.6853  -46.0010 C.3       3 UNK         0.0876 
     19 N          19.1909  -24.4529  -46.3448 N.am      3 UNK        -0.4424 
     20 C          18.7339  -23.6109  -47.2754 C.2       2 UNK         0.4918 
     21 O          19.4641  -22.8683  -47.9332 O.2       2 UNK        -0.4875 
     22 CA         17.2139  -23.6007  -47.5435 C.3       2 UNK         0.0481 
     23 CB         16.9249  -23.9135  -49.0220 C.3       2 UNK        -0.1831 
     24 N          16.4681  -24.5522  -46.7110 N.am      2 UNK        -0.4498 
     25 C          16.0235  -24.3060  -45.4715 C.2       1 UNK         0.5027 
     26 O          16.1793  -23.2302  -44.8878 O.2       1 UNK        -0.4969 
     27 C          20.6707  -25.1686  -44.5431 C.2       3 UNK         0.5005 
     28 O          19.6366  -25.3868  -43.9055 O.2       3 UNK        -0.5279 
     29 N          21.9016  -25.3110  -44.0438 N.am      4 UNK        -0.4463 
     30 CA         22.2416  -25.8524  -42.7336 C.3       4 UNK         0.0283 
     31 CB         22.4326  -24.7036  -41.7288 C.3       4 UNK        -0.1875 
     32 C          23.5227  -26.6804  -42.8888 C.2       4 UNK         0.4949 
     33 O          24.2620  -26.4894  -43.8585 O.2       4 UNK        -0.5039 
     34 N          23.7569  -27.5864  -41.9381 N.am      5 UNK        -0.4663 
     35 CA         24.8680  -28.5342  -41.9038 C.3       5 UNK         0.0242 
     36 CB         24.6631  -29.6372  -42.9672 C.3       5 UNK        -0.1982 
     37 C          24.9628  -29.1223  -40.4875 C.2       5 UNK         0.5017 
     38 O          24.2002  -28.7189  -39.6041 O.2       5 UNK        -0.5012 
     39 N          25.8777  -30.0795  -40.3098 N.am      6 UNK        -0.4439 
     40 CA         26.0457  -30.8934  -39.1060 C.3       6 UNK         0.0297 
     41 CB         27.3594  -30.4916  -38.4045 C.3       6 UNK        -0.2006 
     42 C          25.9892  -32.3792  -39.5093 C.2       6 UNK         0.4892 
     43 O          25.3237  -32.7085  -40.4954 O.2       6 UNK        -0.5089 
     44 N          26.6814  -33.2455  -38.7539 N.am      7 UNK        -0.4243 
     45 CA         26.8046  -34.6973  -38.9405 C.3       7 UNK         0.0196 
     46 CB         27.5875  -35.0287  -40.2315 C.3       7 UNK        -0.2007 
     47 C          25.4437  -35.4099  -38.8497 C.2       7 UNK         0.5020 
     48 O          25.0253  -35.7673  -37.7484 O.2       7 UNK        -0.5147 
     49 N          24.7758  -35.5943  -39.9964 N.am      8 UNK        -0.4734 
     50 CA         23.4148  -36.1291  -40.0914 C.3       8 UNK         0.0238 
     51 CB         23.1086  -36.4877  -41.5544 C.3       8 UNK        -0.1912 
     52 C          22.3561  -35.1579  -39.5390 C.2       8 UNK         0.5038 
     53 O          21.3477  -35.6142  -38.9984 O.2       8 UNK        -0.5046 
     54 N          22.6080  -33.8494  -39.6717 N.am      9 UNK        -0.4200 
     55 CA         21.8149  -32.7834  -39.0503 C.3       9 UNK         0.0839 
     56 C          22.1684  -32.6574  -37.5457 C.2       9 UNK         0.5513 
     57 N          21.1720  -32.6105  -36.6727 N.am      9 UNK        -0.7519 
     58 O          23.3346  -32.5553  -37.1719 O.2       9 UNK        -0.4960 
     59 C59        22.0264  -31.4324  -39.7737 C.3       10 UNK        -0.0876 
     60 S60        21.3212  -31.4175  -41.4552 S.3       10 UNK        -0.2414 
     61 C61        20.6861  -29.7152  -41.5173 C.3       10 UNK         0.0169 
     62 H62        12.5394  -24.1687  -42.1907 H         1 UNK         0.0903 
     63 H63        11.9336  -22.9615  -43.3263 H         1 UNK         0.0903 
     64 H64        11.1976  -24.5655  -43.2657 H         1 UNK         0.0903 
     65 H65        14.4839  -25.0530  -42.8708 H         1 UNK         0.3096 
     66 H66        14.8794  -26.1242  -45.5065 H         1 UNK         0.1121 
     67 H67        17.2297  -26.5704  -44.6446 H         1 UNK         0.0849 
     68 H68        16.8373  -25.7321  -43.1757 H         1 UNK         0.0849 
     69 H69        16.1295  -30.1176  -43.9921 H         1 UNK         0.0865 
     70 H70        16.1870  -29.0093  -45.3387 H         1 UNK         0.0865 
     71 H71        18.0296  -29.6924  -42.1143 H         1 UNK         0.1346 
     72 H72        21.8847  -29.0443  -43.8722 H         1 UNK         0.1412 
     73 H73        18.3373  -28.5825  -46.2392 H         1 UNK         0.1426 
     74 H74        21.1933  -29.3417  -46.9878 H         1 UNK         0.0716 
     75 H75        22.0896  -28.1491  -46.0849 H         1 UNK         0.0716 
     76 H76        22.3150  -25.8988  -46.6580 H         1 UNK         0.0695 
     77 H77        21.4897  -25.0700  -47.9268 H         1 UNK         0.0695 
     78 H78        21.0983  -23.7185  -46.0147 H         1 UNK         0.0983 
     79 H79        18.5410  -24.9819  -45.7809 H         1 UNK         0.3095 
     80 H80        16.8560  -22.5896  -47.3384 H         1 UNK         0.0454 
     81 H81        17.4101  -23.1902  -49.6788 H         1 UNK         0.0851 
     82 H82        17.2881  -24.9026  -49.3041 H         1 UNK         0.0851 
     83 H83        15.8568  -23.8728  -49.2359 H         1 UNK         0.0851 
     84 H84        16.3117  -25.4651  -47.1153 H         1 UNK         0.2976 
     85 H85        22.7067  -25.1751  -44.6435 H         1 UNK         0.3116 
     86 H86        21.4436  -26.5137  -42.3880 H         1 UNK         0.0646 
     87 H87        22.6840  -25.0849  -40.7384 H         1 UNK         0.0847 
     88 H88        21.5215  -24.1139  -41.6260 H         1 UNK         0.0847 
     89 H89        23.2346  -24.0303  -42.0338 H         1 UNK         0.0847 
     90 H90        23.1651  -27.6300  -41.1167 H         1 UNK         0.3040 
     91 H91        25.7959  -27.9948  -42.1067 H         1 UNK         0.1015 
     92 H92        24.5447  -29.2194  -43.9668 H         1 UNK         0.0786 
     93 H93        23.7816  -30.2416  -42.7526 H         1 UNK         0.0786 
     94 H94        25.5161  -30.3145  -43.0130 H         1 UNK         0.0786 
     95 H95        26.3994  -30.3971  -41.1152 H         1 UNK         0.3172 
     96 H96        25.2170  -30.7251  -38.4152 H         1 UNK         0.0595 
     97 H97        27.3920  -29.4174  -38.2213 H         1 UNK         0.0839 
     98 H98        28.2346  -30.7510  -39.0021 H         1 UNK         0.0839 
     99 H99        27.4608  -30.9768  -37.4332 H         1 UNK         0.0839 
    100 H100       27.1603  -32.8763  -37.9445 H         1 UNK         0.2998 
    101 H101       27.3976  -35.0655  -38.1015 H         1 UNK         0.0822 
    102 H102       28.6017  -34.6323  -40.1832 H         1 UNK         0.0787 
    103 H103       27.6718  -36.1074  -40.3709 H         1 UNK         0.0787 
    104 H104       27.1196  -34.6179  -41.1263 H         1 UNK         0.0787 
    105 H105       25.1834  -35.2210  -40.8427 H         1 UNK         0.3055 
    106 H106       23.3646  -37.0426  -39.4943 H         1 UNK         0.1106 
    107 H107       23.1555  -35.6126  -42.2040 H         1 UNK         0.0828 
    108 H108       23.8100  -37.2294  -41.9370 H         1 UNK         0.0828 
    109 H109       22.1076  -36.9109  -41.6501 H         1 UNK         0.0828 
    110 H110       23.4857  -33.5632  -40.0913 H         1 UNK         0.2931 
    111 H111       20.7581  -33.0465  -39.1360 H         1 UNK         0.0412 
    112 H112       21.3839  -32.5117  -35.6918 H         1 UNK         0.3472 
    113 H113       20.2120  -32.6870  -36.9724 H         1 UNK         0.3472 
    114 H114       23.0882  -31.2008  -39.8409 H         1 UNK         0.0970 
    115 H115       21.5777  -30.6211  -39.1968 H         1 UNK         0.0970 
    116 H116       19.9733  -29.5675  -40.7044 H         1 UNK         0.0612 
    117 H117       21.5047  -29.0197  -41.3373 H         1 UNK         0.0612 
@<TRIPOS>BOND
     1    1    2 1    
     2    1   62 1    
     3    1   63 1    
     4    1   64 1    
     5    2    3 2    
     6    2    4 am   BACKBONE|DICT|INTERRES
     7    4    5 1    
     8    4   65 1    
     9    5    6 1    
    10    5   25 1    
    11    5   66 1    
    12    6    7 1    
    13    6   67 1    
    14    6   68 1    
    15    7    8 1    
    16    8    9 1    
    17    8   69 1    
    18    8   70 1    
    19    9   10 ar   
    20    9   14 ar   
    21   10   11 ar   
    22   10   71 1    
    23   11   12 ar   
    24   11   61 1    
    25   12   13 ar   
    26   12   72 1    
    27   13   14 ar   
    28   13   15 1    
    29   14   73 1    
    30   15   16 1    
    31   15   74 1    
    32   15   75 1    
    33   16   17 1    
    34   17   18 1    
    35   17   76 1    
    36   17   77 1    
    37   18   19 1    
    38   18   27 1    
    39   18   78 1    
    40   19   20 am   BACKBONE|DICT|INTERRES
    41   19   79 1    
    42   20   21 2    
    43   20   22 1    
    44   22   23 1    
    45   22   24 1    
    46   22   80 1    
    47   23   81 1    
    48   23   82 1    
    49   23   83 1    
    50   24   25 am   BACKBONE|DICT|INTERRES
    51   24   84 1    
    52   25   26 2    
    53   27   28 2    
    54   27   29 am   BACKBONE|DICT|INTERRES
    55   29   30 1    
    56   29   85 1    
    57   30   31 1    
    58   30   32 1    
    59   30   86 1    
    60   31   87 1    
    61   31   88 1    
    62   31   89 1    
    63   32   33 2    
    64   32   34 am   BACKBONE|DICT|INTERRES
    65   34   35 1    
    66   34   90 1    
    67   35   36 1    
    68   35   37 1    
    69   35   91 1    
    70   36   92 1    
    71   36   93 1    
    72   36   94 1    
    73   37   38 2    
    74   37   39 am   BACKBONE|DICT|INTERRES
    75   39   40 1    
    76   39   95 1    
    77   40   41 1    
    78   40   42 1    
    79   40   96 1    
    80   41   97 1    
    81   41   98 1    
    82   41   99 1    
    83   42   43 2    
    84   42   44 am   BACKBONE|DICT|INTERRES
    85   44   45 1    
    86   44  100 1    
    87   45   46 1    
    88   45   47 1    
    89   45  101 1    
    90   46  102 1    
    91   46  103 1    
    92   46  104 1    
    93   47   48 2    
    94   47   49 am   BACKBONE|DICT|INTERRES
    95   49   50 1    
    96   49  105 1    
    97   50   51 1    
    98   50   52 1    
    99   50  106 1    
   100   51  107 1    
   101   51  108 1    
   102   51  109 1    
   103   52   53 2    
   104   52   54 am   BACKBONE|DICT|INTERRES
   105   54   55 1    
   106   54  110 1    
   107   55   56 1    
   108   55   59 1    
   109   55  111 1    
   110   56   57 am   BACKBONE|DICT|INTERRES
   111   56   58 2    
   112   57  112 1    
   113   57  113 1    
   114   59   60 1    
   115   59  114 1    
   116   59  115 1    
   117   60   61 1    
   118   61  116 1    
   119   61  117 1    
@<TRIPOS>SUBSTRUCTURE
     1 UNK         1 GROUP             0       ****    0 ROOT    
