@<TRIPOS>MOLECULE
3R8
117   119    1
SMALL
USER_CHARGES


@<TRIPOS>ATOM
      1 CA         21.0205  -25.0722  -49.8114 C.3       0 UNK        -0.2013 
      2 C          21.3465  -25.3954  -48.3608 C.2       0 UNK         0.4866 
      3 O          22.3184  -24.8667  -47.8201 O.2       0 UNK        -0.5176 
      4 N          20.5475  -26.2658  -47.7318 N.am      1 UNK        -0.4884 
      5 CA         20.6809  -26.6619  -46.3267 C.3       1 UNK         0.0853 
      6 C6         19.7504  -27.8492  -45.9781 C.3       10 UNK        -0.0849 
      7 S7         20.2288  -29.4190  -46.7659 S.3       10 UNK        -0.2776 
      8 C8         18.6300  -30.2987  -46.7691 C.3       10 UNK         0.0316 
      9 C9         18.0548  -30.4586  -45.3660 C.ar      10 UNK        -0.0863 
     10 C10        18.5022  -31.4878  -44.5327 C.ar      10 UNK        -0.1009 
     11 C11        17.9841  -31.6316  -43.2415 C.ar      10 UNK        -0.0712 
     12 C12        17.0056  -30.7426  -42.7872 C.ar      10 UNK        -0.0894 
     13 C13        16.5454  -29.7137  -43.6129 C.ar      10 UNK        -0.0745 
     14 C14        17.0688  -29.5810  -44.9025 C.ar      10 UNK        -0.0972 
     15 C15        15.4677  -28.7571  -43.1251 C.3       10 UNK         0.0209 
     16 S16        16.1509  -27.1299  -42.6788 S.3       10 UNK        -0.2568 
     17 C17        16.9991  -27.4804  -41.0991 C.3       10 UNK        -0.0983 
     18 CA         18.5416  -27.5211  -41.2393 C.3       3 UNK         0.0876 
     19 N          19.0639  -26.3046  -41.8766 N.am      3 UNK        -0.4424 
     20 C          20.3494  -25.9845  -42.0657 C.2       2 UNK         0.4918 
     21 O          21.3021  -26.6269  -41.6201 O.2       2 UNK        -0.4875 
     22 CA         20.6270  -24.8131  -43.0119 C.3       2 UNK         0.0481 
     23 CB         21.7220  -23.8801  -42.4703 C.3       2 UNK        -0.1831 
     24 N          21.0722  -25.4391  -44.2520 N.am      2 UNK        -0.4498 
     25 C          20.3450  -25.4999  -45.3716 C.2       1 UNK         0.5027 
     26 O          19.3799  -24.7691  -45.6113 O.2       1 UNK        -0.4969 
     27 C          19.2120  -27.8199  -39.8800 C.2       3 UNK         0.5005 
     28 O          19.0167  -27.0653  -38.9250 O.2       3 UNK        -0.5279 
     29 N          20.0155  -28.8937  -39.8477 N.am      4 UNK        -0.4463 
     30 CA         20.8210  -29.3953  -38.7251 C.3       4 UNK         0.0283 
     31 CB         19.9167  -29.8488  -37.5604 C.3       4 UNK        -0.1875 
     32 C          21.9606  -28.4626  -38.2560 C.2       4 UNK         0.4949 
     33 O          22.5428  -28.7208  -37.2016 O.2       4 UNK        -0.5039 
     34 N          22.2861  -27.4239  -39.0367 N.am      5 UNK        -0.4663 
     35 CA         23.3836  -26.4850  -38.7805 C.3       5 UNK         0.0242 
     36 CB         22.8262  -25.0530  -38.7259 C.3       5 UNK        -0.1982 
     37 C          24.4730  -26.6039  -39.8566 C.2       5 UNK         0.5017 
     38 O          25.6578  -26.6151  -39.5219 O.2       5 UNK        -0.5012 
     39 N          24.0533  -26.7167  -41.1207 N.am      6 UNK        -0.4439 
     40 CA         24.8860  -26.9637  -42.2912 C.3       6 UNK         0.0297 
     41 CB         25.4264  -25.6412  -42.8688 C.3       6 UNK        -0.2006 
     42 C          24.0008  -27.7358  -43.2713 C.2       6 UNK         0.4892 
     43 O          23.3797  -27.1396  -44.1529 O.2       6 UNK        -0.5089 
     44 N          23.8842  -29.0409  -43.0228 N.am      7 UNK        -0.4243 
     45 CA         22.9934  -29.9732  -43.7010 C.3       7 UNK         0.0196 
     46 CB         21.5652  -29.7987  -43.1529 C.3       7 UNK        -0.2007 
     47 C          23.5021  -31.3929  -43.4304 C.2       7 UNK         0.5020 
     48 O          24.3533  -31.5798  -42.5563 O.2       7 UNK        -0.5147 
     49 N          22.9365  -32.3805  -44.1367 N.am      8 UNK        -0.4734 
     50 CA         23.2394  -33.8104  -43.9648 C.3       8 UNK         0.0238 
     51 CB         22.4776  -34.6192  -45.0274 C.3       8 UNK        -0.1912 
     52 C          22.9309  -34.3529  -42.5543 C.2       8 UNK         0.5038 
     53 O          23.5961  -35.2855  -42.1027 O.2       8 UNK        -0.5046 
     54 N          21.9446  -33.7414  -41.8901 N.am      9 UNK        -0.4200 
     55 CA         21.5807  -33.9544  -40.4830 C.3       9 UNK         0.0839 
     56 C          22.4712  -33.1870  -39.4601 C.2       9 UNK         0.5513 
     57 N          23.4391  -32.3776  -39.8745 N.am      9 UNK        -0.7519 
     58 O          22.2889  -33.3435  -38.2557 O.2       9 UNK        -0.4960 
     59 C59        20.0650  -33.7040  -40.2504 C.3       10 UNK        -0.0876 
     60 S60        19.4641  -32.1292  -40.9594 S.3       10 UNK        -0.2414 
     61 C61        18.4643  -32.7580  -42.3420 C.3       10 UNK         0.0169 
     62 H62        20.1464  -25.6187  -50.1652 H         1 UNK         0.0903 
     63 H63        20.8216  -24.0065  -49.9224 H         1 UNK         0.0903 
     64 H64        21.8634  -25.3303  -50.4520 H         1 UNK         0.0903 
     65 H65        19.7613  -26.6654  -48.2237 H         1 UNK         0.3096 
     66 H66        21.7178  -26.9625  -46.1613 H         1 UNK         0.1121 
     67 H67        18.7236  -27.6059  -46.2576 H         1 UNK         0.0849 
     68 H68        19.7295  -28.0315  -44.9020 H         1 UNK         0.0849 
     69 H69        17.9269  -29.7669  -47.4122 H         1 UNK         0.0865 
     70 H70        18.7680  -31.2814  -47.2226 H         1 UNK         0.0865 
     71 H71        19.2589  -32.1725  -44.8905 H         1 UNK         0.1346 
     72 H72        16.6031  -30.8568  -41.7899 H         1 UNK         0.1412 
     73 H73        16.7091  -28.7862  -45.5416 H         1 UNK         0.1426 
     74 H74        14.9267  -29.1754  -42.2748 H         1 UNK         0.0716 
     75 H75        14.7277  -28.6197  -43.9149 H         1 UNK         0.0716 
     76 H76        16.6275  -28.4215  -40.6896 H         1 UNK         0.0695 
     77 H77        16.7023  -26.7055  -40.3895 H         1 UNK         0.0695 
     78 H78        18.7803  -28.3412  -41.9205 H         1 UNK         0.0983 
     79 H79        18.3582  -25.7205  -42.3016 H         1 UNK         0.3095 
     80 H80        19.7142  -24.2318  -43.1585 H         1 UNK         0.0454 
     81 H81        22.6368  -24.4166  -42.2240 H         1 UNK         0.0851 
     82 H82        21.3863  -23.3769  -41.5631 H         1 UNK         0.0851 
     83 H83        21.9750  -23.1068  -43.1955 H         1 UNK         0.0851 
     84 H84        21.8585  -26.0818  -44.1527 H         1 UNK         0.2976 
     85 H85        20.0990  -29.4391  -40.6940 H         1 UNK         0.3116 
     86 H86        21.3214  -30.2864  -39.1062 H         1 UNK         0.0646 
     87 H87        19.4228  -29.0049  -37.0782 H         1 UNK         0.0847 
     88 H88        20.4943  -30.3681  -36.7948 H         1 UNK         0.0847 
     89 H89        19.1470  -30.5401  -37.9036 H         1 UNK         0.0847 
     90 H90        21.7594  -27.2810  -39.8933 H         1 UNK         0.3040 
     91 H91        23.8554  -26.6989  -37.8188 H         1 UNK         0.1015 
     92 H92        22.3217  -24.7775  -39.6517 H         1 UNK         0.0786 
     93 H93        23.6238  -24.3280  -38.5577 H         1 UNK         0.0786 
     94 H94        22.1093  -24.9420  -37.9121 H         1 UNK         0.0786 
     95 H95        23.0506  -26.7088  -41.3068 H         1 UNK         0.3172 
     96 H96        25.7318  -27.5976  -42.0156 H         1 UNK         0.0595 
     97 H97        24.6281  -24.9782  -43.2004 H         1 UNK         0.0839 
     98 H98        26.0647  -25.8320  -43.7321 H         1 UNK         0.0839 
     99 H99        26.0256  -25.1027  -42.1346 H         1 UNK         0.0839 
    100 H100       24.4510  -29.4735  -42.3028 H         1 UNK         0.2998 
    101 H101       23.0139  -29.7837  -44.7765 H         1 UNK         0.0822 
    102 H102       21.2101  -28.7780  -43.2821 H         1 UNK         0.0787 
    103 H103       20.8631  -30.4497  -43.6700 H         1 UNK         0.0787 
    104 H104       21.5172  -30.0362  -42.0903 H         1 UNK         0.0787 
    105 H105       22.2506  -32.1433  -44.8397 H         1 UNK         0.3055 
    106 H106       24.3108  -33.9440  -44.1310 H         1 UNK         0.1106 
    107 H107       22.7003  -35.6838  -44.9411 H         1 UNK         0.0828 
    108 H108       21.3976  -34.5038  -44.9270 H         1 UNK         0.0828 
    109 H109       22.7570  -34.3140  -46.0359 H         1 UNK         0.0828 
    110 H110       21.4688  -32.9761  -42.3430 H         1 UNK         0.2931 
    111 H111       21.7548  -35.0090  -40.2614 H         1 UNK         0.0412 
    112 H112       24.0058  -31.9093  -39.1861 H         1 UNK         0.3472 
    113 H113       23.6438  -32.2499  -40.8595 H         1 UNK         0.3472 
    114 H114       19.4988  -34.5297  -40.6837 H         1 UNK         0.0970 
    115 H115       19.8182  -33.7243  -39.1872 H         1 UNK         0.0970 
    116 H116       19.0512  -33.4785  -42.9142 H         1 UNK         0.0612 
    117 H117       17.6039  -33.3005  -41.9475 H         1 UNK         0.0612 
@<TRIPOS>BOND
     1    1    2 1    
     2    1   62 1    
     3    1   63 1    
     4    1   64 1    
     5    2    3 2    
     6    2    4 am   BACKBONE|DICT|INTERRES
     7    4    5 1    
     8    4   65 1    
     9    5    6 1    
    10    5   25 1    
    11    5   66 1    
    12    6    7 1    
    13    6   67 1    
    14    6   68 1    
    15    7    8 1    
    16    8    9 1    
    17    8   69 1    
    18    8   70 1    
    19    9   10 ar   
    20    9   14 ar   
    21   10   11 ar   
    22   10   71 1    
    23   11   12 ar   
    24   11   61 1    
    25   12   13 ar   
    26   12   72 1    
    27   13   14 ar   
    28   13   15 1    
    29   14   73 1    
    30   15   16 1    
    31   15   74 1    
    32   15   75 1    
    33   16   17 1    
    34   17   18 1    
    35   17   76 1    
    36   17   77 1    
    37   18   19 1    
    38   18   27 1    
    39   18   78 1    
    40   19   20 am   BACKBONE|DICT|INTERRES
    41   19   79 1    
    42   20   21 2    
    43   20   22 1    
    44   22   23 1    
    45   22   24 1    
    46   22   80 1    
    47   23   81 1    
    48   23   82 1    
    49   23   83 1    
    50   24   25 am   BACKBONE|DICT|INTERRES
    51   24   84 1    
    52   25   26 2    
    53   27   28 2    
    54   27   29 am   BACKBONE|DICT|INTERRES
    55   29   30 1    
    56   29   85 1    
    57   30   31 1    
    58   30   32 1    
    59   30   86 1    
    60   31   87 1    
    61   31   88 1    
    62   31   89 1    
    63   32   33 2    
    64   32   34 am   BACKBONE|DICT|INTERRES
    65   34   35 1    
    66   34   90 1    
    67   35   36 1    
    68   35   37 1    
    69   35   91 1    
    70   36   92 1    
    71   36   93 1    
    72   36   94 1    
    73   37   38 2    
    74   37   39 am   BACKBONE|DICT|INTERRES
    75   39   40 1    
    76   39   95 1    
    77   40   41 1    
    78   40   42 1    
    79   40   96 1    
    80   41   97 1    
    81   41   98 1    
    82   41   99 1    
    83   42   43 2    
    84   42   44 am   BACKBONE|DICT|INTERRES
    85   44   45 1    
    86   44  100 1    
    87   45   46 1    
    88   45   47 1    
    89   45  101 1    
    90   46  102 1    
    91   46  103 1    
    92   46  104 1    
    93   47   48 2    
    94   47   49 am   BACKBONE|DICT|INTERRES
    95   49   50 1    
    96   49  105 1    
    97   50   51 1    
    98   50   52 1    
    99   50  106 1    
   100   51  107 1    
   101   51  108 1    
   102   51  109 1    
   103   52   53 2    
   104   52   54 am   BACKBONE|DICT|INTERRES
   105   54   55 1    
   106   54  110 1    
   107   55   56 1    
   108   55   59 1    
   109   55  111 1    
   110   56   57 am   BACKBONE|DICT|INTERRES
   111   56   58 2    
   112   57  112 1    
   113   57  113 1    
   114   59   60 1    
   115   59  114 1    
   116   59  115 1    
   117   60   61 1    
   118   61  116 1    
   119   61  117 1    
@<TRIPOS>SUBSTRUCTURE
     1 UNK         1 GROUP             0       ****    0 ROOT    
