@<TRIPOS>MOLECULE
3R8
117   119    1
SMALL
USER_CHARGES


@<TRIPOS>ATOM
      1 CA         18.4649  -22.7981  -45.2937 C.3       0 UNK        -0.2013 
      2 C          17.2561  -23.2993  -44.5071 C.2       0 UNK         0.4866 
      3 O          16.5849  -22.4979  -43.8594 O.2       0 UNK        -0.5176 
      4 N          16.9222  -24.5970  -44.5402 N.am      1 UNK        -0.4884 
      5 CA         17.6444  -25.6985  -45.1914 C.3       1 UNK         0.0853 
      6 C6         16.6979  -26.8870  -45.5135 C.3       10 UNK        -0.0849 
      7 S7         15.7241  -27.4883  -44.0919 S.3       10 UNK        -0.2776 
      8 C8         15.5793  -29.2634  -44.4766 C.3       10 UNK         0.0316 
      9 C9         16.7450  -30.0596  -43.9098 C.ar      10 UNK        -0.0863 
     10 C10        17.6861  -30.6669  -44.7509 C.ar      10 UNK        -0.1009 
     11 C11        18.7328  -31.4218  -44.2082 C.ar      10 UNK        -0.0712 
     12 C12        18.8330  -31.5578  -42.8224 C.ar      10 UNK        -0.0894 
     13 C13        17.9001  -30.9590  -41.9750 C.ar      10 UNK        -0.0745 
     14 C14        16.8571  -30.2124  -42.5248 C.ar      10 UNK        -0.0972 
     15 C15        18.0074  -31.1406  -40.4693 C.3       10 UNK         0.0209 
     16 S16        19.5522  -30.4541  -39.7996 S.3       10 UNK        -0.2568 
     17 C17        19.3299  -28.6641  -40.0629 C.3       10 UNK        -0.0983 
     18 CA         20.5474  -28.0529  -40.8054 C.3       3 UNK         0.0876 
     19 N          20.3783  -28.0265  -42.2664 N.am      3 UNK        -0.4424 
     20 C          21.3614  -27.7079  -43.1220 C.2       2 UNK         0.4918 
     21 O          22.5214  -27.5000  -42.7602 O.2       2 UNK        -0.4875 
     22 CA         21.0139  -27.4997  -44.6108 C.3       2 UNK         0.0481 
     23 CB         21.3722  -28.7402  -45.4366 C.3       2 UNK        -0.1831 
     24 N          19.6404  -27.1037  -44.9496 N.am      2 UNK        -0.4498 
     25 C          18.9180  -26.1097  -44.4142 C.2       1 UNK         0.5027 
     26 O          19.2456  -25.5036  -43.3925 O.2       1 UNK        -0.4969 
     27 C          20.9306  -26.6762  -40.2126 C.2       3 UNK         0.5005 
     28 O          21.5895  -26.6456  -39.1727 O.2       3 UNK        -0.5279 
     29 N          20.5994  -25.5673  -40.8949 N.am      4 UNK        -0.4463 
     30 CA         21.0608  -24.2147  -40.5551 C.3       4 UNK         0.0283 
     31 CB         20.3181  -23.1855  -41.4224 C.3       4 UNK        -0.1875 
     32 C          22.5859  -24.0338  -40.6997 C.2       4 UNK         0.4949 
     33 O          23.1545  -23.1720  -40.0301 O.2       4 UNK        -0.5039 
     34 N          23.2199  -24.8603  -41.5432 N.am      5 UNK        -0.4663 
     35 CA         24.6714  -24.9527  -41.7187 C.3       5 UNK         0.0242 
     36 CB         24.9753  -25.0320  -43.2260 C.3       5 UNK        -0.1982 
     37 C          25.2648  -26.1640  -40.9699 C.2       5 UNK         0.5017 
     38 O          26.4408  -26.4698  -41.1693 O.2       5 UNK        -0.5012 
     39 N          24.4495  -26.8399  -40.1428 N.am      6 UNK        -0.4439 
     40 CA         24.7466  -28.0531  -39.3703 C.3       6 UNK         0.0297 
     41 CB         25.8451  -27.7863  -38.3191 C.3       6 UNK        -0.2006 
     42 C          25.0375  -29.3030  -40.2280 C.2       6 UNK         0.4892 
     43 O          25.6284  -30.2572  -39.7187 O.2       6 UNK        -0.5089 
     44 N          24.6044  -29.3031  -41.4959 N.am      7 UNK        -0.4243 
     45 CA         24.7078  -30.4416  -42.4044 C.3       7 UNK         0.0196 
     46 CB         24.9646  -29.9287  -43.8308 C.3       7 UNK        -0.2007 
     47 C          23.4180  -31.2647  -42.2959 C.2       7 UNK         0.5020 
     48 O          22.3978  -30.8831  -42.8660 O.2       7 UNK        -0.5147 
     49 N          23.4772  -32.3569  -41.5249 N.am      8 UNK        -0.4734 
     50 CA         22.3222  -33.1837  -41.1568 C.3       8 UNK         0.0238 
     51 CB         22.6977  -34.0382  -39.9341 C.3       8 UNK        -0.1912 
     52 C          21.7580  -34.0726  -42.2828 C.2       8 UNK         0.5038 
     53 O          20.6599  -34.5992  -42.1063 O.2       8 UNK        -0.5046 
     54 N          22.5136  -34.2436  -43.3793 N.am      9 UNK        -0.4200 
     55 CA         22.2111  -35.0598  -44.5754 C.3       9 UNK         0.0839 
     56 C          21.8172  -36.5510  -44.3315 C.2       9 UNK         0.5513 
     57 N          22.1801  -37.1490  -43.2031 N.am      9 UNK        -0.7519 
     58 O          21.2208  -37.1945  -45.1917 O.2       9 UNK        -0.4960 
     59 C59        21.3442  -34.3269  -45.6471 C.3       10 UNK        -0.0876 
     60 S60        19.6434  -33.8780  -45.1456 S.3       10 UNK        -0.2414 
     61 C61        19.7876  -32.0660  -45.0957 C.3       10 UNK         0.0169 
     62 H62        18.5572  -21.7162  -45.1991 H         1 UNK         0.0903 
     63 H63        19.3881  -23.2389  -44.9203 H         1 UNK         0.0903 
     64 H64        18.3652  -23.0265  -46.3542 H         1 UNK         0.0903 
     65 H65        16.1306  -24.8995  -43.9897 H         1 UNK         0.3096 
     66 H66        18.0051  -25.3309  -46.1538 H         1 UNK         0.1121 
     67 H67        15.9834  -26.5707  -46.2754 H         1 UNK         0.0849 
     68 H68        17.2410  -27.7175  -45.9668 H         1 UNK         0.0849 
     69 H69        14.6524  -29.6395  -44.0409 H         1 UNK         0.0865 
     70 H70        15.4844  -29.4091  -45.5539 H         1 UNK         0.0865 
     71 H71        17.6033  -30.5565  -45.8234 H         1 UNK         0.1346 
     72 H72        19.6452  -32.1304  -42.4009 H         1 UNK         0.1412 
     73 H73        16.1257  -29.7488  -41.8764 H         1 UNK         0.1426 
     74 H74        17.9692  -32.2064  -40.2398 H         1 UNK         0.0716 
     75 H75        17.1606  -30.6841  -39.9546 H         1 UNK         0.0716 
     76 H76        18.4003  -28.4590  -40.5961 H         1 UNK         0.0695 
     77 H77        19.1980  -28.2311  -39.0689 H         1 UNK         0.0695 
     78 H78        21.4190  -28.6840  -40.6139 H         1 UNK         0.0983 
     79 H79        19.4501  -28.1915  -42.6270 H         1 UNK         0.3095 
     80 H80        21.6549  -26.6848  -44.9524 H         1 UNK         0.0454 
     81 H81        22.3642  -29.1165  -45.1957 H         1 UNK         0.0851 
     82 H82        20.6679  -29.5439  -45.2444 H         1 UNK         0.0851 
     83 H83        21.3596  -28.5285  -46.5056 H         1 UNK         0.0851 
     84 H84        19.2664  -27.5538  -45.7719 H         1 UNK         0.2976 
     85 H85        20.0646  -25.6565  -41.7585 H         1 UNK         0.3116 
     86 H86        20.8044  -24.0287  -39.5101 H         1 UNK         0.0646 
     87 H87        20.5848  -22.1678  -41.1345 H         1 UNK         0.0847 
     88 H88        19.2371  -23.2799  -41.3172 H         1 UNK         0.0847 
     89 H89        20.5619  -23.2984  -42.4794 H         1 UNK         0.0847 
     90 H90        22.6791  -25.5627  -42.0358 H         1 UNK         0.3040 
     91 H91        25.1573  -24.0601  -41.3185 H         1 UNK         0.1015 
     92 H92        24.5688  -25.9398  -43.6735 H         1 UNK         0.0786 
     93 H93        26.0502  -25.0311  -43.4112 H         1 UNK         0.0786 
     94 H94        24.5569  -24.1786  -43.7599 H         1 UNK         0.0786 
     95 H95        23.5035  -26.4924  -40.0310 H         1 UNK         0.3172 
     96 H96        23.8299  -28.2831  -38.8258 H         1 UNK         0.0595 
     97 H97        25.9480  -28.6307  -37.6366 H         1 UNK         0.0839 
     98 H98        26.8192  -27.6251  -38.7817 H         1 UNK         0.0839 
     99 H99        25.6112  -26.9110  -37.7132 H         1 UNK         0.0839 
    100 H100       24.0593  -28.5159  -41.8322 H         1 UNK         0.2998 
    101 H101       25.5535  -31.0759  -42.1293 H         1 UNK         0.0822 
    102 H102       24.8554  -30.7266  -44.5664 H         1 UNK         0.0787 
    103 H103       24.2793  -29.1279  -44.1016 H         1 UNK         0.0787 
    104 H104       25.9764  -29.5341  -43.9250 H         1 UNK         0.0787 
    105 H105       24.3538  -32.5800  -41.0735 H         1 UNK         0.3055 
    106 H106       21.5151  -32.5105  -40.8600 H         1 UNK         0.1106 
    107 H107       21.8502  -34.6386  -39.5998 H         1 UNK         0.0828 
    108 H108       23.5159  -34.7243  -40.1556 H         1 UNK         0.0828 
    109 H109       22.9986  -33.4148  -39.0918 H         1 UNK         0.0828 
    110 H110       23.4075  -33.7761  -43.3924 H         1 UNK         0.2931 
    111 H111       23.1902  -35.1633  -45.0449 H         1 UNK         0.0412 
    112 H112       21.9368  -38.1162  -43.0566 H         1 UNK         0.3472 
    113 H113       22.6717  -36.6375  -42.4885 H         1 UNK         0.3472 
    114 H114       21.2708  -34.9368  -46.5492 H         1 UNK         0.0970 
    115 H115       21.8714  -33.4286  -45.9707 H         1 UNK         0.0970 
    116 H116       20.7712  -31.8014  -44.7074 H         1 UNK         0.0612 
    117 H117       19.7360  -31.6758  -46.1131 H         1 UNK         0.0612 
@<TRIPOS>BOND
     1    1    2 1    
     2    1   62 1    
     3    1   63 1    
     4    1   64 1    
     5    2    3 2    
     6    2    4 am   BACKBONE|DICT|INTERRES
     7    4    5 1    
     8    4   65 1    
     9    5    6 1    
    10    5   25 1    
    11    5   66 1    
    12    6    7 1    
    13    6   67 1    
    14    6   68 1    
    15    7    8 1    
    16    8    9 1    
    17    8   69 1    
    18    8   70 1    
    19    9   10 ar   
    20    9   14 ar   
    21   10   11 ar   
    22   10   71 1    
    23   11   12 ar   
    24   11   61 1    
    25   12   13 ar   
    26   12   72 1    
    27   13   14 ar   
    28   13   15 1    
    29   14   73 1    
    30   15   16 1    
    31   15   74 1    
    32   15   75 1    
    33   16   17 1    
    34   17   18 1    
    35   17   76 1    
    36   17   77 1    
    37   18   19 1    
    38   18   27 1    
    39   18   78 1    
    40   19   20 am   BACKBONE|DICT|INTERRES
    41   19   79 1    
    42   20   21 2    
    43   20   22 1    
    44   22   23 1    
    45   22   24 1    
    46   22   80 1    
    47   23   81 1    
    48   23   82 1    
    49   23   83 1    
    50   24   25 am   BACKBONE|DICT|INTERRES
    51   24   84 1    
    52   25   26 2    
    53   27   28 2    
    54   27   29 am   BACKBONE|DICT|INTERRES
    55   29   30 1    
    56   29   85 1    
    57   30   31 1    
    58   30   32 1    
    59   30   86 1    
    60   31   87 1    
    61   31   88 1    
    62   31   89 1    
    63   32   33 2    
    64   32   34 am   BACKBONE|DICT|INTERRES
    65   34   35 1    
    66   34   90 1    
    67   35   36 1    
    68   35   37 1    
    69   35   91 1    
    70   36   92 1    
    71   36   93 1    
    72   36   94 1    
    73   37   38 2    
    74   37   39 am   BACKBONE|DICT|INTERRES
    75   39   40 1    
    76   39   95 1    
    77   40   41 1    
    78   40   42 1    
    79   40   96 1    
    80   41   97 1    
    81   41   98 1    
    82   41   99 1    
    83   42   43 2    
    84   42   44 am   BACKBONE|DICT|INTERRES
    85   44   45 1    
    86   44  100 1    
    87   45   46 1    
    88   45   47 1    
    89   45  101 1    
    90   46  102 1    
    91   46  103 1    
    92   46  104 1    
    93   47   48 2    
    94   47   49 am   BACKBONE|DICT|INTERRES
    95   49   50 1    
    96   49  105 1    
    97   50   51 1    
    98   50   52 1    
    99   50  106 1    
   100   51  107 1    
   101   51  108 1    
   102   51  109 1    
   103   52   53 2    
   104   52   54 am   BACKBONE|DICT|INTERRES
   105   54   55 1    
   106   54  110 1    
   107   55   56 1    
   108   55   59 1    
   109   55  111 1    
   110   56   57 am   BACKBONE|DICT|INTERRES
   111   56   58 2    
   112   57  112 1    
   113   57  113 1    
   114   59   60 1    
   115   59  114 1    
   116   59  115 1    
   117   60   61 1    
   118   61  116 1    
   119   61  117 1    
@<TRIPOS>SUBSTRUCTURE
     1 UNK         1 GROUP             0       ****    0 ROOT    
