@<TRIPOS>MOLECULE
3R8
117   119    1
SMALL
USER_CHARGES


@<TRIPOS>ATOM
      1 CA         15.5020  -25.3431  -41.6824 C.3       0 UNK        -0.2013 
      2 C          16.0469  -25.0006  -43.0606 C.2       0 UNK         0.4866 
      3 O          16.3544  -23.8373  -43.3195 O.2       0 UNK        -0.5176 
      4 N          16.1534  -25.9992  -43.9498 N.am      1 UNK        -0.4884 
      5 CA         16.6311  -25.8444  -45.3322 C.3       1 UNK         0.0853 
      6 C6         16.1733  -27.0325  -46.2434 C.3       10 UNK        -0.0849 
      7 S7         17.4133  -27.8916  -47.2874 S.3       10 UNK        -0.2776 
      8 C8         17.2669  -29.6200  -46.7317 C.3       10 UNK         0.0316 
      9 C9         18.1196  -29.9146  -45.5047 C.ar      10 UNK        -0.0863 
     10 C10        19.4196  -30.4043  -45.6618 C.ar      10 UNK        -0.1009 
     11 C11        20.1818  -30.7697  -44.5482 C.ar      10 UNK        -0.0712 
     12 C12        19.6537  -30.5969  -43.2655 C.ar      10 UNK        -0.0894 
     13 C13        18.3575  -30.1044  -43.0934 C.ar      10 UNK        -0.0745 
     14 C14        17.5933  -29.7694  -44.2173 C.ar      10 UNK        -0.0972 
     15 C15        17.7541  -29.9962  -41.7005 C.3       10 UNK         0.0209 
     16 S16        17.4528  -28.2664  -41.2333 S.3       10 UNK        -0.2568 
     17 C17        18.9030  -27.8618  -40.1981 C.3       10 UNK        -0.0983 
     18 CA         20.2212  -27.5968  -40.9738 C.3       3 UNK         0.0876 
     19 N          19.9897  -26.8541  -42.2186 N.am      3 UNK        -0.4424 
     20 C          20.9052  -26.5621  -43.1528 C.2       2 UNK         0.4918 
     21 O          22.1179  -26.6573  -42.9714 O.2       2 UNK        -0.4875 
     22 CA         20.3929  -26.0891  -44.5217 C.3       2 UNK         0.0481 
     23 CB         21.1191  -26.8109  -45.6727 C.3       2 UNK        -0.1831 
     24 N          18.9468  -26.2782  -44.6574 N.am      2 UNK        -0.4498 
     25 C          18.1342  -25.4886  -45.3702 C.2       1 UNK         0.5027 
     26 O          18.5139  -24.5040  -46.0074 O.2       1 UNK        -0.4969 
     27 C          21.2624  -26.9559  -40.0311 C.2       3 UNK         0.5005 
     28 O          21.9433  -27.6740  -39.2989 O.2       3 UNK        -0.5279 
     29 N          21.3548  -25.6184  -40.0522 N.am      4 UNK        -0.4463 
     30 CA         22.3030  -24.8407  -39.2512 C.3       4 UNK         0.0283 
     31 CB         21.8075  -23.3890  -39.1497 C.3       4 UNK        -0.1875 
     32 C          23.7377  -24.8767  -39.8066 C.2       4 UNK         0.4949 
     33 O          24.6820  -24.7241  -39.0315 O.2       4 UNK        -0.5039 
     34 N          23.8785  -25.0558  -41.1266 N.am      5 UNK        -0.4663 
     35 CA         25.1655  -25.1221  -41.8208 C.3       5 UNK         0.0242 
     36 CB         25.0373  -24.4454  -43.1963 C.3       5 UNK        -0.1982 
     37 C          25.6320  -26.5753  -41.9727 C.2       5 UNK         0.5017 
     38 O          26.7914  -26.8765  -41.6880 O.2       5 UNK        -0.5012 
     39 N          24.7148  -27.4435  -42.4098 N.am      6 UNK        -0.4439 
     40 CA         24.9088  -28.8718  -42.6025 C.3       6 UNK         0.0297 
     41 CB         24.5120  -29.2346  -44.0448 C.3       6 UNK        -0.2006 
     42 C          24.0447  -29.5987  -41.5691 C.2       6 UNK         0.4892 
     43 O          22.8923  -29.9332  -41.8510 O.2       6 UNK        -0.5089 
     44 N          24.6161  -29.8293  -40.3810 N.am      7 UNK        -0.4243 
     45 CA         23.9999  -30.5795  -39.2823 C.3       7 UNK         0.0196 
     46 CB         24.6839  -30.1819  -37.9612 C.3       7 UNK        -0.2007 
     47 C          24.0506  -32.0972  -39.5508 C.2       7 UNK         0.5020 
     48 O          24.6896  -32.8434  -38.8069 O.2       7 UNK        -0.5147 
     49 N          23.4060  -32.5157  -40.6421 N.am      8 UNK        -0.4734 
     50 CA         23.3656  -33.8789  -41.1602 C.3       8 UNK         0.0238 
     51 CB         24.6347  -34.1540  -41.9980 C.3       8 UNK        -0.1912 
     52 C          22.0478  -34.0735  -41.9290 C.2       8 UNK         0.5038 
     53 O          21.0276  -33.5146  -41.5205 O.2       8 UNK        -0.5046 
     54 N          22.0881  -34.8577  -43.0150 N.am      9 UNK        -0.4200 
     55 CA         20.9508  -35.2043  -43.8882 C.3       9 UNK         0.0839 
     56 C          19.8883  -36.1364  -43.2272 C.2       9 UNK         0.5513 
     57 N          20.1921  -36.8077  -42.1225 N.am      9 UNK        -0.7519 
     58 O          18.7812  -36.2848  -43.7389 O.2       9 UNK        -0.4960 
     59 C59        20.3076  -33.9713  -44.5873 C.3       10 UNK        -0.0876 
     60 S60        21.4871  -33.0038  -45.5973 S.3       10 UNK        -0.2414 
     61 C61        21.5566  -31.4002  -44.7281 C.3       10 UNK         0.0169 
     62 H62        14.7147  -24.6429  -41.4043 H         1 UNK         0.0903 
     63 H63        15.0827  -26.3484  -41.6484 H         1 UNK         0.0903 
     64 H64        16.2949  -25.2775  -40.9378 H         1 UNK         0.0903 
     65 H65        15.8840  -26.9316  -43.6709 H         1 UNK         0.3096 
     66 H66        16.1285  -24.9556  -45.7229 H         1 UNK         0.1121 
     67 H67        15.4069  -26.6642  -46.9274 H         1 UNK         0.0849 
     68 H68        15.6506  -27.7824  -45.6493 H         1 UNK         0.0849 
     69 H69        16.2221  -29.8706  -46.5424 H         1 UNK         0.0865 
     70 H70        17.5770  -30.2691  -47.5522 H         1 UNK         0.0865 
     71 H71        19.8265  -30.5440  -46.6542 H         1 UNK         0.1346 
     72 H72        20.2408  -30.8846  -42.4032 H         1 UNK         0.1412 
     73 H73        16.5790  -29.4197  -44.0858 H         1 UNK         0.1426 
     74 H74        18.3859  -30.4829  -40.9558 H         1 UNK         0.0716 
     75 H75        16.8034  -30.5310  -41.6873 H         1 UNK         0.0716 
     76 H76        19.0488  -28.6585  -39.4662 H         1 UNK         0.0695 
     77 H77        18.6201  -26.9788  -39.6210 H         1 UNK         0.0695 
     78 H78        20.6316  -28.5633  -41.2729 H         1 UNK         0.0983 
     79 H79        19.0181  -26.6861  -42.4290 H         1 UNK         0.3095 
     80 H80        20.6244  -25.0237  -44.5778 H         1 UNK         0.0454 
     81 H81        20.9523  -27.8878  -45.6360 H         1 UNK         0.0851 
     82 H82        22.1962  -26.6453  -45.6273 H         1 UNK         0.0851 
     83 H83        20.7791  -26.4535  -46.6446 H         1 UNK         0.0851 
     84 H84        18.5570  -27.1083  -44.2328 H         1 UNK         0.2976 
     85 H85        20.7466  -25.1066  -40.6752 H         1 UNK         0.3116 
     86 H86        22.3294  -25.2598  -38.2427 H         1 UNK         0.0646 
     87 H87        21.7516  -22.9098  -40.1280 H         1 UNK         0.0847 
     88 H88        22.4796  -22.7905  -38.5330 H         1 UNK         0.0847 
     89 H89        20.8196  -23.3368  -38.6917 H         1 UNK         0.0847 
     90 H90        23.0530  -25.2458  -41.6810 H         1 UNK         0.3040 
     91 H91        25.9261  -24.5837  -41.2503 H         1 UNK         0.1015 
     92 H92        24.2829  -24.9267  -43.8202 H         1 UNK         0.0786 
     93 H93        25.9828  -24.4839  -43.7391 H         1 UNK         0.0786 
     94 H94        24.7654  -23.3946  -43.0948 H         1 UNK         0.0786 
     95 H95        23.7661  -27.1108  -42.5840 H         1 UNK         0.3172 
     96 H96        25.9522  -29.1565  -42.4518 H         1 UNK         0.0595 
     97 H97        23.4897  -28.9280  -44.2709 H         1 UNK         0.0839 
     98 H98        24.5783  -30.3107  -44.2096 H         1 UNK         0.0839 
     99 H99        25.1699  -28.7525  -44.7677 H         1 UNK         0.0839 
    100 H100       25.5669  -29.5208  -40.2365 H         1 UNK         0.2998 
    101 H101       22.9473  -30.2962  -39.2094 H         1 UNK         0.0822 
    102 H102       24.5802  -29.1132  -37.7708 H         1 UNK         0.0787 
    103 H103       24.2338  -30.7047  -37.1162 H         1 UNK         0.0787 
    104 H104       25.7478  -30.4221  -37.9663 H         1 UNK         0.0787 
    105 H105       22.8885  -31.8237  -41.1787 H         1 UNK         0.3055 
    106 H106       23.3409  -34.5749  -40.3187 H         1 UNK         0.1106 
    107 H107       24.6935  -35.1976  -42.3086 H         1 UNK         0.0828 
    108 H108       24.6689  -33.5326  -42.8942 H         1 UNK         0.0828 
    109 H109       25.5386  -33.9511  -41.4234 H         1 UNK         0.0828 
    110 H110       22.9707  -35.2740  -43.2726 H         1 UNK         0.2931 
    111 H111       21.3853  -35.8181  -44.6780 H         1 UNK         0.0412 
    112 H112       21.1005  -36.7130  -41.6980 H         1 UNK         0.3472 
    113 H113       19.5026  -37.4166  -41.7099 H         1 UNK         0.3472 
    114 H114       19.8171  -33.3360  -43.8507 H         1 UNK         0.0970 
    115 H115       19.5144  -34.2924  -45.2645 H         1 UNK         0.0970 
    116 H116       22.0475  -31.5483  -43.7661 H         1 UNK         0.0612 
    117 H117       22.1880  -30.7194  -45.2990 H         1 UNK         0.0612 
@<TRIPOS>BOND
     1    1    2 1    
     2    1   62 1    
     3    1   63 1    
     4    1   64 1    
     5    2    3 2    
     6    2    4 am   BACKBONE|DICT|INTERRES
     7    4    5 1    
     8    4   65 1    
     9    5    6 1    
    10    5   25 1    
    11    5   66 1    
    12    6    7 1    
    13    6   67 1    
    14    6   68 1    
    15    7    8 1    
    16    8    9 1    
    17    8   69 1    
    18    8   70 1    
    19    9   10 ar   
    20    9   14 ar   
    21   10   11 ar   
    22   10   71 1    
    23   11   12 ar   
    24   11   61 1    
    25   12   13 ar   
    26   12   72 1    
    27   13   14 ar   
    28   13   15 1    
    29   14   73 1    
    30   15   16 1    
    31   15   74 1    
    32   15   75 1    
    33   16   17 1    
    34   17   18 1    
    35   17   76 1    
    36   17   77 1    
    37   18   19 1    
    38   18   27 1    
    39   18   78 1    
    40   19   20 am   BACKBONE|DICT|INTERRES
    41   19   79 1    
    42   20   21 2    
    43   20   22 1    
    44   22   23 1    
    45   22   24 1    
    46   22   80 1    
    47   23   81 1    
    48   23   82 1    
    49   23   83 1    
    50   24   25 am   BACKBONE|DICT|INTERRES
    51   24   84 1    
    52   25   26 2    
    53   27   28 2    
    54   27   29 am   BACKBONE|DICT|INTERRES
    55   29   30 1    
    56   29   85 1    
    57   30   31 1    
    58   30   32 1    
    59   30   86 1    
    60   31   87 1    
    61   31   88 1    
    62   31   89 1    
    63   32   33 2    
    64   32   34 am   BACKBONE|DICT|INTERRES
    65   34   35 1    
    66   34   90 1    
    67   35   36 1    
    68   35   37 1    
    69   35   91 1    
    70   36   92 1    
    71   36   93 1    
    72   36   94 1    
    73   37   38 2    
    74   37   39 am   BACKBONE|DICT|INTERRES
    75   39   40 1    
    76   39   95 1    
    77   40   41 1    
    78   40   42 1    
    79   40   96 1    
    80   41   97 1    
    81   41   98 1    
    82   41   99 1    
    83   42   43 2    
    84   42   44 am   BACKBONE|DICT|INTERRES
    85   44   45 1    
    86   44  100 1    
    87   45   46 1    
    88   45   47 1    
    89   45  101 1    
    90   46  102 1    
    91   46  103 1    
    92   46  104 1    
    93   47   48 2    
    94   47   49 am   BACKBONE|DICT|INTERRES
    95   49   50 1    
    96   49  105 1    
    97   50   51 1    
    98   50   52 1    
    99   50  106 1    
   100   51  107 1    
   101   51  108 1    
   102   51  109 1    
   103   52   53 2    
   104   52   54 am   BACKBONE|DICT|INTERRES
   105   54   55 1    
   106   54  110 1    
   107   55   56 1    
   108   55   59 1    
   109   55  111 1    
   110   56   57 am   BACKBONE|DICT|INTERRES
   111   56   58 2    
   112   57  112 1    
   113   57  113 1    
   114   59   60 1    
   115   59  114 1    
   116   59  115 1    
   117   60   61 1    
   118   61  116 1    
   119   61  117 1    
@<TRIPOS>SUBSTRUCTURE
     1 UNK         1 GROUP             0       ****    0 ROOT    
