@<TRIPOS>MOLECULE
3R8
117   119    1
SMALL
USER_CHARGES


@<TRIPOS>ATOM
      1 CA         16.6641  -25.2509  -42.3126 C.3       0 UNK        -0.2013 
      2 C          17.5318  -26.0596  -43.2631 C.2       0 UNK         0.4866 
      3 O          18.2853  -26.9211  -42.8093 O.2       0 UNK        -0.5176 
      4 N          17.4397  -25.7833  -44.5720 N.am      1 UNK        -0.4884 
      5 CA         18.1459  -26.4264  -45.6959 C.3       1 UNK         0.0853 
      6 C6         17.8348  -27.9404  -45.8699 C.3       10 UNK        -0.0849 
      7 S7         16.0510  -28.3310  -45.9232 S.3       10 UNK        -0.2776 
      8 C8         16.0616  -30.1619  -45.8104 C.3       10 UNK         0.0316 
      9 C9         16.4469  -30.7767  -44.4578 C.ar      10 UNK        -0.0863 
     10 C10        16.4619  -32.1733  -44.3416 C.ar      10 UNK        -0.1009 
     11 C11        16.8219  -32.7931  -43.1391 C.ar      10 UNK        -0.0712 
     12 C12        17.1949  -32.0046  -42.0474 C.ar      10 UNK        -0.0894 
     13 C13        17.2045  -30.6130  -42.1494 C.ar      10 UNK        -0.0745 
     14 C14        16.7980  -30.0073  -43.3402 C.ar      10 UNK        -0.0972 
     15 C15        17.6938  -29.7616  -40.9902 C.3       10 UNK         0.0209 
     16 S16        19.5142  -29.7432  -40.9535 S.3       10 UNK        -0.2568 
     17 C17        19.8555  -28.2116  -40.0228 C.3       10 UNK        -0.0983 
     18 CA         21.1145  -27.4906  -40.5625 C.3       3 UNK         0.0876 
     19 N          20.9849  -27.1297  -41.9827 N.am      3 UNK        -0.4424 
     20 C          22.0153  -26.8261  -42.7902 C.2       2 UNK         0.4918 
     21 O          23.1741  -26.7465  -42.3797 O.2       2 UNK        -0.4875 
     22 CA         21.7388  -26.5394  -44.2795 C.3       2 UNK         0.0481 
     23 CB         22.6225  -27.4168  -45.1856 C.3       2 UNK        -0.1831 
     24 N          20.3268  -26.7038  -44.6228 N.am      2 UNK        -0.4498 
     25 C          19.6697  -26.1664  -45.6557 C.2       1 UNK         0.5027 
     26 O          20.2000  -25.4812  -46.5311 O.2       1 UNK        -0.4969 
     27 C          21.5135  -26.3010  -39.6622 C.2       3 UNK         0.5005 
     28 O          21.9372  -26.5162  -38.5261 O.2       3 UNK        -0.5279 
     29 N          21.4052  -25.0703  -40.1833 N.am      4 UNK        -0.4463 
     30 CA         21.9459  -23.8590  -39.5643 C.3       4 UNK         0.0283 
     31 CB         21.2880  -22.6281  -40.2089 C.3       4 UNK        -0.1875 
     32 C          23.4812  -23.7657  -39.6743 C.2       4 UNK         0.4949 
     33 O          24.0954  -23.0882  -38.8500 O.2       4 UNK        -0.5039 
     34 N          24.0689  -24.4228  -40.6853 N.am      5 UNK        -0.4663 
     35 CA         25.5076  -24.4233  -40.9572 C.3       5 UNK         0.0242 
     36 CB         25.7375  -24.2024  -42.4623 C.3       5 UNK        -0.1982 
     37 C          26.1739  -25.7289  -40.4999 C.2       5 UNK         0.5017 
     38 O          27.2461  -25.6755  -39.8962 O.2       5 UNK        -0.5012 
     39 N          25.5420  -26.8702  -40.7990 N.am      6 UNK        -0.4439 
     40 CA         26.0340  -28.2113  -40.4944 C.3       6 UNK         0.0297 
     41 CB         27.0177  -28.6733  -41.5926 C.3       6 UNK        -0.2006 
     42 C          24.8237  -29.1330  -40.2914 C.2       6 UNK         0.4892 
     43 O          24.1228  -28.9824  -39.2913 O.2       6 UNK        -0.5089 
     44 N          24.5848  -30.0513  -41.2325 N.am      7 UNK        -0.4243 
     45 CA         23.4166  -30.9219  -41.2983 C.3       7 UNK         0.0196 
     46 CB         23.6821  -32.2348  -40.5421 C.3       7 UNK        -0.2007 
     47 C          23.1303  -31.1792  -42.7785 C.2       7 UNK         0.5020 
     48 O          24.0715  -31.4005  -43.5437 O.2       7 UNK        -0.5147 
     49 N          21.8506  -31.1390  -43.1602 N.am      8 UNK        -0.4734 
     50 CA         21.4158  -31.2882  -44.5520 C.3       8 UNK         0.0238 
     51 CB         20.1162  -30.5019  -44.7377 C.3       8 UNK        -0.1912 
     52 C          21.2068  -32.7472  -44.9815 C.2       8 UNK         0.5038 
     53 O          21.2516  -33.0243  -46.1809 O.2       8 UNK        -0.5046 
     54 N          20.9678  -33.6391  -44.0146 N.am      9 UNK        -0.4200 
     55 CA         20.6675  -35.0615  -44.2322 C.3       9 UNK         0.0839 
     56 C          21.5149  -36.0204  -43.3472 C.2       9 UNK         0.5513 
     57 N          22.5546  -35.5474  -42.6689 N.am      9 UNK        -0.7519 
     58 O          21.2456  -37.2179  -43.2940 O.2       9 UNK        -0.4960 
     59 C59        19.1387  -35.3350  -44.1821 C.3       10 UNK        -0.0876 
     60 S60        18.3814  -35.0340  -42.5466 S.3       10 UNK        -0.2414 
     61 C61        16.7699  -34.3091  -42.9953 C.3       10 UNK         0.0169 
     62 H62        17.2898  -24.7134  -41.6008 H         1 UNK         0.0903 
     63 H63        16.0457  -24.5250  -42.8399 H         1 UNK         0.0903 
     64 H64        16.0063  -25.9158  -41.7536 H         1 UNK         0.0903 
     65 H65        16.8100  -25.0450  -44.8551 H         1 UNK         0.3096 
     66 H66        17.7784  -25.9239  -46.5926 H         1 UNK         0.1121 
     67 H67        18.2782  -28.5085  -45.0571 H         1 UNK         0.0849 
     68 H68        18.2915  -28.3174  -46.7870 H         1 UNK         0.0849 
     69 H69        15.0627  -30.5145  -46.0714 H         1 UNK         0.0865 
     70 H70        16.7316  -30.5512  -46.5785 H         1 UNK         0.0865 
     71 H71        16.1811  -32.7814  -45.1910 H         1 UNK         0.1346 
     72 H72        17.4947  -32.4761  -41.1214 H         1 UNK         0.1412 
     73 H73        16.7909  -28.9302  -43.3911 H         1 UNK         0.1426 
     74 H74        17.3143  -30.1523  -40.0452 H         1 UNK         0.0716 
     75 H75        17.3069  -28.7462  -41.0846 H         1 UNK         0.0716 
     76 H76        19.9830  -28.4840  -38.9734 H         1 UNK         0.0695 
     77 H77        18.9923  -27.5453  -40.0679 H         1 UNK         0.0695 
     78 H78        21.9425  -28.1950  -40.4902 H         1 UNK         0.0983 
     79 H79        20.0281  -27.1285  -42.3269 H         1 UNK         0.3095 
     80 H80        22.0061  -25.4939  -44.4444 H         1 UNK         0.0454 
     81 H81        22.4710  -27.1865  -46.2399 H         1 UNK         0.0851 
     82 H82        22.4182  -28.4763  -45.0400 H         1 UNK         0.0851 
     83 H83        23.6807  -27.2591  -44.9731 H         1 UNK         0.0851 
     84 H84        19.7402  -27.1693  -43.9374 H         1 UNK         0.2976 
     85 H85        21.0124  -24.9781  -41.1086 H         1 UNK         0.3116 
     86 H86        21.6888  -23.8660  -38.5028 H         1 UNK         0.0646 
     87 H87        21.5068  -22.5623  -41.2754 H         1 UNK         0.0847 
     88 H88        21.6480  -21.7079  -39.7464 H         1 UNK         0.0847 
     89 H89        20.2048  -22.6463  -40.0872 H         1 UNK         0.0847 
     90 H90        23.4980  -24.9986  -41.2912 H         1 UNK         0.3040 
     91 H91        25.9921  -23.6027  -40.4228 H         1 UNK         0.1015 
     92 H92        25.2751  -24.9848  -43.0656 H         1 UNK         0.0786 
     93 H93        26.8028  -24.1960  -42.6972 H         1 UNK         0.0786 
     94 H94        25.3292  -23.2452  -42.7872 H         1 UNK         0.0786 
     95 H95        24.6554  -26.8287  -41.2987 H         1 UNK         0.3172 
     96 H96        26.5677  -28.1928  -39.5418 H         1 UNK         0.0595 
     97 H97        26.5697  -28.6382  -42.5865 H         1 UNK         0.0839 
     98 H98        27.3628  -29.6924  -41.4126 H         1 UNK         0.0839 
     99 H99        27.9044  -28.0394  -41.6129 H         1 UNK         0.0839 
    100 H100       25.1863  -30.1010  -42.0454 H         1 UNK         0.2998 
    101 H101       22.5570  -30.4195  -40.8513 H         1 UNK         0.0822 
    102 H102       22.8149  -32.8947  -40.5882 H         1 UNK         0.0787 
    103 H103       24.5314  -32.7766  -40.9604 H         1 UNK         0.0787 
    104 H104       23.8909  -32.0481  -39.4886 H         1 UNK         0.0787 
    105 H105       21.1319  -30.9354  -42.4765 H         1 UNK         0.3055 
    106 H106       22.1719  -30.8615  -45.2151 H         1 UNK         0.1106 
    107 H107       19.8069  -30.4891  -45.7837 H         1 UNK         0.0828 
    108 H108       19.3047  -30.9427  -44.1602 H         1 UNK         0.0828 
    109 H109       20.2365  -29.4710  -44.4118 H         1 UNK         0.0828 
    110 H110       20.9369  -33.3256  -43.0560 H         1 UNK         0.2931 
    111 H111       20.9873  -35.3237  -45.2422 H         1 UNK         0.0412 
    112 H112       22.8298  -34.5829  -42.7548 H         1 UNK         0.3472 
    113 H113       23.1015  -36.1801  -42.1059 H         1 UNK         0.3472 
    114 H114       18.9275  -36.3652  -44.4739 H         1 UNK         0.0970 
    115 H115       18.6409  -34.7122  -44.9269 H         1 UNK         0.0970 
    116 H116       16.0541  -34.5538  -42.2095 H         1 UNK         0.0612 
    117 H117       16.3943  -34.7819  -43.9041 H         1 UNK         0.0612 
@<TRIPOS>BOND
     1    1    2 1    
     2    1   62 1    
     3    1   63 1    
     4    1   64 1    
     5    2    3 2    
     6    2    4 am   BACKBONE|DICT|INTERRES
     7    4    5 1    
     8    4   65 1    
     9    5    6 1    
    10    5   25 1    
    11    5   66 1    
    12    6    7 1    
    13    6   67 1    
    14    6   68 1    
    15    7    8 1    
    16    8    9 1    
    17    8   69 1    
    18    8   70 1    
    19    9   10 ar   
    20    9   14 ar   
    21   10   11 ar   
    22   10   71 1    
    23   11   12 ar   
    24   11   61 1    
    25   12   13 ar   
    26   12   72 1    
    27   13   14 ar   
    28   13   15 1    
    29   14   73 1    
    30   15   16 1    
    31   15   74 1    
    32   15   75 1    
    33   16   17 1    
    34   17   18 1    
    35   17   76 1    
    36   17   77 1    
    37   18   19 1    
    38   18   27 1    
    39   18   78 1    
    40   19   20 am   BACKBONE|DICT|INTERRES
    41   19   79 1    
    42   20   21 2    
    43   20   22 1    
    44   22   23 1    
    45   22   24 1    
    46   22   80 1    
    47   23   81 1    
    48   23   82 1    
    49   23   83 1    
    50   24   25 am   BACKBONE|DICT|INTERRES
    51   24   84 1    
    52   25   26 2    
    53   27   28 2    
    54   27   29 am   BACKBONE|DICT|INTERRES
    55   29   30 1    
    56   29   85 1    
    57   30   31 1    
    58   30   32 1    
    59   30   86 1    
    60   31   87 1    
    61   31   88 1    
    62   31   89 1    
    63   32   33 2    
    64   32   34 am   BACKBONE|DICT|INTERRES
    65   34   35 1    
    66   34   90 1    
    67   35   36 1    
    68   35   37 1    
    69   35   91 1    
    70   36   92 1    
    71   36   93 1    
    72   36   94 1    
    73   37   38 2    
    74   37   39 am   BACKBONE|DICT|INTERRES
    75   39   40 1    
    76   39   95 1    
    77   40   41 1    
    78   40   42 1    
    79   40   96 1    
    80   41   97 1    
    81   41   98 1    
    82   41   99 1    
    83   42   43 2    
    84   42   44 am   BACKBONE|DICT|INTERRES
    85   44   45 1    
    86   44  100 1    
    87   45   46 1    
    88   45   47 1    
    89   45  101 1    
    90   46  102 1    
    91   46  103 1    
    92   46  104 1    
    93   47   48 2    
    94   47   49 am   BACKBONE|DICT|INTERRES
    95   49   50 1    
    96   49  105 1    
    97   50   51 1    
    98   50   52 1    
    99   50  106 1    
   100   51  107 1    
   101   51  108 1    
   102   51  109 1    
   103   52   53 2    
   104   52   54 am   BACKBONE|DICT|INTERRES
   105   54   55 1    
   106   54  110 1    
   107   55   56 1    
   108   55   59 1    
   109   55  111 1    
   110   56   57 am   BACKBONE|DICT|INTERRES
   111   56   58 2    
   112   57  112 1    
   113   57  113 1    
   114   59   60 1    
   115   59  114 1    
   116   59  115 1    
   117   60   61 1    
   118   61  116 1    
   119   61  117 1    
@<TRIPOS>SUBSTRUCTURE
     1 UNK         1 GROUP             0       ****    0 ROOT    
