@<TRIPOS>MOLECULE
3R8
117   119    1
SMALL
USER_CHARGES


@<TRIPOS>ATOM
      1 CA         15.0231  -24.5671  -41.2258 C.3       0 UNK        -0.2013 
      2 C          15.6795  -24.5632  -42.5984 C.2       0 UNK         0.4866 
      3 O          15.7096  -23.5248  -43.2603 O.2       0 UNK        -0.5176 
      4 N          16.1967  -25.7183  -43.0344 N.am      1 UNK        -0.4884 
      5 CA         16.9158  -25.8901  -44.3021 C.3       1 UNK         0.0853 
      6 C6         17.0713  -27.3854  -44.6786 C.3       10 UNK        -0.0849 
      7 S7         15.4813  -28.2814  -44.7691 S.3       10 UNK        -0.2776 
      8 C8         15.8592  -29.6188  -45.9543 C.3       10 UNK         0.0316 
      9 C9         17.1347  -30.3680  -45.5897 C.ar      10 UNK        -0.0863 
     10 C10        17.1940  -31.1396  -44.4243 C.ar      10 UNK        -0.1009 
     11 C11        18.3865  -31.7646  -44.0455 C.ar      10 UNK        -0.0712 
     12 C12        19.5182  -31.6255  -44.8548 C.ar      10 UNK        -0.0894 
     13 C13        19.4671  -30.8717  -46.0304 C.ar      10 UNK        -0.0745 
     14 C14        18.2699  -30.2528  -46.3982 C.ar      10 UNK        -0.0972 
     15 C15        20.7199  -30.6888  -46.8758 C.3       10 UNK         0.0209 
     16 S16        21.3711  -28.9890  -46.7749 S.3       10 UNK        -0.2568 
     17 C17        21.6589  -28.8249  -44.9804 C.3       10 UNK        -0.0983 
     18 CA         22.0823  -27.4006  -44.5509 C.3       3 UNK         0.0876 
     19 N          21.1271  -26.3945  -45.0198 N.am      3 UNK        -0.4424 
     20 C          21.3489  -25.0780  -45.1127 C.2       2 UNK         0.4918 
     21 O          22.4259  -24.5454  -44.8463 O.2       2 UNK        -0.4875 
     22 CA         20.1612  -24.2016  -45.5642 C.3       2 UNK         0.0481 
     23 CB         20.3427  -23.7755  -47.0299 C.3       2 UNK        -0.1831 
     24 N          18.8380  -24.8256  -45.4053 N.am      2 UNK        -0.4498 
     25 C          18.3056  -25.2210  -44.2390 C.2       1 UNK         0.5027 
     26 O          18.9003  -25.1366  -43.1611 O.2       1 UNK        -0.4969 
     27 C          22.3035  -27.3700  -43.0213 C.2       3 UNK         0.5005 
     28 O          23.1991  -28.0716  -42.5472 O.2       3 UNK        -0.5279 
     29 N          21.4947  -26.6071  -42.2648 N.am      4 UNK        -0.4463 
     30 CA         21.5589  -26.4889  -40.8033 C.3       4 UNK         0.0283 
     31 CB         20.5512  -25.4320  -40.3246 C.3       4 UNK        -0.1875 
     32 C          22.9724  -26.1627  -40.2866 C.2       4 UNK         0.4949 
     33 O          23.5840  -25.1977  -40.7468 O.2       4 UNK        -0.5039 
     34 N          23.4577  -27.0103  -39.3697 N.am      5 UNK        -0.4663 
     35 CA         24.7955  -27.0355  -38.7591 C.3       5 UNK         0.0242 
     36 CB         25.1341  -25.6955  -38.0717 C.3       5 UNK        -0.1982 
     37 C          25.9360  -27.5087  -39.6866 C.2       5 UNK         0.5017 
     38 O          27.0526  -27.6758  -39.1936 O.2       5 UNK        -0.5012 
     39 N          25.6597  -27.7525  -40.9758 N.am      6 UNK        -0.4439 
     40 CA         26.6046  -28.3315  -41.9365 C.3       6 UNK         0.0297 
     41 CB         26.5357  -27.5607  -43.2660 C.3       6 UNK        -0.2006 
     42 C          26.3074  -29.8233  -42.1519 C.2       6 UNK         0.4892 
     43 O          27.2295  -30.6385  -42.1156 O.2       6 UNK        -0.5089 
     44 N          25.0256  -30.1517  -42.3444 N.am      7 UNK        -0.4243 
     45 CA         24.4926  -31.4998  -42.4965 C.3       7 UNK         0.0196 
     46 CB         24.5555  -31.9347  -43.9738 C.3       7 UNK        -0.2007 
     47 C          23.0695  -31.4793  -41.9302 C.2       7 UNK         0.5020 
     48 O          22.0996  -31.4348  -42.6838 O.2       7 UNK        -0.5147 
     49 N          22.9747  -31.4542  -40.5954 N.am      8 UNK        -0.4734 
     50 CA         21.7283  -31.2779  -39.8392 C.3       8 UNK         0.0238 
     51 CB         22.0857  -30.8288  -38.4109 C.3       8 UNK        -0.1912 
     52 C          20.7932  -32.5060  -39.8081 C.2       8 UNK         0.5038 
     53 O          19.7324  -32.4202  -39.1882 O.2       8 UNK        -0.5046 
     54 N          21.1892  -33.6147  -40.4497 N.am      9 UNK        -0.4200 
     55 CA         20.4680  -34.9015  -40.5068 C.3       9 UNK         0.0839 
     56 C          20.4152  -35.6691  -39.1489 C.2       9 UNK         0.5513 
     57 N          21.2488  -35.3394  -38.1692 N.am      9 UNK        -0.7519 
     58 O          19.6315  -36.6012  -38.9868 O.2       9 UNK        -0.4960 
     59 C59        19.0709  -34.8074  -41.1934 C.3       10 UNK        -0.0876 
     60 S60        19.1431  -34.2050  -42.9157 S.3       10 UNK        -0.2414 
     61 C61        18.4702  -32.5224  -42.7266 C.3       10 UNK         0.0169 
     62 H62        13.9803  -24.2617  -41.3074 H         1 UNK         0.0903 
     63 H63        15.0523  -25.5531  -40.7625 H         1 UNK         0.0903 
     64 H64        15.5332  -23.8668  -40.5648 H         1 UNK         0.0903 
     65 H65        16.1473  -26.5403  -42.4500 H         1 UNK         0.3096 
     66 H66        16.3360  -25.3937  -45.0839 H         1 UNK         0.1121 
     67 H67        17.7084  -27.9034  -43.9580 H         1 UNK         0.0849 
     68 H68        17.5693  -27.4756  -45.6459 H         1 UNK         0.0849 
     69 H69        15.0233  -30.3193  -45.9805 H         1 UNK         0.0865 
     70 H70        15.9319  -29.1934  -46.9565 H         1 UNK         0.0865 
     71 H71        16.3191  -31.2170  -43.7931 H         1 UNK         0.1346 
     72 H72        20.4485  -32.0862  -44.5520 H         1 UNK         0.1412 
     73 H73        18.2376  -29.6513  -47.2966 H         1 UNK         0.1426 
     74 H74        20.4916  -30.9216  -47.9168 H         1 UNK         0.0716 
     75 H75        21.5007  -31.3864  -46.5679 H         1 UNK         0.0716 
     76 H76        22.4203  -29.5527  -44.6979 H         1 UNK         0.0695 
     77 H77        20.7505  -29.1119  -44.4481 H         1 UNK         0.0695 
     78 H78        23.0490  -27.1817  -45.0095 H         1 UNK         0.0983 
     79 H79        20.2239  -26.7454  -45.2979 H         1 UNK         0.3095 
     80 H80        20.1738  -23.3024  -44.9450 H         1 UNK         0.0454 
     81 H81        20.3147  -24.6312  -47.7059 H         1 UNK         0.0851 
     82 H82        21.3023  -23.2774  -47.1765 H         1 UNK         0.0851 
     83 H83        19.5679  -23.0744  -47.3404 H         1 UNK         0.0851 
     84 H84        18.2963  -24.9397  -46.2506 H         1 UNK         0.2976 
     85 H85        20.7739  -26.0621  -42.7243 H         1 UNK         0.3116 
     86 H86        21.2514  -27.4547  -40.3970 H         1 UNK         0.0646 
     87 H87        19.5287  -25.7157  -40.5739 H         1 UNK         0.0847 
     88 H88        20.7476  -24.4575  -40.7737 H         1 UNK         0.0847 
     89 H89        20.5958  -25.3081  -39.2417 H         1 UNK         0.0847 
     90 H90        22.8546  -27.7693  -39.0847 H         1 UNK         0.3040 
     91 H91        24.7370  -27.7899  -37.9725 H         1 UNK         0.1015 
     92 H92        25.3001  -24.8957  -38.7938 H         1 UNK         0.0786 
     93 H93        26.0441  -25.7822  -37.4767 H         1 UNK         0.0786 
     94 H94        24.3374  -25.3813  -37.3975 H         1 UNK         0.0786 
     95 H95        24.7103  -27.6120  -41.3073 H         1 UNK         0.3172 
     96 H96        27.6265  -28.2462  -41.5613 H         1 UNK         0.0595 
     97 H97        25.5491  -27.6177  -43.7260 H         1 UNK         0.0839 
     98 H98        27.2518  -27.9619  -43.9844 H         1 UNK         0.0839 
     99 H99        26.7759  -26.5070  -43.1235 H         1 UNK         0.0839 
    100 H100       24.3270  -29.4071  -42.3703 H         1 UNK         0.2998 
    101 H101       25.0814  -32.2015  -41.9015 H         1 UNK         0.0822 
    102 H102       25.5863  -31.9980  -44.3227 H         1 UNK         0.0787 
    103 H103       24.1048  -32.9185  -44.1097 H         1 UNK         0.0787 
    104 H104       24.0266  -31.2398  -44.6258 H         1 UNK         0.0787 
    105 H105       23.8270  -31.4940  -40.0541 H         1 UNK         0.3055 
    106 H106       21.1611  -30.4745  -40.3156 H         1 UNK         0.1106 
    107 H107       22.6291  -31.6040  -37.8693 H         1 UNK         0.0828 
    108 H108       21.1886  -30.5988  -37.8340 H         1 UNK         0.0828 
    109 H109       22.7014  -29.9300  -38.4157 H         1 UNK         0.0828 
    110 H110       22.0719  -33.5846  -40.9370 H         1 UNK         0.2931 
    111 H111       21.0856  -35.5360  -41.1434 H         1 UNK         0.0412 
    112 H112       21.9087  -34.5882  -38.2893 H         1 UNK         0.3472 
    113 H113       21.2149  -35.8488  -37.2999 H         1 UNK         0.3472 
    114 H114       18.3901  -34.1897  -40.6061 H         1 UNK         0.0970 
    115 H115       18.6051  -35.7935  -41.2347 H         1 UNK         0.0970 
    116 H116       17.4870  -32.5874  -42.2581 H         1 UNK         0.0612 
    117 H117       19.1046  -31.9535  -42.0478 H         1 UNK         0.0612 
@<TRIPOS>BOND
     1    1    2 1    
     2    1   62 1    
     3    1   63 1    
     4    1   64 1    
     5    2    3 2    
     6    2    4 am   BACKBONE|DICT|INTERRES
     7    4    5 1    
     8    4   65 1    
     9    5    6 1    
    10    5   25 1    
    11    5   66 1    
    12    6    7 1    
    13    6   67 1    
    14    6   68 1    
    15    7    8 1    
    16    8    9 1    
    17    8   69 1    
    18    8   70 1    
    19    9   10 ar   
    20    9   14 ar   
    21   10   11 ar   
    22   10   71 1    
    23   11   12 ar   
    24   11   61 1    
    25   12   13 ar   
    26   12   72 1    
    27   13   14 ar   
    28   13   15 1    
    29   14   73 1    
    30   15   16 1    
    31   15   74 1    
    32   15   75 1    
    33   16   17 1    
    34   17   18 1    
    35   17   76 1    
    36   17   77 1    
    37   18   19 1    
    38   18   27 1    
    39   18   78 1    
    40   19   20 am   BACKBONE|DICT|INTERRES
    41   19   79 1    
    42   20   21 2    
    43   20   22 1    
    44   22   23 1    
    45   22   24 1    
    46   22   80 1    
    47   23   81 1    
    48   23   82 1    
    49   23   83 1    
    50   24   25 am   BACKBONE|DICT|INTERRES
    51   24   84 1    
    52   25   26 2    
    53   27   28 2    
    54   27   29 am   BACKBONE|DICT|INTERRES
    55   29   30 1    
    56   29   85 1    
    57   30   31 1    
    58   30   32 1    
    59   30   86 1    
    60   31   87 1    
    61   31   88 1    
    62   31   89 1    
    63   32   33 2    
    64   32   34 am   BACKBONE|DICT|INTERRES
    65   34   35 1    
    66   34   90 1    
    67   35   36 1    
    68   35   37 1    
    69   35   91 1    
    70   36   92 1    
    71   36   93 1    
    72   36   94 1    
    73   37   38 2    
    74   37   39 am   BACKBONE|DICT|INTERRES
    75   39   40 1    
    76   39   95 1    
    77   40   41 1    
    78   40   42 1    
    79   40   96 1    
    80   41   97 1    
    81   41   98 1    
    82   41   99 1    
    83   42   43 2    
    84   42   44 am   BACKBONE|DICT|INTERRES
    85   44   45 1    
    86   44  100 1    
    87   45   46 1    
    88   45   47 1    
    89   45  101 1    
    90   46  102 1    
    91   46  103 1    
    92   46  104 1    
    93   47   48 2    
    94   47   49 am   BACKBONE|DICT|INTERRES
    95   49   50 1    
    96   49  105 1    
    97   50   51 1    
    98   50   52 1    
    99   50  106 1    
   100   51  107 1    
   101   51  108 1    
   102   51  109 1    
   103   52   53 2    
   104   52   54 am   BACKBONE|DICT|INTERRES
   105   54   55 1    
   106   54  110 1    
   107   55   56 1    
   108   55   59 1    
   109   55  111 1    
   110   56   57 am   BACKBONE|DICT|INTERRES
   111   56   58 2    
   112   57  112 1    
   113   57  113 1    
   114   59   60 1    
   115   59  114 1    
   116   59  115 1    
   117   60   61 1    
   118   61  116 1    
   119   61  117 1    
@<TRIPOS>SUBSTRUCTURE
     1 UNK         1 GROUP             0       ****    0 ROOT    
