@<TRIPOS>MOLECULE
3R8
117   119    1
SMALL
USER_CHARGES


@<TRIPOS>ATOM
      1 CA         14.1883  -26.7124  -49.8685 C.3       0 UNK        -0.2013 
      2 C          15.4748  -27.0474  -49.1285 C.2       0 UNK         0.4866 
      3 O          16.5147  -27.2339  -49.7616 O.2       0 UNK        -0.5176 
      4 N          15.4116  -27.1348  -47.7943 N.am      1 UNK        -0.4884 
      5 CA         16.5572  -27.3994  -46.9183 C.3       1 UNK         0.0853 
      6 C6         16.1083  -27.7330  -45.4772 C.3       10 UNK        -0.0849 
      7 S7         15.2331  -29.3269  -45.3378 S.3       10 UNK        -0.2776 
      8 C8         14.5002  -29.1969  -43.6691 C.3       10 UNK         0.0316 
      9 C9         15.5200  -28.7520  -42.6284 C.ar      10 UNK        -0.0863 
     10 C10        16.4493  -29.6581  -42.1090 C.ar      10 UNK        -0.1009 
     11 C11        17.4277  -29.2277  -41.2067 C.ar      10 UNK        -0.0712 
     12 C12        17.4640  -27.8863  -40.8127 C.ar      10 UNK        -0.0894 
     13 C13        16.5566  -26.9686  -41.3476 C.ar      10 UNK        -0.0745 
     14 C14        15.5699  -27.4126  -42.2309 C.ar      10 UNK        -0.0972 
     15 C15        16.6659  -25.4870  -41.0251 C.3       10 UNK         0.0209 
     16 S16        17.4474  -24.5796  -42.4020 S.3       10 UNK        -0.2568 
     17 C17        19.2284  -24.8066  -42.0689 C.3       10 UNK        -0.0983 
     18 CA         19.8622  -26.0300  -42.7906 C.3       3 UNK         0.0876 
     19 N          19.6631  -26.0513  -44.2459 N.am      3 UNK        -0.4424 
     20 C          20.1663  -25.1950  -45.1483 C.2       2 UNK         0.4918 
     21 O          20.8407  -24.2058  -44.8614 O.2       2 UNK        -0.4875 
     22 CA         19.9013  -25.5091  -46.6347 C.3       2 UNK         0.0481 
     23 CB         21.1862  -26.0305  -47.3000 C.3       2 UNK        -0.1831 
     24 N          18.8319  -26.4947  -46.8312 N.am      2 UNK        -0.4498 
     25 C          17.5255  -26.1988  -46.8802 C.2       1 UNK         0.5027 
     26 O          17.0768  -25.0505  -46.8353 O.2       1 UNK        -0.4969 
     27 C          21.3501  -26.2320  -42.4245 C.2       3 UNK         0.5005 
     28 O          21.9130  -25.4642  -41.6397 O.2       3 UNK        -0.5279 
     29 N          21.9700  -27.2699  -43.0065 N.am      4 UNK        -0.4463 
     30 CA         23.3683  -27.6648  -42.8031 C.3       4 UNK         0.0283 
     31 CB         23.8077  -28.5509  -43.9833 C.3       4 UNK        -0.1875 
     32 C          23.5907  -28.3529  -41.4402 C.2       4 UNK         0.4949 
     33 O          24.0450  -29.4985  -41.3857 O.2       4 UNK        -0.5039 
     34 N          23.2513  -27.6451  -40.3558 N.am      5 UNK        -0.4663 
     35 CA         23.2699  -28.0862  -38.9562 C.3       5 UNK         0.0242 
     36 CB         22.4090  -27.1147  -38.1277 C.3       5 UNK        -0.1982 
     37 C          24.6882  -28.2736  -38.3743 C.2       5 UNK         0.5017 
     38 O          25.0034  -27.7370  -37.3107 O.2       5 UNK        -0.5012 
     39 N          25.5111  -29.0472  -39.0841 N.am      6 UNK        -0.4439 
     40 CA         26.8626  -29.4581  -38.7239 C.3       6 UNK         0.0297 
     41 CB         27.8851  -28.4881  -39.3464 C.3       6 UNK        -0.2006 
     42 C          27.0425  -30.9110  -39.1825 C.2       6 UNK         0.4892 
     43 O          27.8714  -31.1898  -40.0491 O.2       6 UNK        -0.5089 
     44 N          26.1953  -31.7984  -38.6391 N.am      7 UNK        -0.4243 
     45 CA         26.0873  -33.2486  -38.8789 C.3       7 UNK         0.0196 
     46 CB         27.4035  -33.9711  -38.5272 C.3       7 UNK        -0.2007 
     47 C          25.5894  -33.6638  -40.2792 C.2       7 UNK         0.5020 
     48 O          25.0703  -34.7712  -40.4178 O.2       7 UNK        -0.5147 
     49 N          25.7366  -32.7941  -41.2855 N.am      8 UNK        -0.4734 
     50 CA         25.3213  -33.0232  -42.6730 C.3       8 UNK         0.0238 
     51 CB         25.9888  -31.9665  -43.5679 C.3       8 UNK        -0.1912 
     52 C          23.7958  -33.0181  -42.8850 C.2       8 UNK         0.5038 
     53 O          23.3300  -33.6047  -43.8631 O.2       8 UNK        -0.5046 
     54 N          23.0591  -32.3420  -41.9938 N.am      9 UNK        -0.4200 
     55 CA         21.5967  -32.1932  -42.0204 C.3       9 UNK         0.0839 
     56 C          20.8227  -33.5392  -41.9620 C.2       9 UNK         0.5513 
     57 N          19.6855  -33.6279  -42.6380 N.am      9 UNK        -0.7519 
     58 O          21.2147  -34.4769  -41.2709 O.2       9 UNK        -0.4960 
     59 C59        21.1122  -31.2163  -40.9095 C.3       10 UNK        -0.0876 
     60 S60        20.0505  -29.9034  -41.5897 S.3       10 UNK        -0.2414 
     61 C61        18.4892  -30.1921  -40.7064 C.3       10 UNK         0.0169 
     62 H62        13.9409  -27.5083  -50.5704 H         1 UNK         0.0903 
     63 H63        13.3465  -26.5873  -49.1876 H         1 UNK         0.0903 
     64 H64        14.3096  -25.7871  -50.4311 H         1 UNK         0.0903 
     65 H65        14.5338  -26.9648  -47.3246 H         1 UNK         0.3096 
     66 H66        17.0939  -28.2601  -47.3244 H         1 UNK         0.1121 
     67 H67        15.4709  -26.9370  -45.0868 H         1 UNK         0.0849 
     68 H68        16.9713  -27.7880  -44.8104 H         1 UNK         0.0849 
     69 H69        13.6600  -28.5013  -43.7017 H         1 UNK         0.0865 
     70 H70        14.0821  -30.1640  -43.3857 H         1 UNK         0.0865 
     71 H71        16.4317  -30.6891  -42.4356 H         1 UNK         0.1346 
     72 H72        18.2360  -27.5489  -40.1344 H         1 UNK         0.1412 
     73 H73        14.8725  -26.6997  -42.6497 H         1 UNK         0.1426 
     74 H74        17.2182  -25.3232  -40.0986 H         1 UNK         0.0716 
     75 H75        15.6673  -25.0803  -40.8592 H         1 UNK         0.0716 
     76 H76        19.7373  -23.8886  -42.3675 H         1 UNK         0.0695 
     77 H77        19.3711  -24.8859  -40.9897 H         1 UNK         0.0695 
     78 H78        19.3589  -26.9206  -42.4186 H         1 UNK         0.0983 
     79 H79        19.1137  -26.8208  -44.5947 H         1 UNK         0.3095 
     80 H80        19.6238  -24.5737  -47.1253 H         1 UNK         0.0454 
     81 H81        21.9960  -25.3054  -47.2071 H         1 UNK         0.0851 
     82 H82        21.5308  -26.9608  -46.8468 H         1 UNK         0.0851 
     83 H83        21.0373  -26.2097  -48.3649 H         1 UNK         0.0851 
     84 H84        19.1190  -27.4610  -46.9041 H         1 UNK         0.2976 
     85 H85        21.4239  -27.8741  -43.6030 H         1 UNK         0.3116 
     86 H86        23.9863  -26.7646  -42.8150 H         1 UNK         0.0646 
     87 H87        24.8692  -28.7900  -43.9130 H         1 UNK         0.0847 
     88 H88        23.6564  -28.0478  -44.9384 H         1 UNK         0.0847 
     89 H89        23.2605  -29.4946  -44.0076 H         1 UNK         0.0847 
     90 H90        22.8839  -26.7128  -40.5286 H         1 UNK         0.3040 
     91 H91        22.7895  -29.0651  -38.9091 H         1 UNK         0.1015 
     92 H92        21.3913  -27.0583  -38.5151 H         1 UNK         0.0786 
     93 H93        22.8253  -26.1065  -38.1308 H         1 UNK         0.0786 
     94 H94        22.3391  -27.4380  -37.0881 H         1 UNK         0.0786 
     95 H95        25.1447  -29.4154  -39.9620 H         1 UNK         0.3172 
     96 H96        26.9820  -29.4433  -37.6385 H         1 UNK         0.0595 
     97 H97        27.7460  -27.4737  -38.9724 H         1 UNK         0.0839 
     98 H98        27.8025  -28.4581  -40.4336 H         1 UNK         0.0839 
     99 H99        28.9053  -28.7870  -39.1027 H         1 UNK         0.0839 
    100 H100       25.5273  -31.4335  -37.9734 H         1 UNK         0.2998 
    101 H101       25.3281  -33.6007  -38.1785 H         1 UNK         0.0822 
    102 H102       27.2816  -35.0534  -38.5889 H         1 UNK         0.0787 
    103 H103       28.2124  -33.6997  -39.2062 H         1 UNK         0.0787 
    104 H104       27.7248  -33.7396  -37.5117 H         1 UNK         0.0787 
    105 H105       26.2532  -31.9440  -41.0921 H         1 UNK         0.3055 
    106 H106       25.6828  -34.0084  -42.9762 H         1 UNK         0.1106 
    107 H107       25.7009  -30.9566  -43.2753 H         1 UNK         0.0828 
    108 H108       27.0757  -32.0329  -43.5172 H         1 UNK         0.0828 
    109 H109       25.7048  -32.0989  -44.6129 H         1 UNK         0.0828 
    110 H110       23.5489  -31.8492  -41.2620 H         1 UNK         0.2931 
    111 H111       21.3909  -31.7521  -42.9983 H         1 UNK         0.0412 
    112 H112       19.3488  -32.8534  -43.1885 H         1 UNK         0.3472 
    113 H113       19.1564  -34.4852  -42.6004 H         1 UNK         0.3472 
    114 H114       21.9522  -30.7204  -40.4263 H         1 UNK         0.0970 
    115 H115       20.5979  -31.7334  -40.0965 H         1 UNK         0.0970 
    116 H116       18.6426  -30.0549  -39.6350 H         1 UNK         0.0612 
    117 H117       18.1726  -31.2261  -40.8528 H         1 UNK         0.0612 
@<TRIPOS>BOND
     1    1    2 1    
     2    1   62 1    
     3    1   63 1    
     4    1   64 1    
     5    2    3 2    
     6    2    4 am   BACKBONE|DICT|INTERRES
     7    4    5 1    
     8    4   65 1    
     9    5    6 1    
    10    5   25 1    
    11    5   66 1    
    12    6    7 1    
    13    6   67 1    
    14    6   68 1    
    15    7    8 1    
    16    8    9 1    
    17    8   69 1    
    18    8   70 1    
    19    9   10 ar   
    20    9   14 ar   
    21   10   11 ar   
    22   10   71 1    
    23   11   12 ar   
    24   11   61 1    
    25   12   13 ar   
    26   12   72 1    
    27   13   14 ar   
    28   13   15 1    
    29   14   73 1    
    30   15   16 1    
    31   15   74 1    
    32   15   75 1    
    33   16   17 1    
    34   17   18 1    
    35   17   76 1    
    36   17   77 1    
    37   18   19 1    
    38   18   27 1    
    39   18   78 1    
    40   19   20 am   BACKBONE|DICT|INTERRES
    41   19   79 1    
    42   20   21 2    
    43   20   22 1    
    44   22   23 1    
    45   22   24 1    
    46   22   80 1    
    47   23   81 1    
    48   23   82 1    
    49   23   83 1    
    50   24   25 am   BACKBONE|DICT|INTERRES
    51   24   84 1    
    52   25   26 2    
    53   27   28 2    
    54   27   29 am   BACKBONE|DICT|INTERRES
    55   29   30 1    
    56   29   85 1    
    57   30   31 1    
    58   30   32 1    
    59   30   86 1    
    60   31   87 1    
    61   31   88 1    
    62   31   89 1    
    63   32   33 2    
    64   32   34 am   BACKBONE|DICT|INTERRES
    65   34   35 1    
    66   34   90 1    
    67   35   36 1    
    68   35   37 1    
    69   35   91 1    
    70   36   92 1    
    71   36   93 1    
    72   36   94 1    
    73   37   38 2    
    74   37   39 am   BACKBONE|DICT|INTERRES
    75   39   40 1    
    76   39   95 1    
    77   40   41 1    
    78   40   42 1    
    79   40   96 1    
    80   41   97 1    
    81   41   98 1    
    82   41   99 1    
    83   42   43 2    
    84   42   44 am   BACKBONE|DICT|INTERRES
    85   44   45 1    
    86   44  100 1    
    87   45   46 1    
    88   45   47 1    
    89   45  101 1    
    90   46  102 1    
    91   46  103 1    
    92   46  104 1    
    93   47   48 2    
    94   47   49 am   BACKBONE|DICT|INTERRES
    95   49   50 1    
    96   49  105 1    
    97   50   51 1    
    98   50   52 1    
    99   50  106 1    
   100   51  107 1    
   101   51  108 1    
   102   51  109 1    
   103   52   53 2    
   104   52   54 am   BACKBONE|DICT|INTERRES
   105   54   55 1    
   106   54  110 1    
   107   55   56 1    
   108   55   59 1    
   109   55  111 1    
   110   56   57 am   BACKBONE|DICT|INTERRES
   111   56   58 2    
   112   57  112 1    
   113   57  113 1    
   114   59   60 1    
   115   59  114 1    
   116   59  115 1    
   117   60   61 1    
   118   61  116 1    
   119   61  117 1    
@<TRIPOS>SUBSTRUCTURE
     1 UNK         1 GROUP             0       ****    0 ROOT    
