@<TRIPOS>MOLECULE
3R8
117   119    1
SMALL
USER_CHARGES


@<TRIPOS>ATOM
      1 CA         20.6011  -29.0975  -48.1197 C.3       0 UNK        -0.2013 
      2 C          19.4900  -28.3972  -48.8989 C.2       0 UNK         0.4866 
      3 O          19.5827  -28.2944  -50.1206 O.2       0 UNK        -0.5176 
      4 N          18.4181  -27.9182  -48.2531 N.am      1 UNK        -0.4884 
      5 CA         18.2039  -27.8871  -46.8013 C.3       1 UNK         0.0853 
      6 C6         16.7029  -27.7701  -46.4481 C.3       10 UNK        -0.0849 
      7 S7         15.8353  -29.3248  -46.8437 S.3       10 UNK        -0.2776 
      8 C8         14.8225  -29.5970  -45.3502 C.3       10 UNK         0.0316 
      9 C9         15.6177  -29.7754  -44.0566 C.ar      10 UNK        -0.0863 
     10 C10        16.7589  -30.5858  -44.0000 C.ar      10 UNK        -0.1009 
     11 C11        17.4270  -30.7867  -42.7871 C.ar      10 UNK        -0.0712 
     12 C12        16.9372  -30.1870  -41.6234 C.ar      10 UNK        -0.0894 
     13 C13        15.8061  -29.3662  -41.6642 C.ar      10 UNK        -0.0745 
     14 C14        15.1567  -29.1639  -42.8857 C.ar      10 UNK        -0.0972 
     15 C15        15.2389  -28.7368  -40.3931 C.3       10 UNK         0.0209 
     16 S16        16.4909  -27.9517  -39.3216 S.3       10 UNK        -0.2568 
     17 C17        17.1931  -26.6797  -40.4234 C.3       10 UNK        -0.0983 
     18 CA         18.6670  -26.9952  -40.7802 C.3       3 UNK         0.0876 
     19 N          19.0447  -26.4299  -42.0757 N.am      3 UNK        -0.4424 
     20 C          20.2164  -26.6403  -42.6874 C.2       2 UNK         0.4918 
     21 O          21.1374  -27.3025  -42.2066 O.2       2 UNK        -0.4875 
     22 CA         20.3118  -26.1148  -44.1221 C.3       2 UNK         0.0481 
     23 CB         21.7563  -26.1079  -44.6657 C.3       2 UNK        -0.1831 
     24 N          19.4638  -26.9882  -44.9251 N.am      2 UNK        -0.4498 
     25 C          19.0137  -26.7455  -46.1586 C.2       1 UNK         0.5027 
     26 O          19.2118  -25.6963  -46.7757 O.2       1 UNK        -0.4969 
     27 C          19.6375  -26.5642  -39.6606 C.2       3 UNK         0.5005 
     28 O          19.8630  -25.3652  -39.4794 O.2       3 UNK        -0.5279 
     29 N          20.1975  -27.5589  -38.9565 N.am      4 UNK        -0.4463 
     30 CA         21.1665  -27.4493  -37.8586 C.3       4 UNK         0.0283 
     31 CB         20.5700  -26.6760  -36.6632 C.3       4 UNK        -0.1875 
     32 C          22.5551  -26.9105  -38.2625 C.2       4 UNK         0.4949 
     33 O          23.3703  -26.6486  -37.3760 O.2       4 UNK        -0.5039 
     34 N          22.8491  -26.7976  -39.5671 N.am      5 UNK        -0.4663 
     35 CA         24.1486  -26.3623  -40.0915 C.3       5 UNK         0.0242 
     36 CB         23.9567  -25.7705  -41.4995 C.3       5 UNK        -0.1982 
     37 C          25.1605  -27.5223  -40.0777 C.2       5 UNK         0.5017 
     38 O          25.5580  -28.0076  -41.1371 O.2       5 UNK        -0.5012 
     39 N          25.5069  -27.9925  -38.8700 N.am      6 UNK        -0.4439 
     40 CA         26.4192  -29.1098  -38.5753 C.3       6 UNK         0.0297 
     41 CB         27.8719  -28.7192  -38.9207 C.3       6 UNK        -0.2006 
     42 C          26.0015  -30.4489  -39.2247 C.2       6 UNK         0.4892 
     43 O          26.8605  -31.2854  -39.5079 O.2       6 UNK        -0.5089 
     44 N          24.6897  -30.6110  -39.4608 N.am      7 UNK        -0.4243 
     45 CA         24.0325  -31.7209  -40.1618 C.3       7 UNK         0.0196 
     46 CB         24.1766  -33.0385  -39.3703 C.3       7 UNK        -0.2007 
     47 C          24.4501  -31.8677  -41.6413 C.2       7 UNK         0.5020 
     48 O          24.3019  -32.9538  -42.2045 O.2       7 UNK        -0.5147 
     49 N          24.9228  -30.7788  -42.2718 N.am      8 UNK        -0.4734 
     50 CA         25.3437  -30.7434  -43.6811 C.3       8 UNK         0.0238 
     51 CB         25.9953  -29.3855  -43.9872 C.3       8 UNK        -0.1912 
     52 C          24.2128  -31.0305  -44.6865 C.2       8 UNK         0.5038 
     53 O          24.4973  -31.4388  -45.8131 O.2       8 UNK        -0.5046 
     54 N          22.9613  -30.8297  -44.2575 N.am      9 UNK        -0.4200 
     55 CA         21.7420  -31.2154  -44.9766 C.3       9 UNK         0.0839 
     56 C          21.4754  -32.7486  -45.0502 C.2       9 UNK         0.5513 
     57 N          22.1920  -33.5932  -44.3162 N.am      9 UNK        -0.7519 
     58 O          20.6018  -33.1774  -45.7991 O.2       9 UNK        -0.4960 
     59 C59        20.5153  -30.4314  -44.4453 C.3       10 UNK        -0.0876 
     60 S60        20.1908  -30.6939  -42.6652 S.3       10 UNK        -0.2414 
     61 C61        18.6592  -31.6761  -42.7109 C.3       10 UNK         0.0169 
     62 H62        21.0376  -28.4414  -47.3677 H         1 UNK         0.0903 
     63 H63        20.2209  -29.9960  -47.6350 H         1 UNK         0.0903 
     64 H64        21.4029  -29.4024  -48.7921 H         1 UNK         0.0903 
     65 H65        17.7041  -27.4543  -48.7961 H         1 UNK         0.3096 
     66 H66        18.5662  -28.8265  -46.3805 H         1 UNK         0.1121 
     67 H67        16.2327  -26.9476  -46.9905 H         1 UNK         0.0849 
     68 H68        16.5673  -27.5485  -45.3876 H         1 UNK         0.0849 
     69 H69        14.1224  -28.7648  -45.2592 H         1 UNK         0.0865 
     70 H70        14.2142  -30.4893  -45.5034 H         1 UNK         0.0865 
     71 H71        17.1156  -31.0746  -44.8961 H         1 UNK         0.1346 
     72 H72        17.4390  -30.3629  -40.6818 H         1 UNK         0.1412 
     73 H73        14.2671  -28.5493  -42.9188 H         1 UNK         0.1426 
     74 H74        14.7299  -29.5132  -39.8206 H         1 UNK         0.0716 
     75 H75        14.4812  -27.9904  -40.6373 H         1 UNK         0.0716 
     76 H76        17.0917  -25.6989  -39.9544 H         1 UNK         0.0695 
     77 H77        16.5839  -26.6357  -41.3275 H         1 UNK         0.0695 
     78 H78        18.7602  -28.0755  -40.9126 H         1 UNK         0.0983 
     79 H79        18.3477  -25.8669  -42.5400 H         1 UNK         0.3095 
     80 H80        19.9158  -25.0974  -44.1456 H         1 UNK         0.0454 
     81 H81        21.7999  -25.7260  -45.6853 H         1 UNK         0.0851 
     82 H82        22.1970  -27.1057  -44.6640 H         1 UNK         0.0851 
     83 H83        22.3941  -25.4661  -44.0580 H         1 UNK         0.0851 
     84 H84        19.1947  -27.8464  -44.4627 H         1 UNK         0.2976 
     85 H85        19.9495  -28.5063  -39.2083 H         1 UNK         0.3116 
     86 H86        21.3407  -28.4727  -37.5231 H         1 UNK         0.0646 
     87 H87        20.4395  -25.6171  -36.8880 H         1 UNK         0.0847 
     88 H88        19.6003  -27.0797  -36.3721 H         1 UNK         0.0847 
     89 H89        21.2202  -26.7411  -35.7900 H         1 UNK         0.0847 
     90 H90        22.1485  -27.0497  -40.2554 H         1 UNK         0.3040 
     91 H91        24.5460  -25.5696  -39.4534 H         1 UNK         0.1015 
     92 H92        24.8904  -25.3489  -41.8738 H         1 UNK         0.0786 
     93 H93        23.2146  -24.9720  -41.4995 H         1 UNK         0.0786 
     94 H94        23.6366  -26.5284  -42.2149 H         1 UNK         0.0786 
     95 H95        25.0616  -27.5540  -38.0682 H         1 UNK         0.3172 
     96 H96        26.3664  -29.2690  -37.4974 H         1 UNK         0.0595 
     97 H97        28.0133  -28.6028  -39.9959 H         1 UNK         0.0839 
     98 H98        28.5756  -29.4804  -38.5813 H         1 UNK         0.0839 
     99 H99        28.1567  -27.7827  -38.4415 H         1 UNK         0.0839 
    100 H100       24.0827  -29.8515  -39.1878 H         1 UNK         0.2998 
    101 H101       22.9704  -31.4714  -40.1842 H         1 UNK         0.0822 
    102 H102       23.5570  -33.8252  -39.8025 H         1 UNK         0.0787 
    103 H103       25.2050  -33.4008  -39.3700 H         1 UNK         0.0787 
    104 H104       23.8630  -32.9157  -38.3337 H         1 UNK         0.0787 
    105 H105       25.0401  -29.9163  -41.7483 H         1 UNK         0.3055 
    106 H106       26.0959  -31.5233  -43.8184 H         1 UNK         0.1106 
    107 H107       26.8539  -29.2027  -43.3408 H         1 UNK         0.0828 
    108 H108       26.3520  -29.3442  -45.0173 H         1 UNK         0.0828 
    109 H109       25.2926  -28.5621  -43.8514 H         1 UNK         0.0828 
    110 H110       22.8272  -30.5000  -43.3131 H         1 UNK         0.2931 
    111 H111       21.8867  -30.9026  -46.0121 H         1 UNK         0.0412 
    112 H112       22.0052  -34.5810  -44.3833 H         1 UNK         0.3472 
    113 H113       22.9099  -33.2606  -43.6824 H         1 UNK         0.3472 
    114 H114       19.6248  -30.6635  -45.0312 H         1 UNK         0.0970 
    115 H115       20.6983  -29.3679  -44.5889 H         1 UNK         0.0970 
    116 H116       18.6881  -32.3795  -43.5446 H         1 UNK         0.0612 
    117 H117       18.6100  -32.2836  -41.8060 H         1 UNK         0.0612 
@<TRIPOS>BOND
     1    1    2 1    
     2    1   62 1    
     3    1   63 1    
     4    1   64 1    
     5    2    3 2    
     6    2    4 am   BACKBONE|DICT|INTERRES
     7    4    5 1    
     8    4   65 1    
     9    5    6 1    
    10    5   25 1    
    11    5   66 1    
    12    6    7 1    
    13    6   67 1    
    14    6   68 1    
    15    7    8 1    
    16    8    9 1    
    17    8   69 1    
    18    8   70 1    
    19    9   10 ar   
    20    9   14 ar   
    21   10   11 ar   
    22   10   71 1    
    23   11   12 ar   
    24   11   61 1    
    25   12   13 ar   
    26   12   72 1    
    27   13   14 ar   
    28   13   15 1    
    29   14   73 1    
    30   15   16 1    
    31   15   74 1    
    32   15   75 1    
    33   16   17 1    
    34   17   18 1    
    35   17   76 1    
    36   17   77 1    
    37   18   19 1    
    38   18   27 1    
    39   18   78 1    
    40   19   20 am   BACKBONE|DICT|INTERRES
    41   19   79 1    
    42   20   21 2    
    43   20   22 1    
    44   22   23 1    
    45   22   24 1    
    46   22   80 1    
    47   23   81 1    
    48   23   82 1    
    49   23   83 1    
    50   24   25 am   BACKBONE|DICT|INTERRES
    51   24   84 1    
    52   25   26 2    
    53   27   28 2    
    54   27   29 am   BACKBONE|DICT|INTERRES
    55   29   30 1    
    56   29   85 1    
    57   30   31 1    
    58   30   32 1    
    59   30   86 1    
    60   31   87 1    
    61   31   88 1    
    62   31   89 1    
    63   32   33 2    
    64   32   34 am   BACKBONE|DICT|INTERRES
    65   34   35 1    
    66   34   90 1    
    67   35   36 1    
    68   35   37 1    
    69   35   91 1    
    70   36   92 1    
    71   36   93 1    
    72   36   94 1    
    73   37   38 2    
    74   37   39 am   BACKBONE|DICT|INTERRES
    75   39   40 1    
    76   39   95 1    
    77   40   41 1    
    78   40   42 1    
    79   40   96 1    
    80   41   97 1    
    81   41   98 1    
    82   41   99 1    
    83   42   43 2    
    84   42   44 am   BACKBONE|DICT|INTERRES
    85   44   45 1    
    86   44  100 1    
    87   45   46 1    
    88   45   47 1    
    89   45  101 1    
    90   46  102 1    
    91   46  103 1    
    92   46  104 1    
    93   47   48 2    
    94   47   49 am   BACKBONE|DICT|INTERRES
    95   49   50 1    
    96   49  105 1    
    97   50   51 1    
    98   50   52 1    
    99   50  106 1    
   100   51  107 1    
   101   51  108 1    
   102   51  109 1    
   103   52   53 2    
   104   52   54 am   BACKBONE|DICT|INTERRES
   105   54   55 1    
   106   54  110 1    
   107   55   56 1    
   108   55   59 1    
   109   55  111 1    
   110   56   57 am   BACKBONE|DICT|INTERRES
   111   56   58 2    
   112   57  112 1    
   113   57  113 1    
   114   59   60 1    
   115   59  114 1    
   116   59  115 1    
   117   60   61 1    
   118   61  116 1    
   119   61  117 1    
@<TRIPOS>SUBSTRUCTURE
     1 UNK         1 GROUP             0       ****    0 ROOT    
