@<TRIPOS>MOLECULE
3R8
117   119    1
SMALL
USER_CHARGES


@<TRIPOS>ATOM
      1 CA         18.1580  -30.2293  -45.9281 C.3       0 UNK        -0.2013 
      2 C          19.6215  -30.3739  -45.5410 C.2       0 UNK         0.4866 
      3 O          20.3590  -31.1025  -46.2032 O.2       0 UNK        -0.5176 
      4 N          20.0482  -29.6663  -44.4869 N.am      1 UNK        -0.4884 
      5 CA         21.4300  -29.6345  -43.9956 C.3       1 UNK         0.0853 
      6 C6         21.5454  -28.9429  -42.6094 C.3       10 UNK        -0.0849 
      7 S7         21.1358  -30.0623  -41.2309 S.3       10 UNK        -0.2776 
      8 C8         19.6661  -29.2962  -40.4776 C.3       10 UNK         0.0316 
      9 C9         18.4201  -29.5472  -41.3106 C.ar      10 UNK        -0.0863 
     10 C10        18.0154  -30.8549  -41.5914 C.ar      10 UNK        -0.1009 
     11 C11        16.9041  -31.1004  -42.4003 C.ar      10 UNK        -0.0712 
     12 C12        16.1833  -30.0170  -42.9164 C.ar      10 UNK        -0.0894 
     13 C13        16.5552  -28.7024  -42.6094 C.ar      10 UNK        -0.0745 
     14 C14        17.6656  -28.4770  -41.7932 C.ar      10 UNK        -0.0972 
     15 C15        15.7491  -27.5267  -43.1428 C.3       10 UNK         0.0209 
     16 S16        16.5941  -26.7045  -44.5326 S.3       10 UNK        -0.2568 
     17 C17        17.4234  -25.2772  -43.7382 C.3       10 UNK        -0.0983 
     18 CA         18.9544  -25.4499  -43.5521 C.3       3 UNK         0.0876 
     19 N          19.5924  -25.9727  -44.7679 N.am      3 UNK        -0.4424 
     20 C          20.8559  -26.3937  -44.8845 C.2       2 UNK         0.4918 
     21 O          21.7474  -26.1466  -44.0740 O.2       2 UNK        -0.4875 
     22 CA         21.1682  -27.2358  -46.1262 C.3       2 UNK         0.0481 
     23 CB         21.5133  -26.3100  -47.3037 C.3       2 UNK        -0.1831 
     24 N          22.2875  -28.1612  -45.9191 N.am      2 UNK        -0.4498 
     25 C          22.5039  -29.1261  -45.0026 C.2       1 UNK         0.5027 
     26 O          23.6049  -29.6717  -44.9609 O.2       1 UNK        -0.4969 
     27 C          19.5822  -24.1767  -42.9367 C.2       3 UNK         0.5005 
     28 O          19.2550  -23.8441  -41.7962 O.2       3 UNK        -0.5279 
     29 N          20.4722  -23.4942  -43.6705 N.am      4 UNK        -0.4463 
     30 CA         21.3095  -22.4035  -43.1612 C.3       4 UNK         0.0283 
     31 CB         21.9063  -21.6340  -44.3508 C.3       4 UNK        -0.1875 
     32 C          22.4327  -22.8859  -42.2178 C.2       4 UNK         0.4949 
     33 O          22.9438  -22.0812  -41.4382 O.2       4 UNK        -0.5039 
     34 N          22.8036  -24.1686  -42.3101 N.am      5 UNK        -0.4663 
     35 CA         23.8119  -24.8427  -41.4944 C.3       5 UNK         0.0242 
     36 CB         24.8953  -25.3937  -42.4419 C.3       5 UNK        -0.1982 
     37 C          23.1608  -25.9763  -40.6818 C.2       5 UNK         0.5017 
     38 O          21.9478  -26.1847  -40.7651 O.2       5 UNK        -0.5012 
     39 N          23.9873  -26.6984  -39.9165 N.am      6 UNK        -0.4439 
     40 CA         23.6183  -27.9056  -39.1828 C.3       6 UNK         0.0297 
     41 CB         23.6391  -27.6229  -37.6711 C.3       6 UNK        -0.2006 
     42 C          24.6195  -29.0033  -39.5614 C.2       6 UNK         0.4892 
     43 O          25.8190  -28.8279  -39.3371 O.2       6 UNK        -0.5089 
     44 N          24.1135  -30.0944  -40.1447 N.am      7 UNK        -0.4243 
     45 CA         24.8864  -31.2338  -40.6438 C.3       7 UNK         0.0196 
     46 CB         25.5103  -30.8882  -42.0116 C.3       7 UNK        -0.2007 
     47 C          24.0299  -32.5140  -40.6924 C.2       7 UNK         0.5020 
     48 O          24.2257  -33.3438  -41.5812 O.2       7 UNK        -0.5147 
     49 N          23.0810  -32.6494  -39.7505 N.am      8 UNK        -0.4734 
     50 CA         22.1959  -33.8093  -39.5357 C.3       8 UNK         0.0238 
     51 CB         23.0045  -34.9815  -38.9394 C.3       8 UNK        -0.1912 
     52 C          21.3692  -34.2360  -40.7708 C.2       8 UNK         0.5038 
     53 O          21.1244  -35.4285  -40.9633 O.2       8 UNK        -0.5046 
     54 N          20.9577  -33.2544  -41.5838 N.am      9 UNK        -0.4200 
     55 CA         20.2557  -33.4218  -42.8674 C.3       9 UNK         0.0839 
     56 C          21.1282  -34.0528  -43.9986 C.2       9 UNK         0.5513 
     57 N          22.4508  -34.0913  -43.8746 N.am      9 UNK        -0.7519 
     58 O          20.6080  -34.5072  -45.0139 O.2       9 UNK        -0.4960 
     59 C59        18.8585  -34.0943  -42.7008 C.3       10 UNK        -0.0876 
     60 S60        17.5900  -33.4048  -43.8242 S.3       10 UNK        -0.2414 
     61 C61        16.4635  -32.5312  -42.6863 C.3       10 UNK         0.0169 
     62 H62        17.6503  -29.4789  -45.3241 H         1 UNK         0.0903 
     63 H63        18.0738  -29.9319  -46.9728 H         1 UNK         0.0903 
     64 H64        17.6375  -31.1774  -45.8015 H         1 UNK         0.0903 
     65 H65        19.3787  -29.1367  -43.9468 H         1 UNK         0.3096 
     66 H66        21.7026  -30.6822  -43.8497 H         1 UNK         0.1121 
     67 H67        20.9102  -28.0600  -42.5526 H         1 UNK         0.0849 
     68 H68        22.5613  -28.5852  -42.4285 H         1 UNK         0.0849 
     69 H69        19.5160  -29.7211  -39.4843 H         1 UNK         0.0865 
     70 H70        19.8461  -28.2293  -40.3324 H         1 UNK         0.0865 
     71 H71        18.5779  -31.6823  -41.1855 H         1 UNK         0.1346 
     72 H72        15.3213  -30.1973  -43.5440 H         1 UNK         0.1412 
     73 H73        17.9361  -27.4667  -41.5273 H         1 UNK         0.1426 
     74 H74        14.7747  -27.8712  -43.4924 H         1 UNK         0.0716 
     75 H75        15.5425  -26.8186  -42.3396 H         1 UNK         0.0716 
     76 H76        17.2236  -24.4060  -44.3651 H         1 UNK         0.0695 
     77 H77        16.9452  -25.0662  -42.7802 H         1 UNK         0.0695 
     78 H78        19.1196  -26.2170  -42.7980 H         1 UNK         0.0983 
     79 H79        18.9438  -26.1912  -45.5114 H         1 UNK         0.3095 
     80 H80        20.2841  -27.8076  -46.4042 H         1 UNK         0.0454 
     81 H81        22.3988  -25.7065  -47.0981 H         1 UNK         0.0851 
     82 H82        21.6997  -26.8785  -48.2151 H         1 UNK         0.0851 
     83 H83        20.6947  -25.6220  -47.5198 H         1 UNK         0.0851 
     84 H84        23.0780  -27.9641  -46.5135 H         1 UNK         0.2976 
     85 H85        20.6871  -23.8422  -44.5936 H         1 UNK         0.3116 
     86 H86        20.6757  -21.7179  -42.5947 H         1 UNK         0.0646 
     87 H87        22.5506  -22.2687  -44.9607 H         1 UNK         0.0847 
     88 H88        21.1259  -21.2276  -44.9943 H         1 UNK         0.0847 
     89 H89        22.5103  -20.7930  -44.0072 H         1 UNK         0.0847 
     90 H90        22.2890  -24.7863  -42.9349 H         1 UNK         0.3040 
     91 H91        24.2677  -24.1436  -40.7899 H         1 UNK         0.1015 
     92 H92        24.4926  -26.1564  -43.1107 H         1 UNK         0.0786 
     93 H93        25.7230  -25.8426  -41.8922 H         1 UNK         0.0786 
     94 H94        25.3175  -24.6010  -43.0600 H         1 UNK         0.0786 
     95 H95        24.9779  -26.4945  -39.9307 H         1 UNK         0.3172 
     96 H96        22.6123  -28.2299  -39.4543 H         1 UNK         0.0595 
     97 H97        23.3810  -28.5180  -37.1037 H         1 UNK         0.0839 
     98 H98        22.9173  -26.8505  -37.4051 H         1 UNK         0.0839 
     99 H99        24.6219  -27.2927  -37.3323 H         1 UNK         0.0839 
    100 H100       23.1171  -30.1259  -40.3319 H         1 UNK         0.2998 
    101 H101       25.6958  -31.4390  -39.9401 H         1 UNK         0.0822 
    102 H102       26.1366  -31.7026  -42.3777 H         1 UNK         0.0787 
    103 H103       24.7412  -30.7036  -42.7616 H         1 UNK         0.0787 
    104 H104       26.1414  -30.0015  -41.9537 H         1 UNK         0.0787 
    105 H105       22.9989  -31.9129  -39.0631 H         1 UNK         0.3055 
    106 H106       21.4635  -33.5026  -38.7870 H         1 UNK         0.1106 
    107 H107       23.5489  -34.6754  -38.0462 H         1 UNK         0.0828 
    108 H108       22.3508  -35.8052  -38.6493 H         1 UNK         0.0828 
    109 H109       23.7275  -35.3758  -39.6544 H         1 UNK         0.0828 
    110 H110       21.2122  -32.3032  -41.3507 H         1 UNK         0.2931 
    111 H111       20.0849  -32.3976  -43.1977 H         1 UNK         0.0412 
    112 H112       22.9151  -33.7616  -43.0348 H         1 UNK         0.3472 
    113 H113       22.9978  -34.4973  -44.6167 H         1 UNK         0.3472 
    114 H114       18.9252  -35.1717  -42.8628 H         1 UNK         0.0970 
    115 H115       18.5038  -33.9891  -41.6754 H         1 UNK         0.0970 
    116 H116       16.3666  -33.0842  -41.7512 H         1 UNK         0.0612 
    117 H117       15.4690  -32.5307  -43.1347 H         1 UNK         0.0612 
@<TRIPOS>BOND
     1    1    2 1    
     2    1   62 1    
     3    1   63 1    
     4    1   64 1    
     5    2    3 2    
     6    2    4 am   BACKBONE|DICT|INTERRES
     7    4    5 1    
     8    4   65 1    
     9    5    6 1    
    10    5   25 1    
    11    5   66 1    
    12    6    7 1    
    13    6   67 1    
    14    6   68 1    
    15    7    8 1    
    16    8    9 1    
    17    8   69 1    
    18    8   70 1    
    19    9   10 ar   
    20    9   14 ar   
    21   10   11 ar   
    22   10   71 1    
    23   11   12 ar   
    24   11   61 1    
    25   12   13 ar   
    26   12   72 1    
    27   13   14 ar   
    28   13   15 1    
    29   14   73 1    
    30   15   16 1    
    31   15   74 1    
    32   15   75 1    
    33   16   17 1    
    34   17   18 1    
    35   17   76 1    
    36   17   77 1    
    37   18   19 1    
    38   18   27 1    
    39   18   78 1    
    40   19   20 am   BACKBONE|DICT|INTERRES
    41   19   79 1    
    42   20   21 2    
    43   20   22 1    
    44   22   23 1    
    45   22   24 1    
    46   22   80 1    
    47   23   81 1    
    48   23   82 1    
    49   23   83 1    
    50   24   25 am   BACKBONE|DICT|INTERRES
    51   24   84 1    
    52   25   26 2    
    53   27   28 2    
    54   27   29 am   BACKBONE|DICT|INTERRES
    55   29   30 1    
    56   29   85 1    
    57   30   31 1    
    58   30   32 1    
    59   30   86 1    
    60   31   87 1    
    61   31   88 1    
    62   31   89 1    
    63   32   33 2    
    64   32   34 am   BACKBONE|DICT|INTERRES
    65   34   35 1    
    66   34   90 1    
    67   35   36 1    
    68   35   37 1    
    69   35   91 1    
    70   36   92 1    
    71   36   93 1    
    72   36   94 1    
    73   37   38 2    
    74   37   39 am   BACKBONE|DICT|INTERRES
    75   39   40 1    
    76   39   95 1    
    77   40   41 1    
    78   40   42 1    
    79   40   96 1    
    80   41   97 1    
    81   41   98 1    
    82   41   99 1    
    83   42   43 2    
    84   42   44 am   BACKBONE|DICT|INTERRES
    85   44   45 1    
    86   44  100 1    
    87   45   46 1    
    88   45   47 1    
    89   45  101 1    
    90   46  102 1    
    91   46  103 1    
    92   46  104 1    
    93   47   48 2    
    94   47   49 am   BACKBONE|DICT|INTERRES
    95   49   50 1    
    96   49  105 1    
    97   50   51 1    
    98   50   52 1    
    99   50  106 1    
   100   51  107 1    
   101   51  108 1    
   102   51  109 1    
   103   52   53 2    
   104   52   54 am   BACKBONE|DICT|INTERRES
   105   54   55 1    
   106   54  110 1    
   107   55   56 1    
   108   55   59 1    
   109   55  111 1    
   110   56   57 am   BACKBONE|DICT|INTERRES
   111   56   58 2    
   112   57  112 1    
   113   57  113 1    
   114   59   60 1    
   115   59  114 1    
   116   59  115 1    
   117   60   61 1    
   118   61  116 1    
   119   61  117 1    
@<TRIPOS>SUBSTRUCTURE
     1 UNK         1 GROUP             0       ****    0 ROOT    
