@<TRIPOS>MOLECULE
3R8
117   119    1
SMALL
USER_CHARGES


@<TRIPOS>ATOM
      1 CA         15.8344  -22.3852  -43.6695 C.3       0 UNK        -0.2013 
      2 C          16.6243  -23.5990  -44.1341 C.2       0 UNK         0.4866 
      3 O          16.8912  -23.7381  -45.3285 O.2       0 UNK        -0.5176 
      4 N          17.0163  -24.4759  -43.2012 N.am      1 UNK        -0.4884 
      5 CA         17.7561  -25.7225  -43.4446 C.3       1 UNK         0.0853 
      6 C6         17.5313  -26.7499  -42.3027 C.3       10 UNK        -0.0849 
      7 S7         15.7914  -27.3029  -42.2359 S.3       10 UNK        -0.2776 
      8 C8         15.9475  -29.1229  -42.1295 C.3       10 UNK         0.0316 
      9 C9         16.7383  -29.7683  -43.2677 C.ar      10 UNK        -0.0863 
     10 C10        17.6004  -30.8330  -42.9866 C.ar      10 UNK        -0.1009 
     11 C11        18.3509  -31.4398  -44.0009 C.ar      10 UNK        -0.0712 
     12 C12        18.2308  -30.9695  -45.3115 C.ar      10 UNK        -0.0894 
     13 C13        17.3650  -29.9154  -45.6100 C.ar      10 UNK        -0.0745 
     14 C14        16.6127  -29.3273  -44.5892 C.ar      10 UNK        -0.0972 
     15 C15        17.2361  -29.4058  -47.0343 C.3       10 UNK         0.0209 
     16 S16        18.1813  -27.8718  -47.2711 S.3       10 UNK        -0.2568 
     17 C17        19.8696  -28.4772  -47.6572 C.3       10 UNK        -0.0983 
     18 CA         21.0223  -27.8493  -46.8143 C.3       3 UNK         0.0876 
     19 N          20.6916  -26.5040  -46.3442 N.am      3 UNK        -0.4424 
     20 C          21.5403  -25.5689  -45.9036 C.2       2 UNK         0.4918 
     21 O          22.7640  -25.6639  -45.9752 O.2       2 UNK        -0.4875 
     22 CA         20.9013  -24.3378  -45.2294 C.3       2 UNK         0.0481 
     23 CB         20.8434  -23.1559  -46.2087 C.3       2 UNK        -0.1831 
     24 N          19.5520  -24.6022  -44.7080 N.am      2 UNK        -0.4498 
     25 C          19.2546  -25.4625  -43.7235 C.2       1 UNK         0.5027 
     26 O          20.1195  -26.0677  -43.0879 O.2       1 UNK        -0.4969 
     27 C          21.5355  -28.7825  -45.6896 C.2       3 UNK         0.5005 
     28 O          22.1789  -29.7838  -46.0089 O.2       3 UNK        -0.5279 
     29 N          21.2946  -28.4384  -44.4145 N.am      4 UNK        -0.4463 
     30 CA         21.9258  -29.0654  -43.2499 C.3       4 UNK         0.0283 
     31 CB         20.8900  -29.2659  -42.1313 C.3       4 UNK        -0.1875 
     32 C          23.0828  -28.1897  -42.7491 C.2       4 UNK         0.4949 
     33 O          24.1965  -28.6875  -42.5823 O.2       4 UNK        -0.5039 
     34 N          22.7962  -26.8960  -42.5315 N.am      5 UNK        -0.4663 
     35 CA         23.6896  -25.8751  -41.9770 C.3       5 UNK         0.0242 
     36 CB         24.7987  -25.5060  -42.9896 C.3       5 UNK        -0.1982 
     37 C          24.2070  -26.2849  -40.5840 C.2       5 UNK         0.5017 
     38 O          23.4018  -26.4035  -39.6592 O.2       5 UNK        -0.5012 
     39 N          25.5236  -26.4901  -40.4559 N.am      6 UNK        -0.4439 
     40 CA         26.1878  -26.9060  -39.2197 C.3       6 UNK         0.0297 
     41 CB         27.6609  -26.4674  -39.2774 C.3       6 UNK        -0.2006 
     42 C          26.0912  -28.4180  -38.9401 C.2       6 UNK         0.4892 
     43 O          26.3521  -28.8222  -37.8056 O.2       6 UNK        -0.5089 
     44 N          25.7580  -29.2303  -39.9536 N.am      7 UNK        -0.4243 
     45 CA         25.6502  -30.6849  -39.8301 C.3       7 UNK         0.0196 
     46 CB         25.9436  -31.3315  -41.1943 C.3       7 UNK        -0.2007 
     47 C          24.2577  -31.0974  -39.3328 C.2       7 UNK         0.5020 
     48 O          23.2764  -30.3945  -39.5815 O.2       7 UNK        -0.5147 
     49 N          24.1897  -32.2600  -38.6747 N.am      8 UNK        -0.4734 
     50 CA         22.9339  -32.9192  -38.3147 C.3       8 UNK         0.0238 
     51 CB         23.1761  -33.8606  -37.1233 C.3       8 UNK        -0.1912 
     52 C          22.3962  -33.7026  -39.5222 C.2       8 UNK         0.5038 
     53 O          23.1816  -34.3552  -40.2154 O.2       8 UNK        -0.5046 
     54 N          21.0788  -33.6371  -39.7425 N.am      9 UNK        -0.4200 
     55 CA         20.3826  -34.3826  -40.7997 C.3       9 UNK         0.0839 
     56 C          20.2373  -35.8899  -40.4512 C.2       9 UNK         0.5513 
     57 N          20.2871  -36.7666  -41.4442 N.am      9 UNK        -0.7519 
     58 O          20.0487  -36.2651  -39.2955 O.2       9 UNK        -0.4960 
     59 C59        19.0189  -33.7219  -41.1365 C.3       10 UNK        -0.0876 
     60 S60        18.5356  -33.9947  -42.8762 S.3       10 UNK        -0.2414 
     61 C61        19.3275  -32.5701  -43.6920 C.3       10 UNK         0.0169 
     62 H62        16.3668  -21.4701  -43.9272 H         1 UNK         0.0903 
     63 H63        14.8609  -22.3626  -44.1586 H         1 UNK         0.0903 
     64 H64        15.6721  -22.3919  -42.5918 H         1 UNK         0.0903 
     65 H65        16.7782  -24.3015  -42.2348 H         1 UNK         0.3096 
     66 H66        17.3661  -26.1728  -44.3610 H         1 UNK         0.1121 
     67 H67        17.8084  -26.3249  -41.3364 H         1 UNK         0.0849 
     68 H68        18.1696  -27.6242  -42.4398 H         1 UNK         0.0849 
     69 H69        16.4019  -29.3659  -41.1675 H         1 UNK         0.0865 
     70 H70        14.9475  -29.5580  -42.1135 H         1 UNK         0.0865 
     71 H71        17.6942  -31.1834  -41.9696 H         1 UNK         0.1346 
     72 H72        18.8166  -31.4196  -46.1012 H         1 UNK         0.1412 
     73 H73        15.9412  -28.5131  -44.8251 H         1 UNK         0.1426 
     74 H74        16.1857  -29.2053  -47.2504 H         1 UNK         0.0716 
     75 H75        17.5544  -30.1596  -47.7561 H         1 UNK         0.0716 
     76 H76        19.8925  -29.5679  -47.6180 H         1 UNK         0.0695 
     77 H77        20.0402  -28.2350  -48.7072 H         1 UNK         0.0695 
     78 H78        21.8774  -27.7367  -47.4852 H         1 UNK         0.0983 
     79 H79        19.7011  -26.3125  -46.2926 H         1 UNK         0.3095 
     80 H80        21.5378  -24.0574  -44.3876 H         1 UNK         0.0454 
     81 H81        20.4639  -22.2567  -45.7232 H         1 UNK         0.0851 
     82 H82        21.8361  -22.9196  -46.5946 H         1 UNK         0.0851 
     83 H83        20.2029  -23.3712  -47.0649 H         1 UNK         0.0851 
     84 H84        18.7713  -24.1425  -45.1706 H         1 UNK         0.2976 
     85 H85        20.7779  -27.5871  -44.2299 H         1 UNK         0.3116 
     86 H86        22.3262  -30.0462  -43.5147 H         1 UNK         0.0646 
     87 H87        20.5201  -28.3231  -41.7288 H         1 UNK         0.0847 
     88 H88        21.3221  -29.8237  -41.3004 H         1 UNK         0.0847 
     89 H89        20.0332  -29.8291  -42.4862 H         1 UNK         0.0847 
     90 H90        21.8328  -26.5958  -42.6641 H         1 UNK         0.3040 
     91 H91        23.0790  -24.9843  -41.8200 H         1 UNK         0.1015 
     92 H92        24.3662  -25.1236  -43.9135 H         1 UNK         0.0786 
     93 H93        25.4252  -26.3586  -43.2534 H         1 UNK         0.0786 
     94 H94        25.4464  -24.7198  -42.5994 H         1 UNK         0.0786 
     95 H95        26.1036  -26.3898  -41.2767 H         1 UNK         0.3172 
     96 H96        25.7168  -26.3899  -38.3802 H         1 UNK         0.0595 
     97 H97        27.7504  -25.3884  -39.4049 H         1 UNK         0.0839 
     98 H98        28.1953  -26.9495  -40.0971 H         1 UNK         0.0839 
     99 H99        28.1818  -26.7256  -38.3542 H         1 UNK         0.0839 
    100 H100       25.4494  -28.8302  -40.8328 H         1 UNK         0.2998 
    101 H101       26.3976  -31.0402  -39.1169 H         1 UNK         0.0822 
    102 H102       25.1995  -31.0548  -41.9419 H         1 UNK         0.0787 
    103 H103       26.9236  -31.0385  -41.5713 H         1 UNK         0.0787 
    104 H104       25.9364  -32.4199  -41.1206 H         1 UNK         0.0787 
    105 H105       25.0318  -32.8060  -38.5592 H         1 UNK         0.3055 
    106 H106       22.2022  -32.1639  -38.0171 H         1 UNK         0.1106 
    107 H107       23.5480  -33.3153  -36.2556 H         1 UNK         0.0828 
    108 H108       22.2509  -34.3545  -36.8228 H         1 UNK         0.0828 
    109 H109       23.8979  -34.6422  -37.3639 H         1 UNK         0.0828 
    110 H110       20.4955  -33.1229  -39.0993 H         1 UNK         0.2931 
    111 H111       21.0160  -34.3094  -41.6870 H         1 UNK         0.0412 
    112 H112       20.1826  -37.7486  -41.2411 H         1 UNK         0.3472 
    113 H113       20.4101  -36.4606  -42.3973 H         1 UNK         0.3472 
    114 H114       19.0679  -32.6471  -40.9612 H         1 UNK         0.0970 
    115 H115       18.2252  -34.0870  -40.4815 H         1 UNK         0.0970 
    116 H116       20.1464  -32.1892  -43.0808 H         1 UNK         0.0612 
    117 H117       19.7885  -32.9323  -44.6121 H         1 UNK         0.0612 
@<TRIPOS>BOND
     1    1    2 1    
     2    1   62 1    
     3    1   63 1    
     4    1   64 1    
     5    2    3 2    
     6    2    4 am   BACKBONE|DICT|INTERRES
     7    4    5 1    
     8    4   65 1    
     9    5    6 1    
    10    5   25 1    
    11    5   66 1    
    12    6    7 1    
    13    6   67 1    
    14    6   68 1    
    15    7    8 1    
    16    8    9 1    
    17    8   69 1    
    18    8   70 1    
    19    9   10 ar   
    20    9   14 ar   
    21   10   11 ar   
    22   10   71 1    
    23   11   12 ar   
    24   11   61 1    
    25   12   13 ar   
    26   12   72 1    
    27   13   14 ar   
    28   13   15 1    
    29   14   73 1    
    30   15   16 1    
    31   15   74 1    
    32   15   75 1    
    33   16   17 1    
    34   17   18 1    
    35   17   76 1    
    36   17   77 1    
    37   18   19 1    
    38   18   27 1    
    39   18   78 1    
    40   19   20 am   BACKBONE|DICT|INTERRES
    41   19   79 1    
    42   20   21 2    
    43   20   22 1    
    44   22   23 1    
    45   22   24 1    
    46   22   80 1    
    47   23   81 1    
    48   23   82 1    
    49   23   83 1    
    50   24   25 am   BACKBONE|DICT|INTERRES
    51   24   84 1    
    52   25   26 2    
    53   27   28 2    
    54   27   29 am   BACKBONE|DICT|INTERRES
    55   29   30 1    
    56   29   85 1    
    57   30   31 1    
    58   30   32 1    
    59   30   86 1    
    60   31   87 1    
    61   31   88 1    
    62   31   89 1    
    63   32   33 2    
    64   32   34 am   BACKBONE|DICT|INTERRES
    65   34   35 1    
    66   34   90 1    
    67   35   36 1    
    68   35   37 1    
    69   35   91 1    
    70   36   92 1    
    71   36   93 1    
    72   36   94 1    
    73   37   38 2    
    74   37   39 am   BACKBONE|DICT|INTERRES
    75   39   40 1    
    76   39   95 1    
    77   40   41 1    
    78   40   42 1    
    79   40   96 1    
    80   41   97 1    
    81   41   98 1    
    82   41   99 1    
    83   42   43 2    
    84   42   44 am   BACKBONE|DICT|INTERRES
    85   44   45 1    
    86   44  100 1    
    87   45   46 1    
    88   45   47 1    
    89   45  101 1    
    90   46  102 1    
    91   46  103 1    
    92   46  104 1    
    93   47   48 2    
    94   47   49 am   BACKBONE|DICT|INTERRES
    95   49   50 1    
    96   49  105 1    
    97   50   51 1    
    98   50   52 1    
    99   50  106 1    
   100   51  107 1    
   101   51  108 1    
   102   51  109 1    
   103   52   53 2    
   104   52   54 am   BACKBONE|DICT|INTERRES
   105   54   55 1    
   106   54  110 1    
   107   55   56 1    
   108   55   59 1    
   109   55  111 1    
   110   56   57 am   BACKBONE|DICT|INTERRES
   111   56   58 2    
   112   57  112 1    
   113   57  113 1    
   114   59   60 1    
   115   59  114 1    
   116   59  115 1    
   117   60   61 1    
   118   61  116 1    
   119   61  117 1    
@<TRIPOS>SUBSTRUCTURE
     1 UNK         1 GROUP             0       ****    0 ROOT    
