@<TRIPOS>MOLECULE
3R8
117   119    1
SMALL
USER_CHARGES


@<TRIPOS>ATOM
      1 CA         14.7102  -22.0356  -46.8941 C.3       0 UNK        -0.2013 
      2 C          15.4192  -23.3311  -47.2595 C.2       0 UNK         0.4866 
      3 O          15.2437  -23.8341  -48.3696 O.2       0 UNK        -0.5176 
      4 N          16.2193  -23.8740  -46.3373 N.am      1 UNK        -0.4884 
      5 CA         17.0119  -25.0899  -46.5073 C.3       1 UNK         0.0853 
      6 C6         16.1578  -26.3720  -46.3221 C.3       10 UNK        -0.0849 
      7 S7         16.8989  -27.8254  -47.1375 S.3       10 UNK        -0.2776 
      8 C8         15.8403  -29.1649  -46.5066 C.3       10 UNK         0.0316 
      9 C9         16.2237  -29.5806  -45.0930 C.ar      10 UNK        -0.0863 
     10 C10        17.2737  -30.4815  -44.8901 C.ar      10 UNK        -0.1009 
     11 C11        17.6086  -30.9019  -43.5996 C.ar      10 UNK        -0.0712 
     12 C12        16.8777  -30.4246  -42.5092 C.ar      10 UNK        -0.0894 
     13 C13        15.8609  -29.4831  -42.6938 C.ar      10 UNK        -0.0745 
     14 C14        15.5256  -29.0788  -43.9900 C.ar      10 UNK        -0.0972 
     15 C15        15.1449  -28.8813  -41.4915 C.3       10 UNK         0.0209 
     16 S16        16.2951  -28.0660  -40.3300 S.3       10 UNK        -0.2568 
     17 C17        17.1416  -26.8480  -41.3972 C.3       10 UNK        -0.0983 
     18 CA         18.5675  -27.3065  -41.8016 C.3       3 UNK         0.0876 
     19 N          19.0622  -26.5626  -42.9575 N.am      3 UNK        -0.4424 
     20 C          20.1601  -26.8509  -43.6676 C.2       2 UNK         0.4918 
     21 O          20.9360  -27.7655  -43.3818 O.2       2 UNK        -0.4875 
     22 CA         20.4189  -25.9801  -44.9171 C.3       2 UNK         0.0481 
     23 CB         21.5592  -26.5339  -45.7917 C.3       2 UNK        -0.1831 
     24 N          19.2242  -25.8325  -45.7559 N.am      2 UNK        -0.4498 
     25 C          18.1829  -25.0277  -45.5119 C.2       1 UNK         0.5027 
     26 O          18.1094  -24.2904  -44.5233 O.2       1 UNK        -0.4969 
     27 C          19.5727  -27.2392  -40.6357 C.2       3 UNK         0.5005 
     28 O          19.7400  -26.1735  -40.0375 O.2       3 UNK        -0.5279 
     29 N          20.2386  -28.3737  -40.3703 N.am      4 UNK        -0.4463 
     30 CA         21.2833  -28.5755  -39.3601 C.3       4 UNK         0.0283 
     31 CB         20.6966  -28.4662  -37.9369 C.3       4 UNK        -0.1875 
     32 C          22.5220  -27.6797  -39.5691 C.2       4 UNK         0.4949 
     33 O          23.1579  -27.2762  -38.5942 O.2       4 UNK        -0.5039 
     34 N          22.8610  -27.3970  -40.8370 N.am      5 UNK        -0.4663 
     35 CA         24.0323  -26.5996  -41.2288 C.3       5 UNK         0.0242 
     36 CB         23.9060  -26.2253  -42.7128 C.3       5 UNK        -0.1982 
     37 C          25.3820  -27.2977  -40.9672 C.2       5 UNK         0.5017 
     38 O          26.4160  -26.6292  -40.9411 O.2       5 UNK        -0.5012 
     39 N          25.3446  -28.6185  -40.7781 N.am      6 UNK        -0.4439 
     40 CA         26.4512  -29.4946  -40.4196 C.3       6 UNK         0.0297 
     41 CB         27.2137  -29.9144  -41.6902 C.3       6 UNK        -0.2006 
     42 C          25.8521  -30.7084  -39.6991 C.2       6 UNK         0.4892 
     43 O          24.6291  -30.8797  -39.7116 O.2       6 UNK        -0.5089 
     44 N          26.7132  -31.5605  -39.1272 N.am      7 UNK        -0.4243 
     45 CA         26.3247  -32.8110  -38.4579 C.3       7 UNK         0.0196 
     46 CB         27.5643  -33.4480  -37.8094 C.3       7 UNK        -0.2007 
     47 C          25.6219  -33.8226  -39.3856 C.2       7 UNK         0.5020 
     48 O          24.7829  -34.5925  -38.9188 O.2       7 UNK        -0.5147 
     49 N          25.9552  -33.7785  -40.6820 N.am      8 UNK        -0.4734 
     50 CA         25.3164  -34.5540  -41.7494 C.3       8 UNK         0.0238 
     51 CB         26.4022  -34.9869  -42.7515 C.3       8 UNK        -0.1912 
     52 C          24.1893  -33.7757  -42.4612 C.2       8 UNK         0.5038 
     53 O          23.6777  -34.2669  -43.4687 O.2       8 UNK        -0.5046 
     54 N          23.8303  -32.5879  -41.9493 N.am      9 UNK        -0.4200 
     55 CA         22.9188  -31.6030  -42.5531 C.3       9 UNK         0.0839 
     56 C          23.5351  -30.8714  -43.7842 C.2       9 UNK         0.5513 
     57 N          22.8908  -29.8247  -44.2794 N.am      9 UNK        -0.7519 
     58 O          24.6031  -31.2168  -44.2857 O.2       9 UNK        -0.4960 
     59 C59        21.5025  -32.1908  -42.8215 C.3       10 UNK        -0.0876 
     60 S60        20.1794  -30.9566  -42.6288 S.3       10 UNK        -0.2414 
     61 C61        18.7791  -31.8445  -43.3755 C.3       10 UNK         0.0169 
     62 H62        13.6305  -22.1684  -46.9565 H         1 UNK         0.0903 
     63 H63        14.9534  -21.7088  -45.8832 H         1 UNK         0.0903 
     64 H64        14.9967  -21.2430  -47.5849 H         1 UNK         0.0903 
     65 H65        16.3818  -23.4099  -45.4504 H         1 UNK         0.3096 
     66 H66        17.4342  -25.0712  -47.5151 H         1 UNK         0.1121 
     67 H67        15.9851  -26.5779  -45.2645 H         1 UNK         0.0849 
     68 H68        15.1696  -26.2343  -46.7639 H         1 UNK         0.0849 
     69 H69        14.7932  -28.8611  -46.5508 H         1 UNK         0.0865 
     70 H70        15.9305  -30.0245  -47.1726 H         1 UNK         0.0865 
     71 H71        17.8326  -30.8512  -45.7392 H         1 UNK         0.1346 
     72 H72        17.1411  -30.7410  -41.5089 H         1 UNK         0.1412 
     73 H73        14.7255  -28.3671  -44.1409 H         1 UNK         0.1426 
     74 H74        14.6093  -29.6715  -40.9638 H         1 UNK         0.0716 
     75 H75        14.3932  -28.1562  -41.8074 H         1 UNK         0.0716 
     76 H76        17.1681  -25.8849  -40.8840 H         1 UNK         0.0695 
     77 H77        16.5312  -26.6890  -42.2877 H         1 UNK         0.0695 
     78 H78        18.5031  -28.3427  -42.1329 H         1 UNK         0.0983 
     79 H79        18.5233  -25.7532  -43.2445 H         1 UNK         0.3095 
     80 H80        20.7205  -24.9926  -44.5623 H         1 UNK         0.0454 
     81 H81        21.3357  -27.5376  -46.1556 H         1 UNK         0.0851 
     82 H82        22.4932  -26.5917  -45.2343 H         1 UNK         0.0851 
     83 H83        21.7438  -25.8960  -46.6559 H         1 UNK         0.0851 
     84 H84        19.1607  -26.4582  -46.5477 H         1 UNK         0.2976 
     85 H85        20.0590  -29.1722  -40.9674 H         1 UNK         0.3116 
     86 H86        21.6338  -29.6007  -39.4911 H         1 UNK         0.0646 
     87 H87        20.3815  -27.4481  -37.7061 H         1 UNK         0.0847 
     88 H88        21.4331  -28.7558  -37.1864 H         1 UNK         0.0847 
     89 H89        19.8344  -29.1210  -37.8111 H         1 UNK         0.0847 
     90 H90        22.2635  -27.7275  -41.5865 H         1 UNK         0.3040 
     91 H91        24.0276  -25.6795  -40.6402 H         1 UNK         0.1015 
     92 H92        24.7481  -25.6122  -43.0371 H         1 UNK         0.0786 
     93 H93        22.9987  -25.6514  -42.9003 H         1 UNK         0.0786 
     94 H94        23.8848  -27.1129  -43.3462 H         1 UNK         0.0786 
     95 H95        24.4411  -29.0736  -40.7375 H         1 UNK         0.3172 
     96 H96        27.1210  -28.9758  -39.7309 H         1 UNK         0.0595 
     97 H97        28.0651  -30.5524  -41.4515 H         1 UNK         0.0839 
     98 H98        27.6048  -29.0468  -42.2218 H         1 UNK         0.0839 
     99 H99        26.5737  -30.4650  -42.3812 H         1 UNK         0.0839 
    100 H100       27.7010  -31.3500  -39.1570 H         1 UNK         0.2998 
    101 H101       25.6176  -32.5544  -37.6659 H         1 UNK         0.0822 
    102 H102       27.3006  -34.3666  -37.2831 H         1 UNK         0.0787 
    103 H103       28.3224  -33.7038  -38.5509 H         1 UNK         0.0787 
    104 H104       28.0193  -32.7786  -37.0790 H         1 UNK         0.0787 
    105 H105       26.6617  -33.1159  -40.9680 H         1 UNK         0.3055 
    106 H106       24.8630  -35.4553  -41.3303 H         1 UNK         0.1106 
    107 H107       25.9866  -35.6284  -43.5298 H         1 UNK         0.0828 
    108 H108       26.8592  -34.1292  -43.2468 H         1 UNK         0.0828 
    109 H109       27.1935  -35.5531  -42.2598 H         1 UNK         0.0828 
    110 H110       24.2899  -32.2676  -41.1047 H         1 UNK         0.2931 
    111 H111       22.8262  -30.8390  -41.7800 H         1 UNK         0.0412 
    112 H112       22.0250  -29.4877  -43.8740 H         1 UNK         0.3472 
    113 H113       23.2862  -29.3464  -45.0718 H         1 UNK         0.3472 
    114 H114       21.4513  -32.6435  -43.8135 H         1 UNK         0.0970 
    115 H115       21.2852  -32.9936  -42.1152 H         1 UNK         0.0970 
    116 H116       18.4773  -32.6644  -42.7221 H         1 UNK         0.0612 
    117 H117       19.0922  -32.2929  -44.3196 H         1 UNK         0.0612 
@<TRIPOS>BOND
     1    1    2 1    
     2    1   62 1    
     3    1   63 1    
     4    1   64 1    
     5    2    3 2    
     6    2    4 am   BACKBONE|DICT|INTERRES
     7    4    5 1    
     8    4   65 1    
     9    5    6 1    
    10    5   25 1    
    11    5   66 1    
    12    6    7 1    
    13    6   67 1    
    14    6   68 1    
    15    7    8 1    
    16    8    9 1    
    17    8   69 1    
    18    8   70 1    
    19    9   10 ar   
    20    9   14 ar   
    21   10   11 ar   
    22   10   71 1    
    23   11   12 ar   
    24   11   61 1    
    25   12   13 ar   
    26   12   72 1    
    27   13   14 ar   
    28   13   15 1    
    29   14   73 1    
    30   15   16 1    
    31   15   74 1    
    32   15   75 1    
    33   16   17 1    
    34   17   18 1    
    35   17   76 1    
    36   17   77 1    
    37   18   19 1    
    38   18   27 1    
    39   18   78 1    
    40   19   20 am   BACKBONE|DICT|INTERRES
    41   19   79 1    
    42   20   21 2    
    43   20   22 1    
    44   22   23 1    
    45   22   24 1    
    46   22   80 1    
    47   23   81 1    
    48   23   82 1    
    49   23   83 1    
    50   24   25 am   BACKBONE|DICT|INTERRES
    51   24   84 1    
    52   25   26 2    
    53   27   28 2    
    54   27   29 am   BACKBONE|DICT|INTERRES
    55   29   30 1    
    56   29   85 1    
    57   30   31 1    
    58   30   32 1    
    59   30   86 1    
    60   31   87 1    
    61   31   88 1    
    62   31   89 1    
    63   32   33 2    
    64   32   34 am   BACKBONE|DICT|INTERRES
    65   34   35 1    
    66   34   90 1    
    67   35   36 1    
    68   35   37 1    
    69   35   91 1    
    70   36   92 1    
    71   36   93 1    
    72   36   94 1    
    73   37   38 2    
    74   37   39 am   BACKBONE|DICT|INTERRES
    75   39   40 1    
    76   39   95 1    
    77   40   41 1    
    78   40   42 1    
    79   40   96 1    
    80   41   97 1    
    81   41   98 1    
    82   41   99 1    
    83   42   43 2    
    84   42   44 am   BACKBONE|DICT|INTERRES
    85   44   45 1    
    86   44  100 1    
    87   45   46 1    
    88   45   47 1    
    89   45  101 1    
    90   46  102 1    
    91   46  103 1    
    92   46  104 1    
    93   47   48 2    
    94   47   49 am   BACKBONE|DICT|INTERRES
    95   49   50 1    
    96   49  105 1    
    97   50   51 1    
    98   50   52 1    
    99   50  106 1    
   100   51  107 1    
   101   51  108 1    
   102   51  109 1    
   103   52   53 2    
   104   52   54 am   BACKBONE|DICT|INTERRES
   105   54   55 1    
   106   54  110 1    
   107   55   56 1    
   108   55   59 1    
   109   55  111 1    
   110   56   57 am   BACKBONE|DICT|INTERRES
   111   56   58 2    
   112   57  112 1    
   113   57  113 1    
   114   59   60 1    
   115   59  114 1    
   116   59  115 1    
   117   60   61 1    
   118   61  116 1    
   119   61  117 1    
@<TRIPOS>SUBSTRUCTURE
     1 UNK         1 GROUP             0       ****    0 ROOT    
