@<TRIPOS>MOLECULE
3R8
117   119    1
SMALL
USER_CHARGES


@<TRIPOS>ATOM
      1 CA         15.5850  -23.3966  -40.0524 C.3       0 UNK        -0.2013 
      2 C          16.2130  -23.9211  -41.3351 C.2       0 UNK         0.4866 
      3 O          17.3355  -23.5396  -41.6679 O.2       0 UNK        -0.5176 
      4 N          15.4958  -24.7866  -42.0626 N.am      1 UNK        -0.4884 
      5 CA         15.9726  -25.4447  -43.2816 C.3       1 UNK         0.0853 
      6 C6         14.7919  -26.0344  -44.0903 C.3       10 UNK        -0.0849 
      7 S7         15.2471  -26.4750  -45.8045 S.3       10 UNK        -0.2776 
      8 C8         14.8063  -28.2431  -45.8919 C.3       10 UNK         0.0316 
      9 C9         16.0306  -29.1487  -45.8706 C.ar      10 UNK        -0.0863 
     10 C10        16.4273  -29.7978  -44.6961 C.ar      10 UNK        -0.1009 
     11 C11        17.5142  -30.6817  -44.7040 C.ar      10 UNK        -0.0712 
     12 C12        18.1964  -30.9193  -45.9010 C.ar      10 UNK        -0.0894 
     13 C13        17.8323  -30.2483  -47.0701 C.ar      10 UNK        -0.0745 
     14 C14        16.7456  -29.3704  -47.0507 C.ar      10 UNK        -0.0972 
     15 C15        18.6097  -30.4672  -48.3569 C.3       10 UNK         0.0209 
     16 S16        19.8405  -29.1523  -48.6179 S.3       10 UNK        -0.2568 
     17 C17        21.1781  -29.6306  -47.4733 C.3       10 UNK        -0.0983 
     18 CA         21.4567  -28.5450  -46.4042 C.3       3 UNK         0.0876 
     19 N          20.3802  -28.4321  -45.4122 N.am      3 UNK        -0.4424 
     20 C          20.1693  -27.3433  -44.6631 C.2       2 UNK         0.4918 
     21 O          20.7236  -26.2582  -44.8475 O.2       2 UNK        -0.4875 
     22 CA         19.2129  -27.4994  -43.4799 C.3       2 UNK         0.0481 
     23 CB         19.9750  -27.4146  -42.1422 C.3       2 UNK        -0.1831 
     24 N          18.1770  -26.4798  -43.5671 N.am      2 UNK        -0.4498 
     25 C          17.0050  -26.5307  -42.9253 C.2       1 UNK         0.5027 
     26 O          16.7032  -27.3992  -42.1020 O.2       1 UNK        -0.4969 
     27 C          22.8144  -28.8014  -45.7149 C.2       3 UNK         0.5005 
     28 O          23.8487  -28.4057  -46.2551 O.2       3 UNK        -0.5279 
     29 N          22.7957  -29.4490  -44.5392 N.am      4 UNK        -0.4463 
     30 CA         23.9651  -29.6763  -43.6942 C.3       4 UNK         0.0283 
     31 CB         23.6468  -30.7807  -42.6713 C.3       4 UNK        -0.1875 
     32 C          24.3620  -28.3734  -42.9862 C.2       4 UNK         0.4949 
     33 O          23.6445  -27.9342  -42.0867 O.2       4 UNK        -0.5039 
     34 N          25.5008  -27.7897  -43.3819 N.am      5 UNK        -0.4663 
     35 CA         26.0387  -26.5405  -42.8232 C.3       5 UNK         0.0242 
     36 CB         27.2464  -26.0893  -43.6601 C.3       5 UNK        -0.1982 
     37 C          26.4199  -26.6355  -41.3336 C.2       5 UNK         0.5017 
     38 O          26.3680  -25.6283  -40.6281 O.2       5 UNK        -0.5012 
     39 N          26.7632  -27.8491  -40.8814 N.am      6 UNK        -0.4439 
     40 CA         27.0305  -28.1905  -39.4818 C.3       6 UNK         0.0297 
     41 CB         27.9379  -29.4333  -39.4469 C.3       6 UNK        -0.2006 
     42 C          25.7522  -28.4304  -38.6504 C.2       6 UNK         0.4892 
     43 O          25.8714  -28.7173  -37.4594 O.2       6 UNK        -0.5089 
     44 N          24.5693  -28.3583  -39.2845 N.am      7 UNK        -0.4243 
     45 CA         23.2275  -28.6301  -38.7467 C.3       7 UNK         0.0196 
     46 CB         22.8972  -27.7257  -37.5411 C.3       7 UNK        -0.2007 
     47 C          22.9458  -30.1173  -38.4548 C.2       7 UNK         0.5020 
     48 O          21.8569  -30.4414  -37.9785 O.2       7 UNK        -0.5147 
     49 N          23.8835  -31.0131  -38.7937 N.am      8 UNK        -0.4734 
     50 CA         23.7617  -32.4717  -38.6914 C.3       8 UNK         0.0238 
     51 CB         25.1746  -33.0799  -38.6096 C.3       8 UNK        -0.1912 
     52 C          22.9345  -33.0449  -39.8600 C.2       8 UNK         0.5038 
     53 O          23.4300  -33.8707  -40.6285 O.2       8 UNK        -0.5046 
     54 N          21.7027  -32.5442  -39.9968 N.am      9 UNK        -0.4200 
     55 CA         20.7830  -32.8081  -41.1121 C.3       9 UNK         0.0839 
     56 C          20.0174  -34.1609  -41.0295 C.2       9 UNK         0.5513 
     57 N          20.1236  -34.9197  -39.9452 N.am      9 UNK        -0.7519 
     58 O          19.3190  -34.5327  -41.9684 O.2       9 UNK        -0.4960 
     59 C59        19.8291  -31.5972  -41.3218 C.3       10 UNK        -0.0876 
     60 S60        19.7186  -31.0861  -43.0663 S.3       10 UNK        -0.2414 
     61 C61        17.9539  -31.3772  -43.4214 C.3       10 UNK         0.0169 
     62 H62        16.2054  -23.6604  -39.1963 H         1 UNK         0.0903 
     63 H63        15.5026  -22.3107  -40.0918 H         1 UNK         0.0903 
     64 H64        14.5885  -23.8062  -39.8881 H         1 UNK         0.0903 
     65 H65        14.5942  -25.0910  -41.7230 H         1 UNK         0.3096 
     66 H66        16.4581  -24.6828  -43.8965 H         1 UNK         0.1121 
     67 H67        13.9933  -25.2941  -44.1626 H         1 UNK         0.0849 
     68 H68        14.3534  -26.8872  -43.5691 H         1 UNK         0.0849 
     69 H69        14.1136  -28.5165  -45.0952 H         1 UNK         0.0865 
     70 H70        14.2574  -28.4112  -46.8199 H         1 UNK         0.0865 
     71 H71        15.8866  -29.6171  -43.7767 H         1 UNK         0.1346 
     72 H72        19.0268  -31.6123  -45.9143 H         1 UNK         0.1412 
     73 H73        16.4537  -28.8598  -47.9587 H         1 UNK         0.1426 
     74 H74        17.9196  -30.4739  -49.2020 H         1 UNK         0.0716 
     75 H75        19.0995  -31.4422  -48.3586 H         1 UNK         0.0716 
     76 H76        22.0642  -29.7962  -48.0898 H         1 UNK         0.0695 
     77 H77        20.9585  -30.5910  -47.0049 H         1 UNK         0.0695 
     78 H78        21.5512  -27.5865  -46.9202 H         1 UNK         0.0983 
     79 H79        19.8259  -29.2606  -45.2447 H         1 UNK         0.3095 
     80 H80        18.7285  -28.4713  -43.5464 H         1 UNK         0.0454 
     81 H81        20.7824  -28.1472  -42.1050 H         1 UNK         0.0851 
     82 H82        19.3215  -27.6157  -41.2937 H         1 UNK         0.0851 
     83 H83        20.4229  -26.4310  -41.9962 H         1 UNK         0.0851 
     84 H84        18.3598  -25.7369  -44.2294 H         1 UNK         0.2976 
     85 H85        21.9033  -29.7198  -44.1531 H         1 UNK         0.3116 
     86 H86        24.7936  -30.0189  -44.3180 H         1 UNK         0.0646 
     87 H87        24.5059  -30.9801  -42.0297 H         1 UNK         0.0847 
     88 H88        22.8135  -30.5078  -42.0223 H         1 UNK         0.0847 
     89 H89        23.3906  -31.7182  -43.1650 H         1 UNK         0.0847 
     90 H90        26.0121  -28.1995  -44.1518 H         1 UNK         0.3040 
     91 H91        25.2596  -25.7790  -42.9062 H         1 UNK         0.1015 
     92 H92        27.6518  -25.1482  -43.2850 H         1 UNK         0.0786 
     93 H93        26.9691  -25.9269  -44.7019 H         1 UNK         0.0786 
     94 H94        28.0525  -26.8237  -43.6364 H         1 UNK         0.0786 
     95 H95        26.7910  -28.6060  -41.5494 H         1 UNK         0.3172 
     96 H96        27.5691  -27.3633  -39.0147 H         1 UNK         0.0595 
     97 H97        27.4512  -30.3053  -39.8853 H         1 UNK         0.0839 
     98 H98        28.2087  -29.6936  -38.4225 H         1 UNK         0.0839 
     99 H99        28.8687  -29.2605  -39.9877 H         1 UNK         0.0839 
    100 H100       24.5723  -28.1113  -40.2690 H         1 UNK         0.2998 
    101 H101       22.5383  -28.3590  -39.5482 H         1 UNK         0.0822 
    102 H102       21.8453  -27.8125  -37.2660 H         1 UNK         0.0787 
    103 H103       23.4816  -27.9897  -36.6595 H         1 UNK         0.0787 
    104 H104       23.0854  -26.6765  -37.7689 H         1 UNK         0.0787 
    105 H105       24.7399  -30.6608  -39.1935 H         1 UNK         0.3055 
    106 H106       23.2348  -32.7210  -37.7673 H         1 UNK         0.1106 
    107 H107       25.7259  -32.6886  -37.7543 H         1 UNK         0.0828 
    108 H108       25.1274  -34.1636  -38.4936 H         1 UNK         0.0828 
    109 H109       25.7580  -32.8732  -39.5078 H         1 UNK         0.0828 
    110 H110       21.3959  -31.8704  -39.3029 H         1 UNK         0.2931 
    111 H111       21.4133  -32.8995  -41.9989 H         1 UNK         0.0412 
    112 H112       20.6966  -34.6268  -39.1704 H         1 UNK         0.3472 
    113 H113       19.6264  -35.7958  -39.9042 H         1 UNK         0.3472 
    114 H114       20.1892  -30.7199  -40.7814 H         1 UNK         0.0970 
    115 H115       18.8363  -31.7887  -40.9099 H         1 UNK         0.0970 
    116 H116       17.7743  -32.4498  -43.5061 H         1 UNK         0.0612 
    117 H117       17.3576  -31.0207  -42.5801 H         1 UNK         0.0612 
@<TRIPOS>BOND
     1    1    2 1    
     2    1   62 1    
     3    1   63 1    
     4    1   64 1    
     5    2    3 2    
     6    2    4 am   BACKBONE|DICT|INTERRES
     7    4    5 1    
     8    4   65 1    
     9    5    6 1    
    10    5   25 1    
    11    5   66 1    
    12    6    7 1    
    13    6   67 1    
    14    6   68 1    
    15    7    8 1    
    16    8    9 1    
    17    8   69 1    
    18    8   70 1    
    19    9   10 ar   
    20    9   14 ar   
    21   10   11 ar   
    22   10   71 1    
    23   11   12 ar   
    24   11   61 1    
    25   12   13 ar   
    26   12   72 1    
    27   13   14 ar   
    28   13   15 1    
    29   14   73 1    
    30   15   16 1    
    31   15   74 1    
    32   15   75 1    
    33   16   17 1    
    34   17   18 1    
    35   17   76 1    
    36   17   77 1    
    37   18   19 1    
    38   18   27 1    
    39   18   78 1    
    40   19   20 am   BACKBONE|DICT|INTERRES
    41   19   79 1    
    42   20   21 2    
    43   20   22 1    
    44   22   23 1    
    45   22   24 1    
    46   22   80 1    
    47   23   81 1    
    48   23   82 1    
    49   23   83 1    
    50   24   25 am   BACKBONE|DICT|INTERRES
    51   24   84 1    
    52   25   26 2    
    53   27   28 2    
    54   27   29 am   BACKBONE|DICT|INTERRES
    55   29   30 1    
    56   29   85 1    
    57   30   31 1    
    58   30   32 1    
    59   30   86 1    
    60   31   87 1    
    61   31   88 1    
    62   31   89 1    
    63   32   33 2    
    64   32   34 am   BACKBONE|DICT|INTERRES
    65   34   35 1    
    66   34   90 1    
    67   35   36 1    
    68   35   37 1    
    69   35   91 1    
    70   36   92 1    
    71   36   93 1    
    72   36   94 1    
    73   37   38 2    
    74   37   39 am   BACKBONE|DICT|INTERRES
    75   39   40 1    
    76   39   95 1    
    77   40   41 1    
    78   40   42 1    
    79   40   96 1    
    80   41   97 1    
    81   41   98 1    
    82   41   99 1    
    83   42   43 2    
    84   42   44 am   BACKBONE|DICT|INTERRES
    85   44   45 1    
    86   44  100 1    
    87   45   46 1    
    88   45   47 1    
    89   45  101 1    
    90   46  102 1    
    91   46  103 1    
    92   46  104 1    
    93   47   48 2    
    94   47   49 am   BACKBONE|DICT|INTERRES
    95   49   50 1    
    96   49  105 1    
    97   50   51 1    
    98   50   52 1    
    99   50  106 1    
   100   51  107 1    
   101   51  108 1    
   102   51  109 1    
   103   52   53 2    
   104   52   54 am   BACKBONE|DICT|INTERRES
   105   54   55 1    
   106   54  110 1    
   107   55   56 1    
   108   55   59 1    
   109   55  111 1    
   110   56   57 am   BACKBONE|DICT|INTERRES
   111   56   58 2    
   112   57  112 1    
   113   57  113 1    
   114   59   60 1    
   115   59  114 1    
   116   59  115 1    
   117   60   61 1    
   118   61  116 1    
   119   61  117 1    
@<TRIPOS>SUBSTRUCTURE
     1 UNK         1 GROUP             0       ****    0 ROOT    
