@<TRIPOS>MOLECULE
3R8
117   119    1
SMALL
USER_CHARGES


@<TRIPOS>ATOM
      1 CA         15.1757  -23.8389  -47.5210 C.3       0 UNK        -0.2013 
      2 C          16.0625  -24.7130  -46.6469 C.2       0 UNK         0.4866 
      3 O          17.0675  -25.2414  -47.1243 O.2       0 UNK        -0.5176 
      4 N          15.7181  -24.8510  -45.3588 N.am      1 UNK        -0.4884 
      5 CA         16.4028  -25.6934  -44.3647 C.3       1 UNK         0.0853 
      6 C6         15.3962  -26.1465  -43.2694 C.3       10 UNK        -0.0849 
      7 S7         15.8571  -27.6395  -42.3194 S.3       10 UNK        -0.2776 
      8 C8         15.6604  -29.0009  -43.5151 C.3       10 UNK         0.0316 
      9 C9         17.0096  -29.5625  -43.9506 C.ar      10 UNK        -0.0863 
     10 C10        17.7250  -30.4187  -43.1042 C.ar      10 UNK        -0.1009 
     11 C11        18.9586  -30.9592  -43.5011 C.ar      10 UNK        -0.0712 
     12 C12        19.4739  -30.6105  -44.7543 C.ar      10 UNK        -0.0894 
     13 C13        18.7671  -29.7640  -45.6122 C.ar      10 UNK        -0.0745 
     14 C14        17.5306  -29.2536  -45.2091 C.ar      10 UNK        -0.0972 
     15 C15        19.3086  -29.4351  -46.9956 C.3       10 UNK         0.0209 
     16 S16        19.6280  -27.6546  -47.1999 S.3       10 UNK        -0.2568 
     17 C17        21.3519  -27.4703  -46.6219 C.3       10 UNK        -0.0983 
     18 CA         21.5210  -26.7351  -45.2630 C.3       3 UNK         0.0876 
     19 N          20.6244  -25.5824  -45.1372 N.am      3 UNK        -0.4424 
     20 C          20.7777  -24.5450  -44.3042 C.2       2 UNK         0.4918 
     21 O          21.7450  -24.4068  -43.5552 O.2       2 UNK        -0.4875 
     22 CA         19.6241  -23.5237  -44.2644 C.3       2 UNK         0.0481 
     23 CB         19.8929  -22.3708  -45.2439 C.3       2 UNK        -0.1831 
     24 N          18.3179  -24.1253  -44.5646 N.am      2 UNK        -0.4498 
     25 C          17.7128  -25.0640  -43.8151 C.2       1 UNK         0.5027 
     26 O          18.1868  -25.4516  -42.7415 O.2       1 UNK        -0.4969 
     27 C          21.4987  -27.6938  -44.0491 C.2       3 UNK         0.5005 
     28 O          22.2973  -28.6319  -44.0273 O.2       3 UNK        -0.5279 
     29 N          20.6528  -27.4344  -43.0364 N.am      4 UNK        -0.4463 
     30 CA         20.6770  -28.1383  -41.7503 C.3       4 UNK         0.0283 
     31 CB         19.4027  -27.8334  -40.9539 C.3       4 UNK        -0.1875 
     32 C          21.9190  -27.8269  -40.8980 C.2       4 UNK         0.4949 
     33 O          22.2263  -28.5982  -39.9895 O.2       4 UNK        -0.5039 
     34 N          22.6325  -26.7335  -41.2062 N.am      5 UNK        -0.4663 
     35 CA         23.9269  -26.3717  -40.6211 C.3       5 UNK         0.0242 
     36 CB         24.1613  -24.8649  -40.8363 C.3       5 UNK        -0.1982 
     37 C          25.0671  -27.2410  -41.1951 C.2       5 UNK         0.5017 
     38 O          26.0109  -26.7175  -41.7909 O.2       5 UNK        -0.5012 
     39 N          24.9409  -28.5594  -41.0247 N.am      6 UNK        -0.4439 
     40 CA         25.8370  -29.6020  -41.5080 C.3       6 UNK         0.0297 
     41 CB         25.5759  -29.8661  -43.0037 C.3       6 UNK        -0.2006 
     42 C          25.5831  -30.8658  -40.6796 C.2       6 UNK         0.4892 
     43 O          24.5264  -30.9868  -40.0529 O.2       6 UNK        -0.5089 
     44 N          26.5350  -31.8071  -40.7221 N.am      7 UNK        -0.4243 
     45 CA         26.5325  -33.0663  -39.9612 C.3       7 UNK         0.0196 
     46 CB         27.8444  -33.8179  -40.2425 C.3       7 UNK        -0.2007 
     47 C          25.3218  -33.9921  -40.2049 C.2       7 UNK         0.5020 
     48 O          25.0722  -34.8789  -39.3872 O.2       7 UNK        -0.5147 
     49 N          24.5901  -33.7732  -41.3066 N.am      8 UNK        -0.4734 
     50 CA         23.3455  -34.4669  -41.6423 C.3       8 UNK         0.0238 
     51 CB         22.9422  -34.1116  -43.0847 C.3       8 UNK        -0.1912 
     52 C          22.1852  -34.1716  -40.6718 C.2       8 UNK         0.5038 
     53 O          21.3533  -35.0587  -40.4720 O.2       8 UNK        -0.5046 
     54 N          22.1438  -32.9572  -40.1000 N.am      9 UNK        -0.4200 
     55 CA         21.1001  -32.5071  -39.1583 C.3       9 UNK         0.0839 
     56 C          21.6641  -31.8586  -37.8630 C.2       9 UNK         0.5513 
     57 N          22.9297  -31.4671  -37.7904 N.am      9 UNK        -0.7519 
     58 O          20.9346  -31.7314  -36.8813 O.2       9 UNK        -0.4960 
     59 C59        20.0505  -31.5806  -39.8350 C.3       10 UNK        -0.0876 
     60 S60        19.0146  -32.4503  -41.0624 S.3       10 UNK        -0.2414 
     61 C61        19.7677  -31.9435  -42.6487 C.3       10 UNK         0.0169 
     62 H62        14.8304  -24.4089  -48.3882 H         1 UNK         0.0903 
     63 H63        14.2965  -23.4764  -46.9790 H         1 UNK         0.0903 
     64 H64        15.7384  -22.9721  -47.8809 H         1 UNK         0.0903 
     65 H65        14.9050  -24.3537  -45.0156 H         1 UNK         0.3096 
     66 H66        16.7306  -26.5904  -44.8902 H         1 UNK         0.1121 
     67 H67        15.2199  -25.3330  -42.5620 H         1 UNK         0.0849 
     68 H68        14.4231  -26.3545  -43.7195 H         1 UNK         0.0849 
     69 H69        15.0763  -29.7954  -43.0477 H         1 UNK         0.0865 
     70 H70        15.0789  -28.6690  -44.3768 H         1 UNK         0.0865 
     71 H71        17.3031  -30.6595  -42.1391 H         1 UNK         0.1346 
     72 H72        20.4262  -31.0153  -45.0698 H         1 UNK         0.1412 
     73 H73        16.9763  -28.6183  -45.8862 H         1 UNK         0.1426 
     74 H74        18.5684  -29.7393  -47.7372 H         1 UNK         0.0716 
     75 H75        20.2112  -30.0062  -47.2188 H         1 UNK         0.0716 
     76 H76        21.8570  -28.4384  -46.6246 H         1 UNK         0.0695 
     77 H77        21.8642  -26.8888  -47.3904 H         1 UNK         0.0695 
     78 H78        22.5370  -26.3328  -45.2597 H         1 UNK         0.0983 
     79 H79        19.7953  -25.6217  -45.7149 H         1 UNK         0.3095 
     80 H80        19.5796  -23.1123  -43.2538 H         1 UNK         0.0454 
     81 H81        20.8476  -21.8893  -45.0262 H         1 UNK         0.0851 
     82 H82        19.9313  -22.7174  -46.2777 H         1 UNK         0.0851 
     83 H83        19.1221  -21.6028  -45.1744 H         1 UNK         0.0851 
     84 H84        17.8945  -23.8923  -45.4584 H         1 UNK         0.2976 
     85 H85        20.0015  -26.6627  -43.1159 H         1 UNK         0.3116 
     86 H86        20.6942  -29.2055  -41.9679 H         1 UNK         0.0646 
     87 H87        19.3810  -28.3908  -40.0164 H         1 UNK         0.0847 
     88 H88        18.5177  -28.1193  -41.5173 H         1 UNK         0.0847 
     89 H89        19.3212  -26.7744  -40.7063 H         1 UNK         0.0847 
     90 H90        22.3128  -26.1574  -41.9741 H         1 UNK         0.3040 
     91 H91        23.8916  -26.5548  -39.5446 H         1 UNK         0.1015 
     92 H92        23.3705  -24.2709  -40.3769 H         1 UNK         0.0786 
     93 H93        24.1972  -24.6097  -41.8964 H         1 UNK         0.0786 
     94 H94        25.1046  -24.5472  -40.3898 H         1 UNK         0.0786 
     95 H95        24.1348  -28.9076  -40.5070 H         1 UNK         0.3172 
     96 H96        26.8718  -29.2854  -41.3580 H         1 UNK         0.0595 
     97 H97        26.2305  -30.6481  -43.3903 H         1 UNK         0.0839 
     98 H98        24.5457  -30.1808  -43.1814 H         1 UNK         0.0839 
     99 H99        25.7554  -28.9732  -43.6031 H         1 UNK         0.0839 
    100 H100       27.3564  -31.6296  -41.2832 H         1 UNK         0.2998 
    101 H101       26.5124  -32.7999  -38.9019 H         1 UNK         0.0822 
    102 H102       28.7143  -33.2163  -39.9759 H         1 UNK         0.0787 
    103 H103       27.9010  -34.7391  -39.6601 H         1 UNK         0.0787 
    104 H104       27.9334  -34.0922  -41.2950 H         1 UNK         0.0787 
    105 H105       24.8784  -33.0267  -41.9225 H         1 UNK         0.3055 
    106 H106       23.5389  -35.5421  -41.5950 H         1 UNK         0.1106 
    107 H107       22.7777  -33.0396  -43.2085 H         1 UNK         0.0828 
    108 H108       23.7074  -34.4189  -43.7983 H         1 UNK         0.0828 
    109 H109       22.0180  -34.6185  -43.3677 H         1 UNK         0.0828 
    110 H110       22.8965  -32.3022  -40.2771 H         1 UNK         0.2931 
    111 H111       20.5631  -33.3850  -38.7924 H         1 UNK         0.0412 
    112 H112       23.2591  -31.0616  -36.9289 H         1 UNK         0.3472 
    113 H113       23.5299  -31.4462  -38.6111 H         1 UNK         0.3472 
    114 H114       20.5425  -30.7230  -40.2900 H         1 UNK         0.0970 
    115 H115       19.3664  -31.1671  -39.0901 H         1 UNK         0.0970 
    116 H116       20.7648  -31.5375  -42.4738 H         1 UNK         0.0612 
    117 H117       19.9160  -32.8519  -43.2344 H         1 UNK         0.0612 
@<TRIPOS>BOND
     1    1    2 1    
     2    1   62 1    
     3    1   63 1    
     4    1   64 1    
     5    2    3 2    
     6    2    4 am   BACKBONE|DICT|INTERRES
     7    4    5 1    
     8    4   65 1    
     9    5    6 1    
    10    5   25 1    
    11    5   66 1    
    12    6    7 1    
    13    6   67 1    
    14    6   68 1    
    15    7    8 1    
    16    8    9 1    
    17    8   69 1    
    18    8   70 1    
    19    9   10 ar   
    20    9   14 ar   
    21   10   11 ar   
    22   10   71 1    
    23   11   12 ar   
    24   11   61 1    
    25   12   13 ar   
    26   12   72 1    
    27   13   14 ar   
    28   13   15 1    
    29   14   73 1    
    30   15   16 1    
    31   15   74 1    
    32   15   75 1    
    33   16   17 1    
    34   17   18 1    
    35   17   76 1    
    36   17   77 1    
    37   18   19 1    
    38   18   27 1    
    39   18   78 1    
    40   19   20 am   BACKBONE|DICT|INTERRES
    41   19   79 1    
    42   20   21 2    
    43   20   22 1    
    44   22   23 1    
    45   22   24 1    
    46   22   80 1    
    47   23   81 1    
    48   23   82 1    
    49   23   83 1    
    50   24   25 am   BACKBONE|DICT|INTERRES
    51   24   84 1    
    52   25   26 2    
    53   27   28 2    
    54   27   29 am   BACKBONE|DICT|INTERRES
    55   29   30 1    
    56   29   85 1    
    57   30   31 1    
    58   30   32 1    
    59   30   86 1    
    60   31   87 1    
    61   31   88 1    
    62   31   89 1    
    63   32   33 2    
    64   32   34 am   BACKBONE|DICT|INTERRES
    65   34   35 1    
    66   34   90 1    
    67   35   36 1    
    68   35   37 1    
    69   35   91 1    
    70   36   92 1    
    71   36   93 1    
    72   36   94 1    
    73   37   38 2    
    74   37   39 am   BACKBONE|DICT|INTERRES
    75   39   40 1    
    76   39   95 1    
    77   40   41 1    
    78   40   42 1    
    79   40   96 1    
    80   41   97 1    
    81   41   98 1    
    82   41   99 1    
    83   42   43 2    
    84   42   44 am   BACKBONE|DICT|INTERRES
    85   44   45 1    
    86   44  100 1    
    87   45   46 1    
    88   45   47 1    
    89   45  101 1    
    90   46  102 1    
    91   46  103 1    
    92   46  104 1    
    93   47   48 2    
    94   47   49 am   BACKBONE|DICT|INTERRES
    95   49   50 1    
    96   49  105 1    
    97   50   51 1    
    98   50   52 1    
    99   50  106 1    
   100   51  107 1    
   101   51  108 1    
   102   51  109 1    
   103   52   53 2    
   104   52   54 am   BACKBONE|DICT|INTERRES
   105   54   55 1    
   106   54  110 1    
   107   55   56 1    
   108   55   59 1    
   109   55  111 1    
   110   56   57 am   BACKBONE|DICT|INTERRES
   111   56   58 2    
   112   57  112 1    
   113   57  113 1    
   114   59   60 1    
   115   59  114 1    
   116   59  115 1    
   117   60   61 1    
   118   61  116 1    
   119   61  117 1    
@<TRIPOS>SUBSTRUCTURE
     1 UNK         1 GROUP             0       ****    0 ROOT    
