@<TRIPOS>MOLECULE
3R8
117   119    1
SMALL
USER_CHARGES


@<TRIPOS>ATOM
      1 CA         12.4379  -24.2698  -43.6699 C.3       0 UNK        -0.2013 
      2 C          13.8904  -24.1389  -44.1031 C.2       0 UNK         0.4866 
      3 O          14.3847  -23.0222  -44.2619 O.2       0 UNK        -0.5176 
      4 N          14.5757  -25.2705  -44.3046 N.am      1 UNK        -0.4884 
      5 CA         15.9981  -25.3473  -44.6485 C.3       1 UNK         0.0853 
      6 C6         16.3949  -26.7405  -45.2122 C.3       10 UNK        -0.0849 
      7 S7         15.7189  -28.1675  -44.2856 S.3       10 UNK        -0.2776 
      8 C8         16.3423  -29.5683  -45.2680 C.3       10 UNK         0.0316 
      9 C9         17.6450  -30.1130  -44.7005 C.ar      10 UNK        -0.0863 
     10 C10        17.6250  -31.2021  -43.8221 C.ar      10 UNK        -0.1009 
     11 C11        18.8168  -31.7163  -43.3025 C.ar      10 UNK        -0.0712 
     12 C12        20.0313  -31.1287  -43.6614 C.ar      10 UNK        -0.0894 
     13 C13        20.0667  -30.0430  -44.5400 C.ar      10 UNK        -0.0745 
     14 C14        18.8696  -29.5420  -45.0614 C.ar      10 UNK        -0.0972 
     15 C15        21.3992  -29.4210  -44.9333 C.3       10 UNK         0.0209 
     16 S16        22.2888  -28.7155  -43.5088 S.3       10 UNK        -0.2568 
     17 C17        21.1624  -27.3805  -42.9725 C.3       10 UNK        -0.0983 
     18 CA         21.4788  -26.0335  -43.6728 C.3       3 UNK         0.0876 
     19 N          20.3770  -25.0722  -43.5802 N.am      3 UNK        -0.4424 
     20 C          19.9208  -24.4561  -42.4786 C.2       2 UNK         0.4918 
     21 O          20.3662  -24.6236  -41.3439 O.2       2 UNK        -0.4875 
     22 CA         18.7467  -23.4842  -42.6855 C.3       2 UNK         0.0481 
     23 CB         19.2639  -22.0959  -43.0965 C.3       2 UNK        -0.1831 
     24 N          17.7900  -23.9699  -43.6852 N.am      2 UNK        -0.4498 
     25 C          16.8795  -24.9271  -43.4526 C.2       1 UNK         0.5027 
     26 O          16.7210  -25.4688  -42.3559 O.2       1 UNK        -0.4969 
     27 C          22.8208  -25.4150  -43.2253 C.2       3 UNK         0.5005 
     28 O          23.2900  -25.6740  -42.1153 O.2       3 UNK        -0.5279 
     29 N          23.4434  -24.6347  -44.1215 N.am      4 UNK        -0.4463 
     30 CA         24.7778  -24.0461  -43.9325 C.3       4 UNK         0.0283 
     31 CB         25.0979  -23.1209  -45.1174 C.3       4 UNK        -0.1875 
     32 C          25.9028  -25.0858  -43.7414 C.2       4 UNK         0.4949 
     33 O          26.9258  -24.7644  -43.1373 O.2       4 UNK        -0.5039 
     34 N          25.6844  -26.3140  -44.2339 N.am      5 UNK        -0.4663 
     35 CA         26.5520  -27.4750  -44.0217 C.3       5 UNK         0.0242 
     36 CB         26.1906  -28.5572  -45.0533 C.3       5 UNK        -0.1982 
     37 C          26.4738  -28.0548  -42.5951 C.2       5 UNK         0.5017 
     38 O          27.3800  -28.7950  -42.2116 O.2       5 UNK        -0.5012 
     39 N          25.4041  -27.7293  -41.8491 N.am      6 UNK        -0.4439 
     40 CA         25.0933  -28.1815  -40.4869 C.3       6 UNK         0.0297 
     41 CB         26.0825  -27.5675  -39.4737 C.3       6 UNK        -0.2006 
     42 C          24.9679  -29.7142  -40.3523 C.2       6 UNK         0.4892 
     43 O          25.3692  -30.2762  -39.3308 O.2       6 UNK        -0.5089 
     44 N          24.4151  -30.3664  -41.3840 N.am      7 UNK        -0.4243 
     45 CA         24.1463  -31.8036  -41.4048 C.3       7 UNK         0.0196 
     46 CB         23.9949  -32.2727  -42.8609 C.3       7 UNK        -0.2007 
     47 C          22.8905  -32.1280  -40.5806 C.2       7 UNK         0.5020 
     48 O          21.8828  -31.4304  -40.7035 O.2       7 UNK        -0.5147 
     49 N          22.9708  -33.1807  -39.7588 N.am      8 UNK        -0.4734 
     50 CA         21.8928  -33.5961  -38.8542 C.3       8 UNK         0.0238 
     51 CB         22.5142  -34.2649  -37.6160 C.3       8 UNK        -0.1912 
     52 C          20.8647  -34.5368  -39.5062 C.2       8 UNK         0.5038 
     53 O          19.7722  -34.6868  -38.9581 O.2       8 UNK        -0.5046 
     54 N          21.2329  -35.1697  -40.6303 N.am      9 UNK        -0.4200 
     55 CA         20.4570  -36.2085  -41.3371 C.3       9 UNK         0.0839 
     56 C          20.2777  -37.5357  -40.5339 C.2       9 UNK         0.5513 
     57 N          21.0939  -37.8114  -39.5233 N.am      9 UNK        -0.7519 
     58 O          19.4101  -38.3474  -40.8470 O.2       9 UNK        -0.4960 
     59 C59        19.1186  -35.6818  -41.9350 C.3       10 UNK        -0.0876 
     60 S60        19.3728  -34.4091  -43.2151 S.3       10 UNK        -0.2414 
     61 C61        18.8039  -32.9091  -42.3597 C.3       10 UNK         0.0169 
     62 H62        12.2900  -23.7883  -42.7036 H         1 UNK         0.0903 
     63 H63        11.7846  -23.7861  -44.3956 H         1 UNK         0.0903 
     64 H64        12.1317  -25.3120  -43.5799 H         1 UNK         0.0903 
     65 H65        14.1373  -26.1643  -44.1276 H         1 UNK         0.3096 
     66 H66        16.1683  -24.6233  -45.4490 H         1 UNK         0.1121 
     67 H67        17.4799  -26.8361  -45.2802 H         1 UNK         0.0849 
     68 H68        16.0301  -26.8179  -46.2377 H         1 UNK         0.0849 
     69 H69        15.5840  -30.3529  -45.2741 H         1 UNK         0.0865 
     70 H70        16.4747  -29.2746  -46.3104 H         1 UNK         0.0865 
     71 H71        16.6811  -31.6518  -43.5451 H         1 UNK         0.1346 
     72 H72        20.9507  -31.5209  -43.2520 H         1 UNK         0.1412 
     73 H73        18.8901  -28.7065  -45.7470 H         1 UNK         0.1426 
     74 H74        21.2623  -28.6456  -45.6883 H         1 UNK         0.0716 
     75 H75        22.0252  -30.1878  -45.3917 H         1 UNK         0.0716 
     76 H76        20.1339  -27.6775  -43.1796 H         1 UNK         0.0695 
     77 H77        21.2223  -27.2858  -41.8868 H         1 UNK         0.0695 
     78 H78        21.5745  -26.2481  -44.7385 H         1 UNK         0.0983 
     79 H79        19.9330  -24.8398  -44.4561 H         1 UNK         0.3095 
     80 H80        18.2278  -23.3769  -41.7303 H         1 UNK         0.0454 
     81 H81        19.9631  -21.7065  -42.3551 H         1 UNK         0.0851 
     82 H82        19.7859  -22.1201  -44.0538 H         1 UNK         0.0851 
     83 H83        18.4482  -21.3772  -43.1769 H         1 UNK         0.0851 
     84 H84        17.8310  -23.5424  -44.5997 H         1 UNK         0.2976 
     85 H85        22.9924  -24.4518  -45.0071 H         1 UNK         0.3116 
     86 H86        24.7432  -23.4390  -43.0253 H         1 UNK         0.0646 
     87 H87        26.0719  -22.6462  -44.9892 H         1 UNK         0.0847 
     88 H88        24.3620  -22.3220  -45.2097 H         1 UNK         0.0847 
     89 H89        25.1248  -23.6665  -46.0615 H         1 UNK         0.0847 
     90 H90        24.8243  -26.4782  -44.7357 H         1 UNK         0.3040 
     91 H91        27.5866  -27.1677  -44.1907 H         1 UNK         0.1015 
     92 H92        26.3084  -28.1898  -46.0729 H         1 UNK         0.0786 
     93 H93        25.1624  -28.9020  -44.9356 H         1 UNK         0.0786 
     94 H94        26.8388  -29.4286  -44.9488 H         1 UNK         0.0786 
     95 H95        24.7242  -27.0836  -42.2403 H         1 UNK         0.3172 
     96 H96        24.1035  -27.7818  -40.2610 H         1 UNK         0.0595 
     97 H97        26.1290  -26.4831  -39.5734 H         1 UNK         0.0839 
     98 H98        27.0912  -27.9607  -39.6043 H         1 UNK         0.0839 
     99 H99        25.7792  -27.7842  -38.4487 H         1 UNK         0.0839 
    100 H100       24.0440  -29.8240  -42.1522 H         1 UNK         0.2998 
    101 H101       25.0024  -32.3233  -40.9685 H         1 UNK         0.0822 
    102 H102       24.9202  -32.1268  -43.4187 H         1 UNK         0.0787 
    103 H103       23.7508  -33.3347  -42.9094 H         1 UNK         0.0787 
    104 H104       23.2068  -31.7311  -43.3826 H         1 UNK         0.0787 
    105 H105       23.8370  -33.6989  -39.7061 H         1 UNK         0.3055 
    106 H106       21.3462  -32.7111  -38.5189 H         1 UNK         0.1106 
    107 H107       23.0834  -35.1576  -37.8777 H         1 UNK         0.0828 
    108 H108       23.1827  -33.5822  -37.0910 H         1 UNK         0.0828 
    109 H109       21.7429  -34.5672  -36.9059 H         1 UNK         0.0828 
    110 H110       22.1501  -34.9773  -41.0037 H         1 UNK         0.2931 
    111 H111       21.0839  -36.5002  -42.1805 H         1 UNK         0.0412 
    112 H112       20.9777  -38.6761  -39.0180 H         1 UNK         0.3472 
    113 H113       21.8245  -37.1692  -39.2631 H         1 UNK         0.3472 
    114 H114       18.4570  -35.3099  -41.1517 H         1 UNK         0.0970 
    115 H115       18.5711  -36.4922  -42.4193 H         1 UNK         0.0970 
    116 H116       19.4510  -32.7086  -41.5047 H         1 UNK         0.0612 
    117 H117       17.8007  -33.0733  -41.9635 H         1 UNK         0.0612 
@<TRIPOS>BOND
     1    1    2 1    
     2    1   62 1    
     3    1   63 1    
     4    1   64 1    
     5    2    3 2    
     6    2    4 am   BACKBONE|DICT|INTERRES
     7    4    5 1    
     8    4   65 1    
     9    5    6 1    
    10    5   25 1    
    11    5   66 1    
    12    6    7 1    
    13    6   67 1    
    14    6   68 1    
    15    7    8 1    
    16    8    9 1    
    17    8   69 1    
    18    8   70 1    
    19    9   10 ar   
    20    9   14 ar   
    21   10   11 ar   
    22   10   71 1    
    23   11   12 ar   
    24   11   61 1    
    25   12   13 ar   
    26   12   72 1    
    27   13   14 ar   
    28   13   15 1    
    29   14   73 1    
    30   15   16 1    
    31   15   74 1    
    32   15   75 1    
    33   16   17 1    
    34   17   18 1    
    35   17   76 1    
    36   17   77 1    
    37   18   19 1    
    38   18   27 1    
    39   18   78 1    
    40   19   20 am   BACKBONE|DICT|INTERRES
    41   19   79 1    
    42   20   21 2    
    43   20   22 1    
    44   22   23 1    
    45   22   24 1    
    46   22   80 1    
    47   23   81 1    
    48   23   82 1    
    49   23   83 1    
    50   24   25 am   BACKBONE|DICT|INTERRES
    51   24   84 1    
    52   25   26 2    
    53   27   28 2    
    54   27   29 am   BACKBONE|DICT|INTERRES
    55   29   30 1    
    56   29   85 1    
    57   30   31 1    
    58   30   32 1    
    59   30   86 1    
    60   31   87 1    
    61   31   88 1    
    62   31   89 1    
    63   32   33 2    
    64   32   34 am   BACKBONE|DICT|INTERRES
    65   34   35 1    
    66   34   90 1    
    67   35   36 1    
    68   35   37 1    
    69   35   91 1    
    70   36   92 1    
    71   36   93 1    
    72   36   94 1    
    73   37   38 2    
    74   37   39 am   BACKBONE|DICT|INTERRES
    75   39   40 1    
    76   39   95 1    
    77   40   41 1    
    78   40   42 1    
    79   40   96 1    
    80   41   97 1    
    81   41   98 1    
    82   41   99 1    
    83   42   43 2    
    84   42   44 am   BACKBONE|DICT|INTERRES
    85   44   45 1    
    86   44  100 1    
    87   45   46 1    
    88   45   47 1    
    89   45  101 1    
    90   46  102 1    
    91   46  103 1    
    92   46  104 1    
    93   47   48 2    
    94   47   49 am   BACKBONE|DICT|INTERRES
    95   49   50 1    
    96   49  105 1    
    97   50   51 1    
    98   50   52 1    
    99   50  106 1    
   100   51  107 1    
   101   51  108 1    
   102   51  109 1    
   103   52   53 2    
   104   52   54 am   BACKBONE|DICT|INTERRES
   105   54   55 1    
   106   54  110 1    
   107   55   56 1    
   108   55   59 1    
   109   55  111 1    
   110   56   57 am   BACKBONE|DICT|INTERRES
   111   56   58 2    
   112   57  112 1    
   113   57  113 1    
   114   59   60 1    
   115   59  114 1    
   116   59  115 1    
   117   60   61 1    
   118   61  116 1    
   119   61  117 1    
@<TRIPOS>SUBSTRUCTURE
     1 UNK         1 GROUP             0       ****    0 ROOT    
