@<TRIPOS>MOLECULE
3R8
117   119    1
SMALL
USER_CHARGES


@<TRIPOS>ATOM
      1 CA         19.8864  -27.8533  -42.6017 C.3       0 UNK        -0.2013 
      2 C          19.1197  -26.5759  -42.8889 C.2       0 UNK         0.4866 
      3 O          19.5230  -25.5070  -42.4305 O.2       0 UNK        -0.5176 
      4 N          18.0347  -26.6667  -43.6676 N.am      1 UNK        -0.4884 
      5 CA         17.1524  -25.5520  -44.0412 C.3       1 UNK         0.0853 
      6 C6         15.7382  -26.0418  -44.4510 C.3       10 UNK        -0.0849 
      7 S7         14.9637  -27.1154  -43.1915 S.3       10 UNK        -0.2776 
      8 C8         14.7847  -28.6899  -44.0937 C.3       10 UNK         0.0316 
      9 C9         16.1183  -29.3900  -44.3268 C.ar      10 UNK        -0.0863 
     10 C10        16.6448  -30.2439  -43.3527 C.ar      10 UNK        -0.1009 
     11 C11        17.8368  -30.9378  -43.5845 C.ar      10 UNK        -0.0712 
     12 C12        18.5220  -30.7485  -44.7899 C.ar      10 UNK        -0.0894 
     13 C13        18.0086  -29.8927  -45.7700 C.ar      10 UNK        -0.0745 
     14 C14        16.8016  -29.2271  -45.5359 C.ar      10 UNK        -0.0972 
     15 C15        18.7149  -29.7333  -47.1104 C.3       10 UNK         0.0209 
     16 S16        19.2779  -28.0264  -47.4042 S.3       10 UNK        -0.2568 
     17 C17        20.8502  -27.9993  -46.4859 C.3       10 UNK        -0.0983 
     18 CA         21.5638  -26.6261  -46.5897 C.3       3 UNK         0.0876 
     19 N          20.7265  -25.5495  -46.0519 N.am      3 UNK        -0.4424 
     20 C          20.8376  -24.2442  -46.3322 C.2       2 UNK         0.4918 
     21 O          21.6857  -23.7840  -47.0967 O.2       2 UNK        -0.4875 
     22 CA         19.8699  -23.2853  -45.6040 C.3       2 UNK         0.0481 
     23 CB         19.2137  -22.2730  -46.5657 C.3       2 UNK        -0.1831 
     24 N          18.8818  -23.9792  -44.7617 N.am      2 UNK        -0.4498 
     25 C          17.8169  -24.7003  -45.1451 C.2       1 UNK         0.5027 
     26 O          17.4195  -24.7759  -46.3081 O.2       1 UNK        -0.4969 
     27 C          22.9471  -26.6958  -45.9069 C.2       3 UNK         0.5005 
     28 O          23.8445  -27.3438  -46.4453 O.2       3 UNK        -0.5279 
     29 N          23.0828  -26.0742  -44.7220 N.am      4 UNK        -0.4463 
     30 CA         24.2597  -26.0507  -43.8354 C.3       4 UNK         0.0283 
     31 CB         25.4863  -25.4350  -44.5405 C.3       4 UNK        -0.1875 
     32 C          24.5928  -27.4055  -43.1736 C.2       4 UNK         0.4949 
     33 O          25.5983  -27.5062  -42.4712 O.2       4 UNK        -0.5039 
     34 N          23.7281  -28.4108  -43.3635 N.am      5 UNK        -0.4663 
     35 CA         23.8442  -29.7605  -42.8034 C.3       5 UNK         0.0242 
     36 CB         22.9908  -30.7145  -43.6576 C.3       5 UNK        -0.1982 
     37 C          23.4230  -29.8599  -41.3262 C.2       5 UNK         0.5017 
     38 O          23.6010  -30.9235  -40.7332 O.2       5 UNK        -0.5012 
     39 N          22.8667  -28.7724  -40.7696 N.am      6 UNK        -0.4439 
     40 CA         22.1831  -28.6587  -39.4723 C.3       6 UNK         0.0297 
     41 CB         21.7780  -27.1899  -39.2589 C.3       6 UNK        -0.2006 
     42 C          22.9376  -29.1792  -38.2329 C.2       6 UNK         0.4892 
     43 O          22.2987  -29.4241  -37.2091 O.2       6 UNK        -0.5089 
     44 N          24.2615  -29.3548  -38.3376 N.am      7 UNK        -0.4243 
     45 CA         25.1110  -29.9881  -37.3261 C.3       7 UNK         0.0196 
     46 CB         26.5835  -29.8171  -37.7335 C.3       7 UNK        -0.2007 
     47 C          24.7904  -31.4779  -37.0855 C.2       7 UNK         0.5020 
     48 O          25.1082  -31.9847  -36.0089 O.2       7 UNK        -0.5147 
     49 N          24.1752  -32.1513  -38.0680 N.am      8 UNK        -0.4734 
     50 CA         23.7456  -33.5497  -37.9680 C.3       8 UNK         0.0238 
     51 CB         24.8656  -34.4826  -38.4617 C.3       8 UNK        -0.1912 
     52 C          22.4375  -33.8105  -38.7275 C.2       8 UNK         0.5038 
     53 O          21.5796  -34.5295  -38.2148 O.2       8 UNK        -0.5046 
     54 N          22.3057  -33.2244  -39.9247 N.am      9 UNK        -0.4200 
     55 CA         21.1586  -33.3300  -40.8399 C.3       9 UNK         0.0839 
     56 C          20.8654  -34.7637  -41.3824 C.2       9 UNK         0.5513 
     57 N          21.8205  -35.6853  -41.3484 N.am      9 UNK        -0.7519 
     58 O          19.7739  -35.0421  -41.8717 O.2       9 UNK        -0.4960 
     59 C59        19.9000  -32.5746  -40.3069 C.3       10 UNK        -0.0876 
     60 S60        19.4663  -31.1438  -41.3522 S.3       10 UNK        -0.2414 
     61 C61        18.3553  -31.9303  -42.5543 C.3       10 UNK         0.0169 
     62 H62        20.9509  -27.6980  -42.7615 H         1 UNK         0.0903 
     63 H63        19.5637  -28.6713  -43.2420 H         1 UNK         0.0903 
     64 H64        19.7333  -28.1527  -41.5658 H         1 UNK         0.0903 
     65 H65        17.7394  -27.5744  -44.0057 H         1 UNK         0.3096 
     66 H66        17.0281  -24.9077  -43.1673 H         1 UNK         0.1121 
     67 H67        15.0801  -25.1848  -44.6062 H         1 UNK         0.0849 
     68 H68        15.7660  -26.5648  -45.4070 H         1 UNK         0.0849 
     69 H69        14.1268  -29.3454  -43.5209 H         1 UNK         0.0865 
     70 H70        14.2735  -28.5129  -45.0415 H         1 UNK         0.0865 
     71 H71        16.1130  -30.3889  -42.4219 H         1 UNK         0.1346 
     72 H72        19.4420  -31.2872  -44.9719 H         1 UNK         0.1412 
     73 H73        16.3918  -28.5910  -46.3087 H         1 UNK         0.1426 
     74 H74        19.5604  -30.4176  -47.1964 H         1 UNK         0.0716 
     75 H75        18.0196  -30.0097  -47.9043 H         1 UNK         0.0716 
     76 H76        21.4841  -28.7919  -46.8892 H         1 UNK         0.0695 
     77 H77        20.6515  -28.2617  -45.4460 H         1 UNK         0.0695 
     78 H78        21.7474  -26.4160  -47.6460 H         1 UNK         0.0983 
     79 H79        19.9610  -25.8360  -45.4616 H         1 UNK         0.3095 
     80 H80        20.4880  -22.7145  -44.9097 H         1 UNK         0.0454 
     81 H81        18.5212  -21.6154  -46.0406 H         1 UNK         0.0851 
     82 H82        18.6676  -22.7657  -47.3702 H         1 UNK         0.0851 
     83 H83        19.9675  -21.6395  -47.0345 H         1 UNK         0.0851 
     84 H84        19.1455  -24.0697  -43.7837 H         1 UNK         0.2976 
     85 H85        22.2793  -25.5662  -44.3787 H         1 UNK         0.3116 
     86 H86        23.9927  -25.3833  -43.0145 H         1 UNK         0.0646 
     87 H87        25.2452  -24.4713  -44.9890 H         1 UNK         0.0847 
     88 H88        26.2995  -25.2666  -43.8334 H         1 UNK         0.0847 
     89 H89        25.8744  -26.0839  -45.3259 H         1 UNK         0.0847 
     90 H90        22.9533  -28.2468  -43.9872 H         1 UNK         0.3040 
     91 H91        24.8878  -30.0771  -42.8657 H         1 UNK         0.1015 
     92 H92        21.9277  -30.4768  -43.5926 H         1 UNK         0.0786 
     93 H93        23.1133  -31.7477  -43.3299 H         1 UNK         0.0786 
     94 H94        23.2811  -30.6763  -44.7078 H         1 UNK         0.0786 
     95 H95        22.8337  -27.9496  -41.3510 H         1 UNK         0.3172 
     96 H96        21.2714  -29.2541  -39.5505 H         1 UNK         0.0595 
     97 H97        21.2214  -27.0680  -38.3283 H         1 UNK         0.0839 
     98 H98        21.1377  -26.8238  -40.0610 H         1 UNK         0.0839 
     99 H99        22.6502  -26.5373  -39.2023 H         1 UNK         0.0839 
    100 H100       24.6949  -29.1348  -39.2227 H         1 UNK         0.2998 
    101 H101       24.9515  -29.4644  -36.3812 H         1 UNK         0.0822 
    102 H102       26.8504  -28.7644  -37.8286 H         1 UNK         0.0787 
    103 H103       27.2485  -30.2519  -36.9857 H         1 UNK         0.0787 
    104 H104       26.7979  -30.3068  -38.6844 H         1 UNK         0.0787 
    105 H105       23.9378  -31.6505  -38.9193 H         1 UNK         0.3055 
    106 H106       23.5413  -33.7865  -36.9209 H         1 UNK         0.1106 
    107 H107       25.7610  -34.3837  -37.8479 H         1 UNK         0.0828 
    108 H108       24.5554  -35.5274  -38.4134 H         1 UNK         0.0828 
    109 H109       25.1435  -34.2691  -39.4945 H         1 UNK         0.0828 
    110 H110       23.0399  -32.6067  -40.2573 H         1 UNK         0.2931 
    111 H111       21.5105  -32.8097  -41.7309 H         1 UNK         0.0412 
    112 H112       21.6300  -36.6069  -41.7096 H         1 UNK         0.3472 
    113 H113       22.7260  -35.4701  -40.9634 H         1 UNK         0.3472 
    114 H114       19.0315  -33.2270  -40.2015 H         1 UNK         0.0970 
    115 H115       20.0752  -32.1875  -39.3021 H         1 UNK         0.0970 
    116 H116       18.8860  -32.7396  -43.0573 H         1 UNK         0.0612 
    117 H117       17.5192  -32.3914  -42.0263 H         1 UNK         0.0612 
@<TRIPOS>BOND
     1    1    2 1    
     2    1   62 1    
     3    1   63 1    
     4    1   64 1    
     5    2    3 2    
     6    2    4 am   BACKBONE|DICT|INTERRES
     7    4    5 1    
     8    4   65 1    
     9    5    6 1    
    10    5   25 1    
    11    5   66 1    
    12    6    7 1    
    13    6   67 1    
    14    6   68 1    
    15    7    8 1    
    16    8    9 1    
    17    8   69 1    
    18    8   70 1    
    19    9   10 ar   
    20    9   14 ar   
    21   10   11 ar   
    22   10   71 1    
    23   11   12 ar   
    24   11   61 1    
    25   12   13 ar   
    26   12   72 1    
    27   13   14 ar   
    28   13   15 1    
    29   14   73 1    
    30   15   16 1    
    31   15   74 1    
    32   15   75 1    
    33   16   17 1    
    34   17   18 1    
    35   17   76 1    
    36   17   77 1    
    37   18   19 1    
    38   18   27 1    
    39   18   78 1    
    40   19   20 am   BACKBONE|DICT|INTERRES
    41   19   79 1    
    42   20   21 2    
    43   20   22 1    
    44   22   23 1    
    45   22   24 1    
    46   22   80 1    
    47   23   81 1    
    48   23   82 1    
    49   23   83 1    
    50   24   25 am   BACKBONE|DICT|INTERRES
    51   24   84 1    
    52   25   26 2    
    53   27   28 2    
    54   27   29 am   BACKBONE|DICT|INTERRES
    55   29   30 1    
    56   29   85 1    
    57   30   31 1    
    58   30   32 1    
    59   30   86 1    
    60   31   87 1    
    61   31   88 1    
    62   31   89 1    
    63   32   33 2    
    64   32   34 am   BACKBONE|DICT|INTERRES
    65   34   35 1    
    66   34   90 1    
    67   35   36 1    
    68   35   37 1    
    69   35   91 1    
    70   36   92 1    
    71   36   93 1    
    72   36   94 1    
    73   37   38 2    
    74   37   39 am   BACKBONE|DICT|INTERRES
    75   39   40 1    
    76   39   95 1    
    77   40   41 1    
    78   40   42 1    
    79   40   96 1    
    80   41   97 1    
    81   41   98 1    
    82   41   99 1    
    83   42   43 2    
    84   42   44 am   BACKBONE|DICT|INTERRES
    85   44   45 1    
    86   44  100 1    
    87   45   46 1    
    88   45   47 1    
    89   45  101 1    
    90   46  102 1    
    91   46  103 1    
    92   46  104 1    
    93   47   48 2    
    94   47   49 am   BACKBONE|DICT|INTERRES
    95   49   50 1    
    96   49  105 1    
    97   50   51 1    
    98   50   52 1    
    99   50  106 1    
   100   51  107 1    
   101   51  108 1    
   102   51  109 1    
   103   52   53 2    
   104   52   54 am   BACKBONE|DICT|INTERRES
   105   54   55 1    
   106   54  110 1    
   107   55   56 1    
   108   55   59 1    
   109   55  111 1    
   110   56   57 am   BACKBONE|DICT|INTERRES
   111   56   58 2    
   112   57  112 1    
   113   57  113 1    
   114   59   60 1    
   115   59  114 1    
   116   59  115 1    
   117   60   61 1    
   118   61  116 1    
   119   61  117 1    
@<TRIPOS>SUBSTRUCTURE
     1 UNK         1 GROUP             0       ****    0 ROOT    
