@<TRIPOS>MOLECULE
3R8
117   119    1
SMALL
USER_CHARGES


@<TRIPOS>ATOM
      1 CA         13.8956  -21.5759  -46.3303 C.3       0 UNK        -0.2013 
      2 C          14.6215  -22.8171  -46.8275 C.2       0 UNK         0.4866 
      3 O          14.9151  -22.9186  -48.0194 O.2       0 UNK        -0.5176 
      4 N          14.9065  -23.7658  -45.9266 N.am      1 UNK        -0.4884 
      5 CA         15.6625  -24.9882  -46.2165 C.3       1 UNK         0.0853 
      6 C6         15.4538  -26.0482  -45.1036 C.3       10 UNK        -0.0849 
      7 S7         15.7894  -27.7468  -45.6809 S.3       10 UNK        -0.2776 
      8 C8         15.4889  -28.7121  -44.1655 C.3       10 UNK         0.0316 
      9 C9         16.7400  -28.8327  -43.3054 C.ar      10 UNK        -0.0863 
     10 C10        17.6053  -29.9184  -43.4756 C.ar      10 UNK        -0.1009 
     11 C11        18.7404  -30.0605  -42.6709 C.ar      10 UNK        -0.0712 
     12 C12        19.0041  -29.1046  -41.6849 C.ar      10 UNK        -0.0894 
     13 C13        18.1652  -27.9961  -41.5277 C.ar      10 UNK        -0.0745 
     14 C14        17.0266  -27.8736  -42.3301 C.ar      10 UNK        -0.0972 
     15 C15        18.5088  -26.9111  -40.5170 C.3       10 UNK         0.0209 
     16 S16        20.1084  -26.1170  -40.8872 S.3       10 UNK        -0.2568 
     17 C17        19.8290  -25.4007  -42.5476 C.3       10 UNK        -0.0983 
     18 CA         20.1963  -26.3335  -43.7339 C.3       3 UNK         0.0876 
     19 N          19.8684  -25.7052  -45.0119 N.am      3 UNK        -0.4424 
     20 C          19.8742  -26.3145  -46.2039 C.2       2 UNK         0.4918 
     21 O          20.2253  -27.4817  -46.3848 O.2       2 UNK        -0.4875 
     22 CA         19.2962  -25.4933  -47.3709 C.3       2 UNK         0.0481 
     23 CB         19.6748  -26.0723  -48.7462 C.3       2 UNK        -0.1831 
     24 N          17.8379  -25.4539  -47.2512 N.am      2 UNK        -0.4498 
     25 C          17.1612  -24.6722  -46.3996 C.2       1 UNK         0.5027 
     26 O          17.6892  -23.7834  -45.7235 O.2       1 UNK        -0.4969 
     27 C          21.6567  -26.8301  -43.6871 C.2       3 UNK         0.5005 
     28 O          22.5695  -26.1136  -44.1065 O.2       3 UNK        -0.5279 
     29 N          21.8320  -28.0428  -43.1510 N.am      4 UNK        -0.4463 
     30 CA         23.1088  -28.7222  -42.9557 C.3       4 UNK         0.0283 
     31 CB         23.3587  -29.6973  -44.1215 C.3       4 UNK        -0.1875 
     32 C          23.1192  -29.4058  -41.5804 C.2       4 UNK         0.4949 
     33 O          23.4781  -30.5784  -41.4710 O.2       4 UNK        -0.5039 
     34 N          22.7207  -28.6622  -40.5383 N.am      5 UNK        -0.4663 
     35 CA         22.7036  -29.1166  -39.1391 C.3       5 UNK         0.0242 
     36 CB         21.9494  -28.0898  -38.2804 C.3       5 UNK        -0.1982 
     37 C          24.0991  -29.3993  -38.5495 C.2       5 UNK         0.5017 
     38 O          24.2033  -30.1282  -37.5638 O.2       5 UNK        -0.5012 
     39 N          25.1422  -28.8334  -39.1692 N.am      6 UNK        -0.4439 
     40 CA         26.5484  -29.0901  -38.8558 C.3       6 UNK         0.0297 
     41 CB         27.3643  -27.8336  -39.2068 C.3       6 UNK        -0.2006 
     42 C          27.1177  -30.3251  -39.5848 C.2       6 UNK         0.4892 
     43 O          28.2762  -30.6664  -39.3412 O.2       6 UNK        -0.5089 
     44 N          26.3358  -30.9525  -40.4756 N.am      7 UNK        -0.4243 
     45 CA         26.7600  -32.0658  -41.3196 C.3       7 UNK         0.0196 
     46 CB         27.2048  -31.5280  -42.6962 C.3       7 UNK        -0.2007 
     47 C          25.6413  -33.1141  -41.3796 C.2       7 UNK         0.5020 
     48 O          25.4754  -33.8622  -40.4162 O.2       7 UNK        -0.5147 
     49 N          24.9049  -33.1626  -42.4988 N.am      8 UNK        -0.4734 
     50 CA         23.8886  -34.1703  -42.8301 C.3       8 UNK         0.0238 
     51 CB         23.2981  -33.8541  -44.2139 C.3       8 UNK        -0.1912 
     52 C          22.7578  -34.3421  -41.7999 C.2       8 UNK         0.5038 
     53 O          22.2752  -35.4637  -41.6349 O.2       8 UNK        -0.5046 
     54 N          22.3706  -33.2504  -41.1307 N.am      9 UNK        -0.4200 
     55 CA         21.3825  -33.2399  -40.0390 C.3       9 UNK         0.0839 
     56 C          22.0369  -33.0230  -38.6441 C.2       9 UNK         0.5513 
     57 N          23.3509  -33.1376  -38.4958 N.am      9 UNK        -0.7519 
     58 O          21.3396  -32.7541  -37.6695 O.2       9 UNK        -0.4960 
     59 C59        20.2297  -32.2358  -40.3107 C.3       10 UNK        -0.0876 
     60 S60        19.2878  -32.6425  -41.8210 S.3       10 UNK        -0.2414 
     61 C61        19.6872  -31.2324  -42.8950 C.3       10 UNK         0.0169 
     62 H62        12.9483  -21.4591  -46.8561 H         1 UNK         0.0903 
     63 H63        13.6862  -21.6256  -45.2619 H         1 UNK         0.0903 
     64 H64        14.5003  -20.6886  -46.5160 H         1 UNK         0.0903 
     65 H65        14.6745  -23.6113  -44.9555 H         1 UNK         0.3096 
     66 H66        15.2772  -25.3884  -47.1577 H         1 UNK         0.1121 
     67 H67        16.0627  -25.8257  -44.2255 H         1 UNK         0.0849 
     68 H68        14.4167  -26.0295  -44.7637 H         1 UNK         0.0849 
     69 H69        14.6728  -28.2689  -43.5926 H         1 UNK         0.0865 
     70 H70        15.1444  -29.7072  -44.4511 H         1 UNK         0.0865 
     71 H71        17.3931  -30.6574  -44.2365 H         1 UNK         0.1346 
     72 H72        19.8754  -29.1983  -41.0531 H         1 UNK         0.1412 
     73 H73        16.3667  -27.0269  -42.2007 H         1 UNK         0.1426 
     74 H74        18.5533  -27.3527  -39.5207 H         1 UNK         0.0716 
     75 H75        17.7320  -26.1457  -40.4808 H         1 UNK         0.0716 
     76 H76        18.7820  -25.1011  -42.6211 H         1 UNK         0.0695 
     77 H77        20.4076  -24.4772  -42.6092 H         1 UNK         0.0695 
     78 H78        19.5513  -27.2108  -43.6860 H         1 UNK         0.0983 
     79 H79        19.5150  -24.7575  -44.9714 H         1 UNK         0.3095 
     80 H80        19.6971  -24.4791  -47.3112 H         1 UNK         0.0454 
     81 H81        19.2824  -27.0803  -48.8871 H         1 UNK         0.0851 
     82 H82        19.2951  -25.4494  -49.5561 H         1 UNK         0.0851 
     83 H83        20.7583  -26.1259  -48.8600 H         1 UNK         0.0851 
     84 H84        17.3359  -26.1945  -47.7212 H         1 UNK         0.2976 
     85 H85        21.0160  -28.5371  -42.8179 H         1 UNK         0.3116 
     86 H86        23.9199  -27.9915  -42.9411 H         1 UNK         0.0646 
     87 H87        22.5818  -30.4583  -44.1869 H         1 UNK         0.0847 
     88 H88        24.3129  -30.2108  -44.0092 H         1 UNK         0.0847 
     89 H89        23.3876  -29.1705  -45.0754 H         1 UNK         0.0847 
     90 H90        22.4288  -27.7087  -40.7081 H         1 UNK         0.3040 
     91 H91        22.1564  -30.0584  -39.0941 H         1 UNK         0.1015 
     92 H92        20.9113  -27.9956  -38.5979 H         1 UNK         0.0786 
     93 H93        22.4095  -27.1023  -38.3317 H         1 UNK         0.0786 
     94 H94        21.9355  -28.3901  -37.2315 H         1 UNK         0.0786 
     95 H95        24.9537  -28.2311  -39.9571 H         1 UNK         0.3172 
     96 H96        26.6505  -29.2703  -37.7835 H         1 UNK         0.0595 
     97 H97        27.0002  -26.9593  -38.6667 H         1 UNK         0.0839 
     98 H98        27.3264  -27.6108  -40.2739 H         1 UNK         0.0839 
     99 H99        28.4143  -27.9605  -38.9389 H         1 UNK         0.0839 
    100 H100       25.3699  -30.6638  -40.5851 H         1 UNK         0.2998 
    101 H101       27.6148  -32.5733  -40.8671 H         1 UNK         0.0822 
    102 H102       28.0941  -30.9049  -42.5980 H         1 UNK         0.0787 
    103 H103       27.4611  -32.3414  -43.3767 H         1 UNK         0.0787 
    104 H104       26.4343  -30.9203  -43.1700 H         1 UNK         0.0787 
    105 H105       25.1035  -32.4803  -43.2151 H         1 UNK         0.3055 
    106 H106       24.4050  -35.1307  -42.8919 H         1 UNK         0.1106 
    107 H107       22.7846  -32.8924  -44.2216 H         1 UNK         0.0828 
    108 H108       24.0700  -33.8321  -44.9833 H         1 UNK         0.0828 
    109 H109       22.5708  -34.6116  -44.5101 H         1 UNK         0.0828 
    110 H110       22.8460  -32.3700  -41.3108 H         1 UNK         0.2931 
    111 H111       20.9195  -34.2250  -39.9630 H         1 UNK         0.0412 
    112 H112       23.9520  -33.3987  -39.2704 H         1 UNK         0.3472 
    113 H113       23.7544  -32.9652  -37.5888 H         1 UNK         0.3472 
    114 H114       20.6232  -31.2234  -40.3732 H         1 UNK         0.0970 
    115 H115       19.5179  -32.2317  -39.4832 H         1 UNK         0.0970 
    116 H116       20.7220  -30.9301  -42.7367 H         1 UNK         0.0612 
    117 H117       19.6281  -31.5620  -43.9334 H         1 UNK         0.0612 
@<TRIPOS>BOND
     1    1    2 1    
     2    1   62 1    
     3    1   63 1    
     4    1   64 1    
     5    2    3 2    
     6    2    4 am   BACKBONE|DICT|INTERRES
     7    4    5 1    
     8    4   65 1    
     9    5    6 1    
    10    5   25 1    
    11    5   66 1    
    12    6    7 1    
    13    6   67 1    
    14    6   68 1    
    15    7    8 1    
    16    8    9 1    
    17    8   69 1    
    18    8   70 1    
    19    9   10 ar   
    20    9   14 ar   
    21   10   11 ar   
    22   10   71 1    
    23   11   12 ar   
    24   11   61 1    
    25   12   13 ar   
    26   12   72 1    
    27   13   14 ar   
    28   13   15 1    
    29   14   73 1    
    30   15   16 1    
    31   15   74 1    
    32   15   75 1    
    33   16   17 1    
    34   17   18 1    
    35   17   76 1    
    36   17   77 1    
    37   18   19 1    
    38   18   27 1    
    39   18   78 1    
    40   19   20 am   BACKBONE|DICT|INTERRES
    41   19   79 1    
    42   20   21 2    
    43   20   22 1    
    44   22   23 1    
    45   22   24 1    
    46   22   80 1    
    47   23   81 1    
    48   23   82 1    
    49   23   83 1    
    50   24   25 am   BACKBONE|DICT|INTERRES
    51   24   84 1    
    52   25   26 2    
    53   27   28 2    
    54   27   29 am   BACKBONE|DICT|INTERRES
    55   29   30 1    
    56   29   85 1    
    57   30   31 1    
    58   30   32 1    
    59   30   86 1    
    60   31   87 1    
    61   31   88 1    
    62   31   89 1    
    63   32   33 2    
    64   32   34 am   BACKBONE|DICT|INTERRES
    65   34   35 1    
    66   34   90 1    
    67   35   36 1    
    68   35   37 1    
    69   35   91 1    
    70   36   92 1    
    71   36   93 1    
    72   36   94 1    
    73   37   38 2    
    74   37   39 am   BACKBONE|DICT|INTERRES
    75   39   40 1    
    76   39   95 1    
    77   40   41 1    
    78   40   42 1    
    79   40   96 1    
    80   41   97 1    
    81   41   98 1    
    82   41   99 1    
    83   42   43 2    
    84   42   44 am   BACKBONE|DICT|INTERRES
    85   44   45 1    
    86   44  100 1    
    87   45   46 1    
    88   45   47 1    
    89   45  101 1    
    90   46  102 1    
    91   46  103 1    
    92   46  104 1    
    93   47   48 2    
    94   47   49 am   BACKBONE|DICT|INTERRES
    95   49   50 1    
    96   49  105 1    
    97   50   51 1    
    98   50   52 1    
    99   50  106 1    
   100   51  107 1    
   101   51  108 1    
   102   51  109 1    
   103   52   53 2    
   104   52   54 am   BACKBONE|DICT|INTERRES
   105   54   55 1    
   106   54  110 1    
   107   55   56 1    
   108   55   59 1    
   109   55  111 1    
   110   56   57 am   BACKBONE|DICT|INTERRES
   111   56   58 2    
   112   57  112 1    
   113   57  113 1    
   114   59   60 1    
   115   59  114 1    
   116   59  115 1    
   117   60   61 1    
   118   61  116 1    
   119   61  117 1    
@<TRIPOS>SUBSTRUCTURE
     1 UNK         1 GROUP             0       ****    0 ROOT    
