@<TRIPOS>MOLECULE
3R8
117   119    1
SMALL
USER_CHARGES


@<TRIPOS>ATOM
      1 CA         15.2305  -23.5367  -44.9574 C.3       0 UNK        -0.2013 
      2 C          15.8082  -24.9238  -44.7223 C.2       0 UNK         0.4866 
      3 O          16.7373  -25.3280  -45.4208 O.2       0 UNK        -0.5176 
      4 N          15.2767  -25.6567  -43.7353 N.am      1 UNK        -0.4884 
      5 CA         15.6952  -27.0098  -43.3473 C.3       1 UNK         0.0853 
      6 C6         14.5182  -27.7543  -42.6636 C.3       10 UNK        -0.0849 
      7 S7         14.7712  -29.5419  -42.3902 S.3       10 UNK        -0.2776 
      8 C8         14.6752  -30.2291  -44.0756 C.3       10 UNK         0.0316 
      9 C9         16.0566  -30.4020  -44.6940 C.ar      10 UNK        -0.0863 
     10 C10        16.9807  -31.2656  -44.0981 C.ar      10 UNK        -0.1009 
     11 C11        18.2468  -31.4513  -44.6580 C.ar      10 UNK        -0.0712 
     12 C12        18.5789  -30.7860  -45.8402 C.ar      10 UNK        -0.0894 
     13 C13        17.6682  -29.9133  -46.4445 C.ar      10 UNK        -0.0745 
     14 C14        16.4074  -29.7267  -45.8676 C.ar      10 UNK        -0.0972 
     15 C15        18.0309  -29.1895  -47.7335 C.3       10 UNK         0.0209 
     16 S16        18.7658  -27.5529  -47.4183 S.3       10 UNK        -0.2568 
     17 C17        20.4978  -27.9879  -47.0443 C.3       10 UNK        -0.0983 
     18 CA         21.1189  -27.1362  -45.9100 C.3       3 UNK         0.0876 
     19 N          20.3119  -27.1453  -44.6848 N.am      3 UNK        -0.4424 
     20 C          20.4667  -26.2756  -43.6765 C.2       2 UNK         0.4918 
     21 O          21.3687  -25.4378  -43.6338 O.2       2 UNK        -0.4875 
     22 CA         19.4058  -26.3151  -42.5645 C.3       2 UNK         0.0481 
     23 CB         19.4518  -25.0796  -41.6422 C.3       2 UNK        -0.1831 
     24 N          18.0741  -26.4740  -43.1438 N.am      2 UNK        -0.4498 
     25 C          17.0004  -26.9673  -42.5172 C.2       1 UNK         0.5027 
     26 O          17.0114  -27.3345  -41.3408 O.2       1 UNK        -0.4969 
     27 C          22.5805  -27.5703  -45.6798 C.2       3 UNK         0.5005 
     28 O          23.4752  -27.0342  -46.3366 O.2       3 UNK        -0.5279 
     29 N          22.7972  -28.5513  -44.7917 N.am      4 UNK        -0.4463 
     30 CA         24.1142  -29.1398  -44.5387 C.3       4 UNK         0.0283 
     31 CB         23.9431  -30.5631  -43.9917 C.3       4 UNK        -0.1875 
     32 C          24.9590  -28.3021  -43.5710 C.2       4 UNK         0.4949 
     33 O          26.1741  -28.2185  -43.7514 O.2       4 UNK        -0.5039 
     34 N          24.3110  -27.7391  -42.5414 N.am      5 UNK        -0.4663 
     35 CA         24.8445  -26.9355  -41.4315 C.3       5 UNK         0.0242 
     36 CB         25.5250  -25.6496  -41.9389 C.3       5 UNK        -0.1982 
     37 C          25.7583  -27.7100  -40.4622 C.2       5 UNK         0.5017 
     38 O          25.6003  -27.5702  -39.2497 O.2       5 UNK        -0.5012 
     39 N          26.6871  -28.5073  -41.0031 N.am      6 UNK        -0.4439 
     40 CA         27.6226  -29.3541  -40.2590 C.3       6 UNK         0.0297 
     41 CB         28.8453  -29.6409  -41.1460 C.3       6 UNK        -0.2006 
     42 C          26.9977  -30.6736  -39.7684 C.2       6 UNK         0.4892 
     43 O          27.5310  -31.2723  -38.8328 O.2       6 UNK        -0.5089 
     44 N          25.9054  -31.1122  -40.4093 N.am      7 UNK        -0.4243 
     45 CA         25.1407  -32.3092  -40.0477 C.3       7 UNK         0.0196 
     46 CB         24.6198  -32.9805  -41.3346 C.3       7 UNK        -0.2007 
     47 C          24.0026  -31.9554  -39.0708 C.2       7 UNK         0.5020 
     48 O          24.0236  -30.8889  -38.4539 O.2       7 UNK        -0.5147 
     49 N          23.0183  -32.8576  -38.9439 N.am      8 UNK        -0.4734 
     50 CA         21.8204  -32.6726  -38.1146 C.3       8 UNK         0.0238 
     51 CB         21.0118  -33.9796  -38.0768 C.3       8 UNK        -0.1912 
     52 C          20.9372  -31.5004  -38.5792 C.2       8 UNK         0.5038 
     53 O          20.4020  -30.7775  -37.7375 O.2       8 UNK        -0.5046 
     54 N          20.8305  -31.3188  -39.9017 N.am      9 UNK        -0.4200 
     55 CA         20.2250  -30.1470  -40.5421 C.3       9 UNK         0.0839 
     56 C          21.2600  -28.9960  -40.6582 C.2       9 UNK         0.5513 
     57 N          21.5737  -28.3333  -39.5541 N.am      9 UNK        -0.7519 
     58 O          21.7734  -28.6938  -41.7328 O.2       9 UNK        -0.4960 
     59 C59        19.5080  -30.5059  -41.8717 C.3       10 UNK        -0.0876 
     60 S60        20.5274  -31.4167  -43.0860 S.3       10 UNK        -0.2414 
     61 C61        19.2582  -32.3658  -43.9821 C.3       10 UNK         0.0169 
     62 H62        16.0031  -22.7808  -44.8190 H         1 UNK         0.0903 
     63 H63        14.8538  -23.4561  -45.9767 H         1 UNK         0.0903 
     64 H64        14.4110  -23.3139  -44.2744 H         1 UNK         0.0903 
     65 H65        14.5401  -25.2541  -43.1724 H         1 UNK         0.3096 
     66 H66        15.9341  -27.5512  -44.2629 H         1 UNK         0.1121 
     67 H67        13.6120  -27.6411  -43.2612 H         1 UNK         0.0849 
     68 H68        14.2909  -27.2951  -41.6996 H         1 UNK         0.0849 
     69 H69        14.1925  -31.2062  -44.0262 H         1 UNK         0.0865 
     70 H70        14.0335  -29.6061  -44.7007 H         1 UNK         0.0865 
     71 H71        16.7133  -31.7866  -43.1888 H         1 UNK         0.1346 
     72 H72        19.5512  -30.9509  -46.2819 H         1 UNK         0.1412 
     73 H73        15.6988  -29.0595  -46.3398 H         1 UNK         0.1426 
     74 H74        17.1350  -29.0555  -48.3416 H         1 UNK         0.0716 
     75 H75        18.7135  -29.7924  -48.3346 H         1 UNK         0.0716 
     76 H76        21.0697  -27.8614  -47.9658 H         1 UNK         0.0695 
     77 H77        20.5654  -29.0464  -46.7976 H         1 UNK         0.0695 
     78 H78        21.1518  -26.1018  -46.2603 H         1 UNK         0.0983 
     79 H79        19.5387  -27.7941  -44.6642 H         1 UNK         0.3095 
     80 H80        19.6141  -27.1948  -41.9603 H         1 UNK         0.0454 
     81 H81        19.2438  -24.1615  -42.1924 H         1 UNK         0.0851 
     82 H82        20.4347  -24.9722  -41.1816 H         1 UNK         0.0851 
     83 H83        18.7277  -25.1566  -40.8314 H         1 UNK         0.0851 
     84 H84        17.9475  -26.1340  -44.0952 H         1 UNK         0.2976 
     85 H85        22.0202  -28.9065  -44.2499 H         1 UNK         0.3116 
     86 H86        24.6583  -29.2094  -45.4834 H         1 UNK         0.0646 
     87 H87        23.3868  -31.1933  -44.6858 H         1 UNK         0.0847 
     88 H88        23.4097  -30.5586  -43.0415 H         1 UNK         0.0847 
     89 H89        24.9107  -31.0385  -43.8261 H         1 UNK         0.0847 
     90 H90        23.3204  -27.9604  -42.4518 H         1 UNK         0.3040 
     91 H91        23.9711  -26.6303  -40.8533 H         1 UNK         0.1015 
     92 H92        26.4241  -25.8609  -42.5183 H         1 UNK         0.0786 
     93 H93        25.8210  -25.0122  -41.1046 H         1 UNK         0.0786 
     94 H94        24.8498  -25.0686  -42.5675 H         1 UNK         0.0786 
     95 H95        26.7412  -28.5231  -42.0200 H         1 UNK         0.3172 
     96 H96        27.9633  -28.8048  -39.3787 H         1 UNK         0.0595 
     97 H97        28.5689  -30.1799  -42.0532 H         1 UNK         0.0839 
     98 H98        29.5791  -30.2495  -40.6156 H         1 UNK         0.0839 
     99 H99        29.3456  -28.7188  -41.4427 H         1 UNK         0.0839 
    100 H100       25.5092  -30.5188  -41.1217 H         1 UNK         0.2998 
    101 H101       25.7984  -33.0180  -39.5400 H         1 UNK         0.0822 
    102 H102       25.4017  -33.0547  -42.0908 H         1 UNK         0.0787 
    103 H103       24.2775  -33.9972  -41.1390 H         1 UNK         0.0787 
    104 H104       23.7825  -32.4354  -41.7690 H         1 UNK         0.0787 
    105 H105       23.0797  -33.7181  -39.4694 H         1 UNK         0.3055 
    106 H106       22.1514  -32.4448  -37.0987 H         1 UNK         0.1106 
    107 H107       20.6729  -34.2771  -39.0699 H         1 UNK         0.0828 
    108 H108       20.1254  -33.8708  -37.4499 H         1 UNK         0.0828 
    109 H109       21.5995  -34.7988  -37.6620 H         1 UNK         0.0828 
    110 H110       21.3218  -31.9477  -40.5189 H         1 UNK         0.2931 
    111 H111       19.4357  -29.7686  -39.8888 H         1 UNK         0.0412 
    112 H112       21.1788  -28.6138  -38.6683 H         1 UNK         0.3472 
    113 H113       22.2452  -27.5854  -39.5912 H         1 UNK         0.3472 
    114 H114       19.1135  -29.6078  -42.3500 H         1 UNK         0.0970 
    115 H115       18.6344  -31.1142  -41.6345 H         1 UNK         0.0970 
    116 H116       19.7468  -32.9889  -44.7325 H         1 UNK         0.0612 
    117 H117       18.7632  -33.0493  -43.2904 H         1 UNK         0.0612 
@<TRIPOS>BOND
     1    1    2 1    
     2    1   62 1    
     3    1   63 1    
     4    1   64 1    
     5    2    3 2    
     6    2    4 am   BACKBONE|DICT|INTERRES
     7    4    5 1    
     8    4   65 1    
     9    5    6 1    
    10    5   25 1    
    11    5   66 1    
    12    6    7 1    
    13    6   67 1    
    14    6   68 1    
    15    7    8 1    
    16    8    9 1    
    17    8   69 1    
    18    8   70 1    
    19    9   10 ar   
    20    9   14 ar   
    21   10   11 ar   
    22   10   71 1    
    23   11   12 ar   
    24   11   61 1    
    25   12   13 ar   
    26   12   72 1    
    27   13   14 ar   
    28   13   15 1    
    29   14   73 1    
    30   15   16 1    
    31   15   74 1    
    32   15   75 1    
    33   16   17 1    
    34   17   18 1    
    35   17   76 1    
    36   17   77 1    
    37   18   19 1    
    38   18   27 1    
    39   18   78 1    
    40   19   20 am   BACKBONE|DICT|INTERRES
    41   19   79 1    
    42   20   21 2    
    43   20   22 1    
    44   22   23 1    
    45   22   24 1    
    46   22   80 1    
    47   23   81 1    
    48   23   82 1    
    49   23   83 1    
    50   24   25 am   BACKBONE|DICT|INTERRES
    51   24   84 1    
    52   25   26 2    
    53   27   28 2    
    54   27   29 am   BACKBONE|DICT|INTERRES
    55   29   30 1    
    56   29   85 1    
    57   30   31 1    
    58   30   32 1    
    59   30   86 1    
    60   31   87 1    
    61   31   88 1    
    62   31   89 1    
    63   32   33 2    
    64   32   34 am   BACKBONE|DICT|INTERRES
    65   34   35 1    
    66   34   90 1    
    67   35   36 1    
    68   35   37 1    
    69   35   91 1    
    70   36   92 1    
    71   36   93 1    
    72   36   94 1    
    73   37   38 2    
    74   37   39 am   BACKBONE|DICT|INTERRES
    75   39   40 1    
    76   39   95 1    
    77   40   41 1    
    78   40   42 1    
    79   40   96 1    
    80   41   97 1    
    81   41   98 1    
    82   41   99 1    
    83   42   43 2    
    84   42   44 am   BACKBONE|DICT|INTERRES
    85   44   45 1    
    86   44  100 1    
    87   45   46 1    
    88   45   47 1    
    89   45  101 1    
    90   46  102 1    
    91   46  103 1    
    92   46  104 1    
    93   47   48 2    
    94   47   49 am   BACKBONE|DICT|INTERRES
    95   49   50 1    
    96   49  105 1    
    97   50   51 1    
    98   50   52 1    
    99   50  106 1    
   100   51  107 1    
   101   51  108 1    
   102   51  109 1    
   103   52   53 2    
   104   52   54 am   BACKBONE|DICT|INTERRES
   105   54   55 1    
   106   54  110 1    
   107   55   56 1    
   108   55   59 1    
   109   55  111 1    
   110   56   57 am   BACKBONE|DICT|INTERRES
   111   56   58 2    
   112   57  112 1    
   113   57  113 1    
   114   59   60 1    
   115   59  114 1    
   116   59  115 1    
   117   60   61 1    
   118   61  116 1    
   119   61  117 1    
@<TRIPOS>SUBSTRUCTURE
     1 UNK         1 GROUP             0       ****    0 ROOT    
