@<TRIPOS>MOLECULE
3R8
117   119    1
SMALL
USER_CHARGES


@<TRIPOS>ATOM
      1 CA         13.5890  -22.9024  -48.2830 C.3       0 UNK        -0.2013 
      2 C          14.4861  -24.1312  -48.2977 C.2       0 UNK         0.4866 
      3 O          15.0710  -24.4499  -49.3338 O.2       0 UNK        -0.5176 
      4 N          14.5936  -24.8284  -47.1596 N.am      1 UNK        -0.4884 
      5 CA         15.4679  -25.9911  -46.9754 C.3       1 UNK         0.0853 
      6 C6         15.0444  -26.8130  -45.7312 C.3       10 UNK        -0.0849 
      7 S7         15.5806  -28.5541  -45.8299 S.3       10 UNK        -0.2776 
      8 C8         15.0743  -29.1795  -44.1963 C.3       10 UNK         0.0316 
      9 C9         16.1330  -28.9217  -43.1328 C.ar      10 UNK        -0.0863 
     10 C10        17.1417  -29.8644  -42.9073 C.ar      10 UNK        -0.1009 
     11 C11        18.1025  -29.6514  -41.9145 C.ar      10 UNK        -0.0712 
     12 C12        18.0468  -28.4909  -41.1394 C.ar      10 UNK        -0.0894 
     13 C13        17.0621  -27.5266  -41.3752 C.ar      10 UNK        -0.0745 
     14 C14        16.0994  -27.7538  -42.3640 C.ar      10 UNK        -0.0972 
     15 C15        17.0516  -26.2317  -40.5742 C.3       10 UNK         0.0209 
     16 S16        18.6128  -25.3033  -40.7426 S.3       10 UNK        -0.2568 
     17 C17        18.6724  -24.9613  -42.5363 C.3       10 UNK        -0.0983 
     18 CA         19.5361  -25.9703  -43.3385 C.3       3 UNK         0.0876 
     19 N          19.3165  -25.8063  -44.7745 N.am      3 UNK        -0.4424 
     20 C          19.7435  -26.6358  -45.7337 C.2       2 UNK         0.4918 
     21 O          20.3983  -27.6573  -45.5226 O.2       2 UNK        -0.4875 
     22 CA         19.3089  -26.2770  -47.1684 C.3       2 UNK         0.0481 
     23 CB         20.0128  -27.1381  -48.2334 C.3       2 UNK        -0.1831 
     24 N          17.8594  -26.4254  -47.3174 N.am      2 UNK        -0.4498 
     25 C          16.9441  -25.5537  -46.8744 C.2       1 UNK         0.5027 
     26 O          17.2315  -24.4726  -46.3502 O.2       1 UNK        -0.4969 
     27 C          21.0349  -25.8826  -42.9809 C.2       3 UNK         0.5005 
     28 O          21.7439  -25.0162  -43.5011 O.2       3 UNK        -0.5279 
     29 N          21.4740  -26.7700  -42.0849 N.am      4 UNK        -0.4463 
     30 CA         22.8274  -26.8809  -41.5558 C.3       4 UNK         0.0283 
     31 CB         23.7290  -27.6107  -42.5719 C.3       4 UNK        -0.1875 
     32 C          22.7556  -27.6438  -40.2266 C.2       4 UNK         0.4949 
     33 O          21.6967  -28.1767  -39.8804 O.2       4 UNK        -0.5039 
     34 N          23.8886  -27.7060  -39.5153 N.am      5 UNK        -0.4663 
     35 CA         24.0726  -28.5507  -38.3311 C.3       5 UNK         0.0242 
     36 CB         25.4181  -28.2079  -37.6721 C.3       5 UNK        -0.1982 
     37 C          24.0310  -30.0398  -38.7106 C.2       5 UNK         0.5017 
     38 O          24.4882  -30.3937  -39.7990 O.2       5 UNK        -0.5012 
     39 N          23.5160  -30.8864  -37.8092 N.am      6 UNK        -0.4439 
     40 CA         23.2295  -32.3118  -38.0353 C.3       6 UNK         0.0297 
     41 CB         22.6204  -32.9107  -36.7570 C.3       6 UNK        -0.2006 
     42 C          24.4129  -33.1758  -38.5165 C.2       6 UNK         0.4892 
     43 O          24.1806  -34.1996  -39.1590 O.2       6 UNK        -0.5089 
     44 N          25.6478  -32.7522  -38.2157 N.am      7 UNK        -0.4243 
     45 CA         26.8808  -33.3804  -38.6962 C.3       7 UNK         0.0196 
     46 CB         28.0604  -32.8802  -37.8464 C.3       7 UNK        -0.2007 
     47 C          27.1564  -33.1304  -40.1922 C.2       7 UNK         0.5020 
     48 O          27.8504  -33.9375  -40.8113 O.2       7 UNK        -0.5147 
     49 N          26.6364  -32.0238  -40.7401 N.am      8 UNK        -0.4734 
     50 CA         26.8181  -31.6103  -42.1343 C.3       8 UNK         0.0238 
     51 CB         27.2546  -30.1356  -42.1610 C.3       8 UNK        -0.1912 
     52 C          25.5401  -31.7960  -42.9670 C.2       8 UNK         0.5038 
     53 O          25.6434  -32.0790  -44.1614 O.2       8 UNK        -0.5046 
     54 N          24.3718  -31.6116  -42.3383 N.am      9 UNK        -0.4200 
     55 CA         23.0406  -31.7236  -42.9502 C.3       9 UNK         0.0839 
     56 C          22.7208  -33.1417  -43.5008 C.2       9 UNK         0.5513 
     57 N          21.9005  -33.2302  -44.5387 N.am      9 UNK        -0.7519 
     58 O          23.1726  -34.1569  -42.9754 O.2       9 UNK        -0.4960 
     59 C59        21.9426  -31.2305  -41.9688 C.3       10 UNK        -0.0876 
     60 S60        20.6049  -30.3314  -42.8150 S.3       10 UNK        -0.2414 
     61 C61        19.2174  -30.6580  -41.6895 C.3       10 UNK         0.0169 
     62 H62        12.7964  -23.0074  -49.0234 H         1 UNK         0.0903 
     63 H63        13.1247  -22.7473  -47.3093 H         1 UNK         0.0903 
     64 H64        14.1685  -22.0126  -48.5276 H         1 UNK         0.0903 
     65 H65        14.1200  -24.4978  -46.3307 H         1 UNK         0.3096 
     66 H66        15.3570  -26.6184  -47.8636 H         1 UNK         0.1121 
     67 H67        15.4151  -26.3571  -44.8116 H         1 UNK         0.0849 
     68 H68        13.9564  -26.8242  -45.6443 H         1 UNK         0.0849 
     69 H69        14.1209  -28.7363  -43.9043 H         1 UNK         0.0865 
     70 H70        14.8915  -30.2523  -44.2762 H         1 UNK         0.0865 
     71 H71        17.1845  -30.7620  -43.5092 H         1 UNK         0.1346 
     72 H72        18.7935  -28.3191  -40.3752 H         1 UNK         0.1412 
     73 H73        15.3252  -27.0194  -42.5380 H         1 UNK         0.1426 
     74 H74        16.2226  -25.5894  -40.8756 H         1 UNK         0.0716 
     75 H75        16.8925  -26.4675  -39.5211 H         1 UNK         0.0716 
     76 H76        19.0422  -23.9443  -42.6800 H         1 UNK         0.0695 
     77 H77        17.6494  -24.9606  -42.9170 H         1 UNK         0.0695 
     78 H78        19.1963  -26.9805  -43.1064 H         1 UNK         0.0983 
     79 H79        18.7583  -25.0105  -45.0610 H         1 UNK         0.3095 
     80 H80        19.5835  -25.2356  -47.3493 H         1 UNK         0.0454 
     81 H81        19.7326  -26.8306  -49.2409 H         1 UNK         0.0851 
     82 H82        19.7708  -28.1961  -48.1256 H         1 UNK         0.0851 
     83 H83        21.0967  -27.0426  -48.1566 H         1 UNK         0.0851 
     84 H84        17.5392  -27.3153  -47.6736 H         1 UNK         0.2976 
     85 H85        20.8235  -27.4155  -41.6507 H         1 UNK         0.3116 
     86 H86        23.2198  -25.8812  -41.3585 H         1 UNK         0.0646 
     87 H87        23.7731  -27.0771  -43.5213 H         1 UNK         0.0847 
     88 H88        24.7523  -27.6982  -42.2066 H         1 UNK         0.0847 
     89 H89        23.3683  -28.6193  -42.7753 H         1 UNK         0.0847 
     90 H90        24.7168  -27.2597  -39.8816 H         1 UNK         0.3040 
     91 H91        23.2633  -28.3386  -37.6286 H         1 UNK         0.1015 
     92 H92        26.2578  -28.4080  -38.3395 H         1 UNK         0.0786 
     93 H93        25.5735  -28.7971  -36.7673 H         1 UNK         0.0786 
     94 H94        25.4622  -27.1576  -37.3831 H         1 UNK         0.0786 
     95 H95        23.1977  -30.5073  -36.9284 H         1 UNK         0.3172 
     96 H96        22.4724  -32.3572  -38.8209 H         1 UNK         0.0595 
     97 H97        23.3121  -32.8537  -35.9156 H         1 UNK         0.0839 
     98 H98        22.3676  -33.9626  -36.8991 H         1 UNK         0.0839 
     99 H99        21.7013  -32.3971  -36.4741 H         1 UNK         0.0839 
    100 H100       25.7438  -31.9046  -37.6761 H         1 UNK         0.2998 
    101 H101       26.7923  -34.4600  -38.5556 H         1 UNK         0.0822 
    102 H102       27.9182  -33.1154  -36.7914 H         1 UNK         0.0787 
    103 H103       28.9935  -33.3516  -38.1586 H         1 UNK         0.0787 
    104 H104       28.1946  -31.8014  -37.9365 H         1 UNK         0.0787 
    105 H105       26.0301  -31.4365  -40.1744 H         1 UNK         0.3055 
    106 H106       27.6031  -32.2042  -42.6080 H         1 UNK         0.1106 
    107 H107       28.2035  -29.9956  -41.6431 H         1 UNK         0.0828 
    108 H108       27.3899  -29.7852  -43.1852 H         1 UNK         0.0828 
    109 H109       26.5166  -29.4869  -41.6874 H         1 UNK         0.0828 
    110 H110       24.3918  -31.3343  -41.3616 H         1 UNK         0.2931 
    111 H111       23.0711  -31.0444  -43.8050 H         1 UNK         0.0412 
    112 H112       21.4986  -32.4014  -44.9493 H         1 UNK         0.3472 
    113 H113       21.6652  -34.1391  -44.9058 H         1 UNK         0.3472 
    114 H114       21.5383  -32.0520  -41.3736 H         1 UNK         0.0970 
    115 H115       22.3545  -30.5259  -41.2478 H         1 UNK         0.0970 
    116 H116       18.8527  -31.6745  -41.8450 H         1 UNK         0.0612 
    117 H117       19.5647  -30.6032  -40.6561 H         1 UNK         0.0612 
@<TRIPOS>BOND
     1    1    2 1    
     2    1   62 1    
     3    1   63 1    
     4    1   64 1    
     5    2    3 2    
     6    2    4 am   BACKBONE|DICT|INTERRES
     7    4    5 1    
     8    4   65 1    
     9    5    6 1    
    10    5   25 1    
    11    5   66 1    
    12    6    7 1    
    13    6   67 1    
    14    6   68 1    
    15    7    8 1    
    16    8    9 1    
    17    8   69 1    
    18    8   70 1    
    19    9   10 ar   
    20    9   14 ar   
    21   10   11 ar   
    22   10   71 1    
    23   11   12 ar   
    24   11   61 1    
    25   12   13 ar   
    26   12   72 1    
    27   13   14 ar   
    28   13   15 1    
    29   14   73 1    
    30   15   16 1    
    31   15   74 1    
    32   15   75 1    
    33   16   17 1    
    34   17   18 1    
    35   17   76 1    
    36   17   77 1    
    37   18   19 1    
    38   18   27 1    
    39   18   78 1    
    40   19   20 am   BACKBONE|DICT|INTERRES
    41   19   79 1    
    42   20   21 2    
    43   20   22 1    
    44   22   23 1    
    45   22   24 1    
    46   22   80 1    
    47   23   81 1    
    48   23   82 1    
    49   23   83 1    
    50   24   25 am   BACKBONE|DICT|INTERRES
    51   24   84 1    
    52   25   26 2    
    53   27   28 2    
    54   27   29 am   BACKBONE|DICT|INTERRES
    55   29   30 1    
    56   29   85 1    
    57   30   31 1    
    58   30   32 1    
    59   30   86 1    
    60   31   87 1    
    61   31   88 1    
    62   31   89 1    
    63   32   33 2    
    64   32   34 am   BACKBONE|DICT|INTERRES
    65   34   35 1    
    66   34   90 1    
    67   35   36 1    
    68   35   37 1    
    69   35   91 1    
    70   36   92 1    
    71   36   93 1    
    72   36   94 1    
    73   37   38 2    
    74   37   39 am   BACKBONE|DICT|INTERRES
    75   39   40 1    
    76   39   95 1    
    77   40   41 1    
    78   40   42 1    
    79   40   96 1    
    80   41   97 1    
    81   41   98 1    
    82   41   99 1    
    83   42   43 2    
    84   42   44 am   BACKBONE|DICT|INTERRES
    85   44   45 1    
    86   44  100 1    
    87   45   46 1    
    88   45   47 1    
    89   45  101 1    
    90   46  102 1    
    91   46  103 1    
    92   46  104 1    
    93   47   48 2    
    94   47   49 am   BACKBONE|DICT|INTERRES
    95   49   50 1    
    96   49  105 1    
    97   50   51 1    
    98   50   52 1    
    99   50  106 1    
   100   51  107 1    
   101   51  108 1    
   102   51  109 1    
   103   52   53 2    
   104   52   54 am   BACKBONE|DICT|INTERRES
   105   54   55 1    
   106   54  110 1    
   107   55   56 1    
   108   55   59 1    
   109   55  111 1    
   110   56   57 am   BACKBONE|DICT|INTERRES
   111   56   58 2    
   112   57  112 1    
   113   57  113 1    
   114   59   60 1    
   115   59  114 1    
   116   59  115 1    
   117   60   61 1    
   118   61  116 1    
   119   61  117 1    
@<TRIPOS>SUBSTRUCTURE
     1 UNK         1 GROUP             0       ****    0 ROOT    
