@<TRIPOS>MOLECULE
3R8
117   119    1
SMALL
USER_CHARGES


@<TRIPOS>ATOM
      1 CA         16.8282  -23.1534  -41.9363 C.3       0 UNK        -0.2013 
      2 C          16.9874  -24.4487  -42.7179 C.2       0 UNK         0.4866 
      3 O          17.5095  -25.4246  -42.1783 O.2       0 UNK        -0.5176 
      4 N          16.5379  -24.4642  -43.9824 N.am      1 UNK        -0.4884 
      5 CA         16.6555  -25.5874  -44.9232 C.3       1 UNK         0.0853 
      6 C6         15.8614  -26.8344  -44.4382 C.3       10 UNK        -0.0849 
      7 S7         15.4810  -28.0440  -45.7521 S.3       10 UNK        -0.2776 
      8 C8         15.0912  -29.5274  -44.7675 C.3       10 UNK         0.0316 
      9 C9         16.3378  -30.1878  -44.1912 C.ar      10 UNK        -0.0863 
     10 C10        17.0320  -31.1501  -44.9344 C.ar      10 UNK        -0.1009 
     11 C11        18.1510  -31.7906  -44.3923 C.ar      10 UNK        -0.0712 
     12 C12        18.5810  -31.4496  -43.1092 C.ar      10 UNK        -0.0894 
     13 C13        17.9020  -30.4891  -42.3569 C.ar      10 UNK        -0.0745 
     14 C14        16.7735  -29.8696  -42.8992 C.ar      10 UNK        -0.0972 
     15 C15        18.3548  -30.1765  -40.9381 C.3       10 UNK         0.0209 
     16 S16        20.1291  -29.7723  -40.8506 S.3       10 UNK        -0.2568 
     17 C17        20.1432  -27.9516  -40.8389 C.3       10 UNK        -0.0983 
     18 CA         20.9744  -27.3619  -42.0075 C.3       3 UNK         0.0876 
     19 N          20.2651  -27.4677  -43.2860 N.am      3 UNK        -0.4424 
     20 C          20.8312  -27.4294  -44.5008 C.2       2 UNK         0.4918 
     21 O          22.0433  -27.3061  -44.6825 O.2       2 UNK        -0.4875 
     22 CA         19.9029  -27.5380  -45.7234 C.3       2 UNK         0.0481 
     23 CB         19.8914  -28.9746  -46.2641 C.3       2 UNK        -0.1831 
     24 N          18.5295  -27.1172  -45.4423 N.am      2 UNK        -0.4498 
     25 C          18.1435  -25.8465  -45.2692 C.2       1 UNK         0.5027 
     26 O          18.9126  -24.8883  -45.3828 O.2       1 UNK        -0.4969 
     27 C          21.4209  -25.9081  -41.7314 C.2       3 UNK         0.5005 
     28 O          20.9264  -25.2694  -40.8003 O.2       3 UNK        -0.5279 
     29 N          22.3466  -25.4029  -42.5573 N.am      4 UNK        -0.4463 
     30 CA         22.9000  -24.0511  -42.4667 C.3       4 UNK         0.0283 
     31 CB         23.6478  -23.7152  -43.7670 C.3       4 UNK        -0.1875 
     32 C          23.8151  -23.8502  -41.2463 C.2       4 UNK         0.4949 
     33 O          23.7506  -22.7926  -40.6171 O.2       4 UNK        -0.5039 
     34 N          24.6523  -24.8519  -40.9396 N.am      5 UNK        -0.4663 
     35 CA         25.6401  -24.7918  -39.8535 C.3       5 UNK         0.0242 
     36 CB         26.9161  -24.0880  -40.3610 C.3       5 UNK        -0.1982 
     37 C          25.9713  -26.1623  -39.2330 C.2       5 UNK         0.5017 
     38 O          26.8066  -26.2154  -38.3285 O.2       5 UNK        -0.5012 
     39 N          25.3430  -27.2437  -39.7090 N.am      6 UNK        -0.4439 
     40 CA         25.5626  -28.6230  -39.2759 C.3       6 UNK         0.0297 
     41 CB         26.8925  -29.1561  -39.8478 C.3       6 UNK        -0.2006 
     42 C          24.3820  -29.4719  -39.7606 C.2       6 UNK         0.4892 
     43 O          23.6094  -29.0029  -40.5996 O.2       6 UNK        -0.5089 
     44 N          24.2745  -30.7018  -39.2396 N.am      7 UNK        -0.4243 
     45 CA         23.2848  -31.7028  -39.6452 C.3       7 UNK         0.0196 
     46 CB         23.2829  -32.8583  -38.6288 C.3       7 UNK        -0.2007 
     47 C          23.5725  -32.2016  -41.0721 C.2       7 UNK         0.5020 
     48 O          24.4663  -33.0279  -41.2610 O.2       7 UNK        -0.5147 
     49 N          22.8423  -31.6563  -42.0510 N.am      8 UNK        -0.4734 
     50 CA         23.0971  -31.8463  -43.4826 C.3       8 UNK         0.0238 
     51 CB         22.3639  -30.7474  -44.2633 C.3       8 UNK        -0.1912 
     52 C          22.7395  -33.2372  -44.0347 C.2       8 UNK         0.5038 
     53 O          23.2865  -33.6215  -45.0692 O.2       8 UNK        -0.5046 
     54 N          21.8382  -33.9590  -43.3608 N.am      9 UNK        -0.4200 
     55 CA         21.3894  -35.3085  -43.7405 C.3       9 UNK         0.0839 
     56 C          21.0453  -36.2090  -42.5197 C.2       9 UNK         0.5513 
     57 N          21.4868  -35.8756  -41.3121 N.am      9 UNK        -0.7519 
     58 O          20.3920  -37.2390  -42.6656 O.2       9 UNK        -0.4960 
     59 C59        20.3077  -35.2920  -44.8607 C.3       10 UNK        -0.0876 
     60 S60        18.7453  -34.4802  -44.3757 S.3       10 UNK        -0.2414 
     61 C61        18.9107  -32.8513  -45.1727 C.3       10 UNK         0.0169 
     62 H62        17.8022  -22.7988  -41.5994 H         1 UNK         0.0903 
     63 H63        16.3695  -22.3673  -42.5356 H         1 UNK         0.0903 
     64 H64        16.2043  -23.3201  -41.0588 H         1 UNK         0.0903 
     65 H65        16.1475  -23.6176  -44.3736 H         1 UNK         0.3096 
     66 H66        16.1968  -25.2430  -45.8516 H         1 UNK         0.1121 
     67 H67        14.9047  -26.5169  -44.0200 H         1 UNK         0.0849 
     68 H68        16.3903  -27.3166  -43.6189 H         1 UNK         0.0849 
     69 H69        14.3936  -29.2649  -43.9704 H         1 UNK         0.0865 
     70 H70        14.5624  -30.2393  -45.4034 H         1 UNK         0.0865 
     71 H71        16.6934  -31.4079  -45.9287 H         1 UNK         0.1346 
     72 H72        19.4401  -31.9509  -42.6862 H         1 UNK         0.1412 
     73 H73        16.2239  -29.1516  -42.3061 H         1 UNK         0.1426 
     74 H74        18.1747  -31.0585  -40.3223 H         1 UNK         0.0716 
     75 H75        17.7618  -29.3744  -40.4969 H         1 UNK         0.0716 
     76 H76        20.5732  -27.6691  -39.8759 H         1 UNK         0.0695 
     77 H77        19.1282  -27.5505  -40.8463 H         1 UNK         0.0695 
     78 H78        21.8909  -27.9467  -42.0926 H         1 UNK         0.0983 
     79 H79        19.2597  -27.5287  -43.2263 H         1 UNK         0.3095 
     80 H80        20.3063  -26.8887  -46.5033 H         1 UNK         0.0454 
     81 H81        19.2537  -29.0667  -47.1433 H         1 UNK         0.0851 
     82 H82        19.5351  -29.6793  -45.5147 H         1 UNK         0.0851 
     83 H83        20.8938  -29.2880  -46.5576 H         1 UNK         0.0851 
     84 H84        17.8270  -27.8431  -45.3730 H         1 UNK         0.2976 
     85 H85        22.6378  -25.9791  -43.3418 H         1 UNK         0.3116 
     86 H86        22.0644  -23.3541  -42.3710 H         1 UNK         0.0646 
     87 H87        24.4841  -24.3929  -43.9426 H         1 UNK         0.0847 
     88 H88        24.0511  -22.7021  -43.7337 H         1 UNK         0.0847 
     89 H89        22.9845  -23.7699  -44.6308 H         1 UNK         0.0847 
     90 H90        24.6688  -25.6669  -41.5365 H         1 UNK         0.3040 
     91 H91        25.2260  -24.1986  -39.0342 H         1 UNK         0.1015 
     92 H92        27.3730  -24.6350  -41.1871 H         1 UNK         0.0786 
     93 H93        27.6641  -24.0031  -39.5713 H         1 UNK         0.0786 
     94 H94        26.7034  -23.0759  -40.7063 H         1 UNK         0.0786 
     95 H95        24.5921  -27.1549  -40.3815 H         1 UNK         0.3172 
     96 H96        25.5857  -28.6572  -38.1845 H         1 UNK         0.0595 
     97 H97        26.8981  -29.1309  -40.9385 H         1 UNK         0.0839 
     98 H98        27.0700  -30.1887  -39.5450 H         1 UNK         0.0839 
     99 H99        27.7434  -28.5722  -39.4969 H         1 UNK         0.0839 
    100 H100       24.9714  -31.0070  -38.5756 H         1 UNK         0.2998 
    101 H101       22.2976  -31.2396  -39.6213 H         1 UNK         0.0822 
    102 H102       22.5518  -33.6189  -38.9057 H         1 UNK         0.0787 
    103 H103       24.2556  -33.3481  -38.5660 H         1 UNK         0.0787 
    104 H104       23.0200  -32.5070  -37.6308 H         1 UNK         0.0787 
    105 H105       22.1631  -30.9487  -41.7992 H         1 UNK         0.3055 
    106 H106       24.1689  -31.7151  -43.6490 H         1 UNK         0.1106 
    107 H107       22.5033  -30.8648  -45.3388 H         1 UNK         0.0828 
    108 H108       21.2925  -30.7531  -44.0652 H         1 UNK         0.0828 
    109 H109       22.7497  -29.7649  -43.9943 H         1 UNK         0.0828 
    110 H110       21.4256  -33.5741  -42.5245 H         1 UNK         0.2931 
    111 H111       22.2555  -35.8165  -44.1687 H         1 UNK         0.0412 
    112 H112       22.1060  -35.0924  -41.1831 H         1 UNK         0.3472 
    113 H113       21.2623  -36.4721  -40.5309 H         1 UNK         0.3472 
    114 H114       20.0754  -36.3120  -45.1716 H         1 UNK         0.0970 
    115 H115       20.7063  -34.8090  -45.7539 H         1 UNK         0.0970 
    116 H116       18.5542  -32.9164  -46.2016 H         1 UNK         0.0612 
    117 H117       19.9609  -32.5630  -45.2240 H         1 UNK         0.0612 
@<TRIPOS>BOND
     1    1    2 1    
     2    1   62 1    
     3    1   63 1    
     4    1   64 1    
     5    2    3 2    
     6    2    4 am   BACKBONE|DICT|INTERRES
     7    4    5 1    
     8    4   65 1    
     9    5    6 1    
    10    5   25 1    
    11    5   66 1    
    12    6    7 1    
    13    6   67 1    
    14    6   68 1    
    15    7    8 1    
    16    8    9 1    
    17    8   69 1    
    18    8   70 1    
    19    9   10 ar   
    20    9   14 ar   
    21   10   11 ar   
    22   10   71 1    
    23   11   12 ar   
    24   11   61 1    
    25   12   13 ar   
    26   12   72 1    
    27   13   14 ar   
    28   13   15 1    
    29   14   73 1    
    30   15   16 1    
    31   15   74 1    
    32   15   75 1    
    33   16   17 1    
    34   17   18 1    
    35   17   76 1    
    36   17   77 1    
    37   18   19 1    
    38   18   27 1    
    39   18   78 1    
    40   19   20 am   BACKBONE|DICT|INTERRES
    41   19   79 1    
    42   20   21 2    
    43   20   22 1    
    44   22   23 1    
    45   22   24 1    
    46   22   80 1    
    47   23   81 1    
    48   23   82 1    
    49   23   83 1    
    50   24   25 am   BACKBONE|DICT|INTERRES
    51   24   84 1    
    52   25   26 2    
    53   27   28 2    
    54   27   29 am   BACKBONE|DICT|INTERRES
    55   29   30 1    
    56   29   85 1    
    57   30   31 1    
    58   30   32 1    
    59   30   86 1    
    60   31   87 1    
    61   31   88 1    
    62   31   89 1    
    63   32   33 2    
    64   32   34 am   BACKBONE|DICT|INTERRES
    65   34   35 1    
    66   34   90 1    
    67   35   36 1    
    68   35   37 1    
    69   35   91 1    
    70   36   92 1    
    71   36   93 1    
    72   36   94 1    
    73   37   38 2    
    74   37   39 am   BACKBONE|DICT|INTERRES
    75   39   40 1    
    76   39   95 1    
    77   40   41 1    
    78   40   42 1    
    79   40   96 1    
    80   41   97 1    
    81   41   98 1    
    82   41   99 1    
    83   42   43 2    
    84   42   44 am   BACKBONE|DICT|INTERRES
    85   44   45 1    
    86   44  100 1    
    87   45   46 1    
    88   45   47 1    
    89   45  101 1    
    90   46  102 1    
    91   46  103 1    
    92   46  104 1    
    93   47   48 2    
    94   47   49 am   BACKBONE|DICT|INTERRES
    95   49   50 1    
    96   49  105 1    
    97   50   51 1    
    98   50   52 1    
    99   50  106 1    
   100   51  107 1    
   101   51  108 1    
   102   51  109 1    
   103   52   53 2    
   104   52   54 am   BACKBONE|DICT|INTERRES
   105   54   55 1    
   106   54  110 1    
   107   55   56 1    
   108   55   59 1    
   109   55  111 1    
   110   56   57 am   BACKBONE|DICT|INTERRES
   111   56   58 2    
   112   57  112 1    
   113   57  113 1    
   114   59   60 1    
   115   59  114 1    
   116   59  115 1    
   117   60   61 1    
   118   61  116 1    
   119   61  117 1    
@<TRIPOS>SUBSTRUCTURE
     1 UNK         1 GROUP             0       ****    0 ROOT    
