@<TRIPOS>MOLECULE
3R8
117   119    1
SMALL
USER_CHARGES


@<TRIPOS>ATOM
      1 CA         15.6653  -28.2178  -41.5200 C.3       0 UNK        -0.2013 
      2 C          15.6519  -27.0311  -42.4728 C.2       0 UNK         0.4866 
      3 O          14.6737  -26.2841  -42.5018 O.2       0 UNK        -0.5176 
      4 N          16.7254  -26.8492  -43.2490 N.am      1 UNK        -0.4884 
      5 CA         16.9172  -25.7360  -44.1776 C.3       1 UNK         0.0853 
      6 C6         16.1024  -25.8844  -45.4947 C.3       10 UNK        -0.0849 
      7 S7         16.7362  -27.0745  -46.7246 S.3       10 UNK        -0.2776 
      8 C8         16.2575  -28.6966  -46.0296 C.3       10 UNK         0.0316 
      9 C9         17.4548  -29.4756  -45.4901 C.ar      10 UNK        -0.0863 
     10 C10        17.3803  -30.1502  -44.2668 C.ar      10 UNK        -0.1009 
     11 C11        18.4685  -30.8875  -43.7828 C.ar      10 UNK        -0.0712 
     12 C12        19.6433  -30.9378  -44.5498 C.ar      10 UNK        -0.0894 
     13 C13        19.7403  -30.2639  -45.7694 C.ar      10 UNK        -0.0745 
     14 C14        18.6302  -29.5591  -46.2403 C.ar      10 UNK        -0.0972 
     15 C15        21.0273  -30.3490  -46.5888 C.3       10 UNK         0.0209 
     16 S16        21.4174  -28.8065  -47.4882 S.3       10 UNK        -0.2568 
     17 C17        22.8505  -28.1365  -46.5779 C.3       10 UNK        -0.0983 
     18 CA         22.5237  -27.2272  -45.3602 C.3       3 UNK         0.0876 
     19 N          21.4122  -26.3019  -45.6185 N.am      3 UNK        -0.4424 
     20 C          21.3970  -25.0153  -45.2503 C.2       2 UNK         0.4918 
     21 O          22.3076  -24.4734  -44.6230 O.2       2 UNK        -0.4875 
     22 CA         20.1589  -24.1824  -45.6384 C.3       2 UNK         0.0481 
     23 CB         20.2656  -23.7267  -47.1027 C.3       2 UNK        -0.1831 
     24 N          18.8438  -24.8040  -45.4195 N.am      2 UNK        -0.4498 
     25 C          18.4262  -25.4320  -44.3103 C.2       1 UNK         0.5027 
     26 O          19.1784  -25.7408  -43.3843 O.2       1 UNK        -0.4969 
     27 C          22.3653  -28.0300  -44.0524 C.2       3 UNK         0.5005 
     28 O          23.2621  -28.8116  -43.7284 O.2       3 UNK        -0.5279 
     29 N          21.2786  -27.8258  -43.2919 N.am      4 UNK        -0.4463 
     30 CA         20.9781  -28.5883  -42.0735 C.3       4 UNK         0.0283 
     31 CB         19.5560  -28.2730  -41.6023 C.3       4 UNK        -0.1875 
     32 C          21.9797  -28.3836  -40.9276 C.2       4 UNK         0.4949 
     33 O          22.1429  -29.2844  -40.1046 O.2       4 UNK        -0.5039 
     34 N          22.6508  -27.2248  -40.9057 N.am      5 UNK        -0.4663 
     35 CA         23.7325  -26.9174  -39.9681 C.3       5 UNK         0.0242 
     36 CB         24.0020  -25.4043  -39.9854 C.3       5 UNK        -0.1982 
     37 C          25.0242  -27.6989  -40.2691 C.2       5 UNK         0.5017 
     38 O          25.7683  -28.0070  -39.3382 O.2       5 UNK        -0.5012 
     39 N          25.2644  -28.0069  -41.5517 N.am      6 UNK        -0.4439 
     40 CA         26.4106  -28.7895  -42.0175 C.3       6 UNK         0.0297 
     41 CB         26.7676  -28.3775  -43.4555 C.3       6 UNK        -0.2006 
     42 C          26.1243  -30.2957  -41.9379 C.2       6 UNK         0.4892 
     43 O          26.9940  -31.0576  -41.5150 O.2       6 UNK        -0.5089 
     44 N          24.9063  -30.6918  -42.3317 N.am      7 UNK        -0.4243 
     45 CA         24.4183  -32.0723  -42.3000 C.3       7 UNK         0.0196 
     46 CB         23.2057  -32.1775  -43.2353 C.3       7 UNK        -0.2007 
     47 C          24.0719  -32.5837  -40.8871 C.2       7 UNK         0.5020 
     48 O          23.9283  -33.7945  -40.7164 O.2       7 UNK        -0.5147 
     49 N          23.9559  -31.6687  -39.9126 N.am      8 UNK        -0.4734 
     50 CA         23.6245  -31.8922  -38.4996 C.3       8 UNK         0.0238 
     51 CB         24.7073  -32.7406  -37.7979 C.3       8 UNK        -0.1912 
     52 C          22.1987  -32.4450  -38.3169 C.2       8 UNK         0.5038 
     53 O          22.0058  -33.4722  -37.6626 O.2       8 UNK        -0.5046 
     54 N          21.2298  -31.7381  -38.9053 N.am      9 UNK        -0.4200 
     55 CA         19.7921  -32.0520  -38.8790 C.3       9 UNK         0.0839 
     56 C          18.8932  -30.8125  -38.6099 C.2       9 UNK         0.5513 
     57 N          19.4423  -29.6684  -38.2176 N.am      9 UNK        -0.7519 
     58 O          17.6736  -30.8920  -38.7297 O.2       9 UNK        -0.4960 
     59 C59        19.3469  -32.9010  -40.1042 C.3       10 UNK        -0.0876 
     60 S60        19.8813  -32.2208  -41.7104 S.3       10 UNK        -0.2414 
     61 C61        18.3199  -31.6205  -42.4430 C.3       10 UNK         0.0169 
     62 H62        14.8811  -28.9245  -41.7901 H         1 UNK         0.0903 
     63 H63        16.6169  -28.7463  -41.5304 H         1 UNK         0.0903 
     64 H64        15.4820  -27.8811  -40.5000 H         1 UNK         0.0903 
     65 H65        17.5307  -27.4529  -43.1634 H         1 UNK         0.3096 
     66 H66        16.5269  -24.8477  -43.6752 H         1 UNK         0.1121 
     67 H67        15.0665  -26.1409  -45.2676 H         1 UNK         0.0849 
     68 H68        16.0400  -24.9141  -45.9900 H         1 UNK         0.0849 
     69 H69        15.4964  -28.5638  -45.2596 H         1 UNK         0.0865 
     70 H70        15.7918  -29.2880  -46.8188 H         1 UNK         0.0865 
     71 H71        16.4646  -30.1147  -43.6931 H         1 UNK         0.1346 
     72 H72        20.4928  -31.5109  -44.2130 H         1 UNK         0.1412 
     73 H73        18.6782  -29.0673  -47.2016 H         1 UNK         0.1426 
     74 H74        20.9160  -31.1537  -47.3164 H         1 UNK         0.0716 
     75 H75        21.8690  -30.6248  -45.9516 H         1 UNK         0.0716 
     76 H76        23.5305  -28.9489  -46.3139 H         1 UNK         0.0695 
     77 H77        23.4068  -27.5399  -47.3024 H         1 UNK         0.0695 
     78 H78        23.4264  -26.6361  -45.1901 H         1 UNK         0.0983 
     79 H79        20.6271  -26.6824  -46.1283 H         1 UNK         0.3095 
     80 H80        20.1772  -23.2873  -45.0137 H         1 UNK         0.0454 
     81 H81        21.2255  -23.2449  -47.2950 H         1 UNK         0.0851 
     82 H82        20.1784  -24.5658  -47.7941 H         1 UNK         0.0851 
     83 H83        19.4895  -23.0033  -47.3529 H         1 UNK         0.0851 
     84 H84        18.1607  -24.6476  -46.1469 H         1 UNK         0.2976 
     85 H85        20.6043  -27.1168  -43.5640 H         1 UNK         0.3116 
     86 H86        21.0167  -29.6429  -42.3429 H         1 UNK         0.0646 
     87 H87        19.2562  -28.9415  -40.7988 H         1 UNK         0.0847 
     88 H88        18.8463  -28.4130  -42.4127 H         1 UNK         0.0847 
     89 H89        19.4631  -27.2513  -41.2326 H         1 UNK         0.0847 
     90 H90        22.4326  -26.5321  -41.6078 H         1 UNK         0.3040 
     91 H91        23.4063  -27.1972  -38.9636 H         1 UNK         0.1015 
     92 H92        23.1135  -24.8401  -39.7010 H         1 UNK         0.0786 
     93 H93        24.3182  -25.0598  -40.9709 H         1 UNK         0.0786 
     94 H94        24.7908  -25.1408  -39.2791 H         1 UNK         0.0786 
     95 H95        24.5619  -27.7768  -42.2422 H         1 UNK         0.3172 
     96 H96        27.2740  -28.5749  -41.3837 H         1 UNK         0.0595 
     97 H97        27.6354  -28.9329  -43.8140 H         1 UNK         0.0839 
     98 H98        27.0162  -27.3178  -43.5137 H         1 UNK         0.0839 
     99 H99        25.9501  -28.5686  -44.1517 H         1 UNK         0.0839 
    100 H100       24.2736  -29.9983  -42.7267 H         1 UNK         0.2998 
    101 H101       25.2046  -32.7224  -42.6897 H         1 UNK         0.0822 
    102 H102       22.4296  -31.4720  -42.9437 H         1 UNK         0.0787 
    103 H103       23.4811  -31.9607  -44.2675 H         1 UNK         0.0787 
    104 H104       22.7701  -33.1774  -43.2149 H         1 UNK         0.0787 
    105 H105       24.0230  -30.6977  -40.1882 H         1 UNK         0.3055 
    106 H106       23.6286  -30.9081  -38.0275 H         1 UNK         0.1106 
    107 H107       24.7375  -33.7619  -38.1783 H         1 UNK         0.0828 
    108 H108       25.6978  -32.3047  -37.9278 H         1 UNK         0.0828 
    109 H109       24.5180  -32.8016  -36.7255 H         1 UNK         0.0828 
    110 H110       21.4880  -30.9066  -39.4322 H         1 UNK         0.2931 
    111 H111       19.6092  -32.6711  -37.9989 H         1 UNK         0.0412 
    112 H112       18.8463  -28.8792  -38.0257 H         1 UNK         0.3472 
    113 H113       20.4407  -29.5831  -38.1108 H         1 UNK         0.3472 
    114 H114       19.7873  -33.8954  -40.0186 H         1 UNK         0.0970 
    115 H115       18.2680  -33.0654  -40.1053 H         1 UNK         0.0970 
    116 H116       17.6511  -32.4706  -42.5830 H         1 UNK         0.0612 
    117 H117       17.8395  -30.9573  -41.7226 H         1 UNK         0.0612 
@<TRIPOS>BOND
     1    1    2 1    
     2    1   62 1    
     3    1   63 1    
     4    1   64 1    
     5    2    3 2    
     6    2    4 am   BACKBONE|DICT|INTERRES
     7    4    5 1    
     8    4   65 1    
     9    5    6 1    
    10    5   25 1    
    11    5   66 1    
    12    6    7 1    
    13    6   67 1    
    14    6   68 1    
    15    7    8 1    
    16    8    9 1    
    17    8   69 1    
    18    8   70 1    
    19    9   10 ar   
    20    9   14 ar   
    21   10   11 ar   
    22   10   71 1    
    23   11   12 ar   
    24   11   61 1    
    25   12   13 ar   
    26   12   72 1    
    27   13   14 ar   
    28   13   15 1    
    29   14   73 1    
    30   15   16 1    
    31   15   74 1    
    32   15   75 1    
    33   16   17 1    
    34   17   18 1    
    35   17   76 1    
    36   17   77 1    
    37   18   19 1    
    38   18   27 1    
    39   18   78 1    
    40   19   20 am   BACKBONE|DICT|INTERRES
    41   19   79 1    
    42   20   21 2    
    43   20   22 1    
    44   22   23 1    
    45   22   24 1    
    46   22   80 1    
    47   23   81 1    
    48   23   82 1    
    49   23   83 1    
    50   24   25 am   BACKBONE|DICT|INTERRES
    51   24   84 1    
    52   25   26 2    
    53   27   28 2    
    54   27   29 am   BACKBONE|DICT|INTERRES
    55   29   30 1    
    56   29   85 1    
    57   30   31 1    
    58   30   32 1    
    59   30   86 1    
    60   31   87 1    
    61   31   88 1    
    62   31   89 1    
    63   32   33 2    
    64   32   34 am   BACKBONE|DICT|INTERRES
    65   34   35 1    
    66   34   90 1    
    67   35   36 1    
    68   35   37 1    
    69   35   91 1    
    70   36   92 1    
    71   36   93 1    
    72   36   94 1    
    73   37   38 2    
    74   37   39 am   BACKBONE|DICT|INTERRES
    75   39   40 1    
    76   39   95 1    
    77   40   41 1    
    78   40   42 1    
    79   40   96 1    
    80   41   97 1    
    81   41   98 1    
    82   41   99 1    
    83   42   43 2    
    84   42   44 am   BACKBONE|DICT|INTERRES
    85   44   45 1    
    86   44  100 1    
    87   45   46 1    
    88   45   47 1    
    89   45  101 1    
    90   46  102 1    
    91   46  103 1    
    92   46  104 1    
    93   47   48 2    
    94   47   49 am   BACKBONE|DICT|INTERRES
    95   49   50 1    
    96   49  105 1    
    97   50   51 1    
    98   50   52 1    
    99   50  106 1    
   100   51  107 1    
   101   51  108 1    
   102   51  109 1    
   103   52   53 2    
   104   52   54 am   BACKBONE|DICT|INTERRES
   105   54   55 1    
   106   54  110 1    
   107   55   56 1    
   108   55   59 1    
   109   55  111 1    
   110   56   57 am   BACKBONE|DICT|INTERRES
   111   56   58 2    
   112   57  112 1    
   113   57  113 1    
   114   59   60 1    
   115   59  114 1    
   116   59  115 1    
   117   60   61 1    
   118   61  116 1    
   119   61  117 1    
@<TRIPOS>SUBSTRUCTURE
     1 UNK         1 GROUP             0       ****    0 ROOT    
