@<TRIPOS>MOLECULE
3R8
117   119    1
SMALL
USER_CHARGES


@<TRIPOS>ATOM
      1 CA         14.7611  -25.4465  -41.1818 C.3       0 UNK        -0.2013 
      2 C          15.5968  -25.1394  -42.4155 C.2       0 UNK         0.4866 
      3 O          15.7717  -23.9704  -42.7616 O.2       0 UNK        -0.5176 
      4 N          16.1063  -26.1796  -43.0863 N.am      1 UNK        -0.4884 
      5 CA         16.9829  -26.0698  -44.2565 C.3       1 UNK         0.0853 
      6 C6         17.1340  -27.4249  -44.9848 C.3       10 UNK        -0.0849 
      7 S7         15.5939  -27.9813  -45.7905 S.3       10 UNK        -0.2776 
      8 C8         15.5337  -29.7570  -45.3471 C.3       10 UNK         0.0316 
      9 C9         16.8366  -30.5300  -45.5686 C.ar      10 UNK        -0.0863 
     10 C10        17.1440  -31.5976  -44.7177 C.ar      10 UNK        -0.1009 
     11 C11        18.3445  -32.3003  -44.8572 C.ar      10 UNK        -0.0712 
     12 C12        19.2502  -31.9223  -45.8516 C.ar      10 UNK        -0.0894 
     13 C13        18.9633  -30.8532  -46.7031 C.ar      10 UNK        -0.0745 
     14 C14        17.7406  -30.1881  -46.5834 C.ar      10 UNK        -0.0972 
     15 C15        20.0004  -30.3796  -47.7118 C.3       10 UNK         0.0209 
     16 S16        20.7099  -28.7600  -47.2532 S.3       10 UNK        -0.2568 
     17 C17        21.2614  -29.0586  -45.5369 C.3       10 UNK        -0.0983 
     18 CA         21.9643  -27.8378  -44.8921 C.3       3 UNK         0.0876 
     19 N          21.1546  -26.6176  -44.9989 N.am      3 UNK        -0.4424 
     20 C          21.4681  -25.4028  -44.5236 C.2       2 UNK         0.4918 
     21 O          22.5320  -25.1406  -43.9633 O.2       2 UNK        -0.4875 
     22 CA         20.3943  -24.3044  -44.6511 C.3       2 UNK         0.0481 
     23 CB         20.7110  -23.3866  -45.8421 C.3       2 UNK        -0.1831 
     24 N          19.0228  -24.8159  -44.7822 N.am      2 UNK        -0.4498 
     25 C          18.3801  -25.5519  -43.8620 C.2       1 UNK         0.5027 
     26 O          18.8810  -25.8937  -42.7877 O.2       1 UNK        -0.4969 
     27 C          22.3465  -28.1750  -43.4348 C.2       3 UNK         0.5005 
     28 O          23.4464  -28.6767  -43.2002 O.2       3 UNK        -0.5279 
     29 N          21.4616  -27.8450  -42.4791 N.am      4 UNK        -0.4463 
     30 CA         21.6343  -28.0348  -41.0344 C.3       4 UNK         0.0283 
     31 CB         20.3243  -27.6529  -40.3276 C.3       4 UNK        -0.1875 
     32 C          22.8189  -27.2662  -40.4131 C.2       4 UNK         0.4949 
     33 O          23.1850  -27.5511  -39.2733 O.2       4 UNK        -0.5039 
     34 N          23.4090  -26.3155  -41.1529 N.am      5 UNK        -0.4663 
     35 CA         24.6555  -25.6429  -40.7811 C.3       5 UNK         0.0242 
     36 CB         24.8183  -24.3763  -41.6365 C.3       5 UNK        -0.1982 
     37 C          25.8964  -26.5476  -40.9202 C.2       5 UNK         0.5017 
     38 O          26.9177  -26.2442  -40.3019 O.2       5 UNK        -0.5012 
     39 N          25.8000  -27.6164  -41.7250 N.am      6 UNK        -0.4439 
     40 CA         26.8785  -28.5724  -41.9855 C.3       6 UNK         0.0297 
     41 CB         27.2856  -28.4871  -43.4663 C.3       6 UNK        -0.2006 
     42 C          26.4696  -30.0069  -41.6201 C.2       6 UNK         0.4892 
     43 O          27.2626  -30.7180  -41.0011 O.2       6 UNK        -0.5089 
     44 N          25.2582  -30.4151  -42.0172 N.am      7 UNK        -0.4243 
     45 CA         24.6937  -31.7389  -41.7615 C.3       7 UNK         0.0196 
     46 CB         23.6530  -32.0396  -42.8548 C.3       7 UNK        -0.2007 
     47 C          24.0501  -31.8226  -40.3683 C.2       7 UNK         0.5020 
     48 O          23.7975  -30.8000  -39.7312 O.2       7 UNK        -0.5147 
     49 N          23.7386  -33.0531  -39.9430 N.am      8 UNK        -0.4734 
     50 CA         23.0309  -33.3571  -38.6907 C.3       8 UNK         0.0238 
     51 CB         23.3534  -34.8064  -38.2846 C.3       8 UNK        -0.1912 
     52 C          21.5039  -33.1318  -38.7623 C.2       8 UNK         0.5038 
     53 O          20.8122  -33.4062  -37.7803 O.2       8 UNK        -0.5046 
     54 N          21.0085  -32.6769  -39.9200 N.am      9 UNK        -0.4200 
     55 CA         19.6039  -32.3827  -40.2389 C.3       9 UNK         0.0839 
     56 C          18.9343  -31.3719  -39.2671 C.2       9 UNK         0.5513 
     57 N          17.6293  -31.4872  -39.0622 N.am      9 UNK        -0.7519 
     58 O          19.5706  -30.4656  -38.7360 O.2       9 UNK        -0.4960 
     59 C59        19.4699  -31.8939  -41.7052 C.3       10 UNK        -0.0876 
     60 S60        20.1281  -33.1124  -42.8962 S.3       10 UNK        -0.2414 
     61 C61        18.6737  -33.4633  -43.9323 C.3       10 UNK         0.0169 
     62 H62        13.7556  -25.0435  -41.2997 H         1 UNK         0.0903 
     63 H63        14.6778  -26.5181  -41.0015 H         1 UNK         0.0903 
     64 H64        15.2111  -24.9888  -40.3012 H         1 UNK         0.0903 
     65 H65        15.9407  -27.1175  -42.7514 H         1 UNK         0.3096 
     66 H66        16.5356  -25.3484  -44.9446 H         1 UNK         0.1121 
     67 H67        17.4894  -28.1872  -44.2881 H         1 UNK         0.0849 
     68 H68        17.8893  -27.3611  -45.7709 H         1 UNK         0.0849 
     69 H69        15.2349  -29.8282  -44.3000 H         1 UNK         0.0865 
     70 H70        14.7418  -30.2350  -45.9249 H         1 UNK         0.0865 
     71 H71        16.4496  -31.8783  -43.9373 H         1 UNK         0.1346 
     72 H72        20.1927  -32.4456  -45.9396 H         1 UNK         0.1412 
     73 H73        17.5237  -29.3669  -47.2521 H         1 UNK         0.1426 
     74 H74        20.8090  -31.1060  -47.8069 H         1 UNK         0.0716 
     75 H75        19.5397  -30.3011  -48.6975 H         1 UNK         0.0716 
     76 H76        20.3889  -29.3399  -44.9434 H         1 UNK         0.0695 
     77 H77        21.9261  -29.9251  -45.5375 H         1 UNK         0.0695 
     78 H78        22.8948  -27.6509  -45.4322 H         1 UNK         0.0983 
     79 H79        20.2772  -26.7235  -45.4842 H         1 UNK         0.3095 
     80 H80        20.4355  -23.7056  -43.7390 H         1 UNK         0.0454 
     81 H81        20.6627  -23.9225  -46.7908 H         1 UNK         0.0851 
     82 H82        20.0179  -22.5468  -45.8931 H         1 UNK         0.0851 
     83 H83        21.7151  -22.9685  -45.7559 H         1 UNK         0.0851 
     84 H84        18.5445  -24.5895  -45.6432 H         1 UNK         0.2976 
     85 H85        20.6078  -27.3778  -42.7608 H         1 UNK         0.3116 
     86 H86        21.8182  -29.0977  -40.8640 H         1 UNK         0.0646 
     87 H87        20.0908  -26.5952  -40.4544 H         1 UNK         0.0847 
     88 H88        19.4818  -28.2324  -40.7054 H         1 UNK         0.0847 
     89 H89        20.3898  -27.8447  -39.2557 H         1 UNK         0.0847 
     90 H90        23.0362  -26.1052  -42.0720 H         1 UNK         0.3040 
     91 H91        24.5861  -25.3417  -39.7333 H         1 UNK         0.1015 
     92 H92        24.9234  -24.6161  -42.6955 H         1 UNK         0.0786 
     93 H93        25.7063  -23.8164  -41.3399 H         1 UNK         0.0786 
     94 H94        23.9629  -23.7093  -41.5274 H         1 UNK         0.0786 
     95 H95        24.9072  -27.8070  -42.1700 H         1 UNK         0.3172 
     96 H96        27.7565  -28.3289  -41.3836 H         1 UNK         0.0595 
     97 H97        28.0793  -29.1995  -43.6955 H         1 UNK         0.0839 
     98 H98        27.6600  -27.4941  -43.7157 H         1 UNK         0.0839 
     99 H99        26.4480  -28.7048  -44.1305 H         1 UNK         0.0839 
    100 H100       24.6402  -29.7587  -42.4914 H         1 UNK         0.2998 
    101 H101       25.4910  -32.4832  -41.8209 H         1 UNK         0.0822 
    102 H102       23.2675  -33.0560  -42.7682 H         1 UNK         0.0787 
    103 H103       22.8012  -31.3602  -42.7998 H         1 UNK         0.0787 
    104 H104       24.0863  -31.9468  -43.8508 H         1 UNK         0.0787 
    105 H105       23.9666  -33.8429  -40.5314 H         1 UNK         0.3055 
    106 H106       23.4079  -32.6934  -37.9089 H         1 UNK         0.1106 
    107 H107       24.4275  -34.9601  -38.1789 H         1 UNK         0.0828 
    108 H108       22.8996  -35.0565  -37.3245 H         1 UNK         0.0828 
    109 H109       22.9804  -35.5234  -39.0169 H         1 UNK         0.0828 
    110 H110       21.6655  -32.4923  -40.6612 H         1 UNK         0.2931 
    111 H111       19.0667  -33.3287  -40.1456 H         1 UNK         0.0412 
    112 H112       17.1722  -30.8329  -38.4463 H         1 UNK         0.3472 
    113 H113       17.0942  -32.2238  -39.4956 H         1 UNK         0.3472 
    114 H114       18.4257  -31.6843  -41.9439 H         1 UNK         0.0970 
    115 H115       20.0043  -30.9523  -41.8479 H         1 UNK         0.0970 
    116 H116       18.8801  -34.3476  -44.5368 H         1 UNK         0.0612 
    117 H117       17.8256  -33.7176  -43.2946 H         1 UNK         0.0612 
@<TRIPOS>BOND
     1    1    2 1    
     2    1   62 1    
     3    1   63 1    
     4    1   64 1    
     5    2    3 2    
     6    2    4 am   BACKBONE|DICT|INTERRES
     7    4    5 1    
     8    4   65 1    
     9    5    6 1    
    10    5   25 1    
    11    5   66 1    
    12    6    7 1    
    13    6   67 1    
    14    6   68 1    
    15    7    8 1    
    16    8    9 1    
    17    8   69 1    
    18    8   70 1    
    19    9   10 ar   
    20    9   14 ar   
    21   10   11 ar   
    22   10   71 1    
    23   11   12 ar   
    24   11   61 1    
    25   12   13 ar   
    26   12   72 1    
    27   13   14 ar   
    28   13   15 1    
    29   14   73 1    
    30   15   16 1    
    31   15   74 1    
    32   15   75 1    
    33   16   17 1    
    34   17   18 1    
    35   17   76 1    
    36   17   77 1    
    37   18   19 1    
    38   18   27 1    
    39   18   78 1    
    40   19   20 am   BACKBONE|DICT|INTERRES
    41   19   79 1    
    42   20   21 2    
    43   20   22 1    
    44   22   23 1    
    45   22   24 1    
    46   22   80 1    
    47   23   81 1    
    48   23   82 1    
    49   23   83 1    
    50   24   25 am   BACKBONE|DICT|INTERRES
    51   24   84 1    
    52   25   26 2    
    53   27   28 2    
    54   27   29 am   BACKBONE|DICT|INTERRES
    55   29   30 1    
    56   29   85 1    
    57   30   31 1    
    58   30   32 1    
    59   30   86 1    
    60   31   87 1    
    61   31   88 1    
    62   31   89 1    
    63   32   33 2    
    64   32   34 am   BACKBONE|DICT|INTERRES
    65   34   35 1    
    66   34   90 1    
    67   35   36 1    
    68   35   37 1    
    69   35   91 1    
    70   36   92 1    
    71   36   93 1    
    72   36   94 1    
    73   37   38 2    
    74   37   39 am   BACKBONE|DICT|INTERRES
    75   39   40 1    
    76   39   95 1    
    77   40   41 1    
    78   40   42 1    
    79   40   96 1    
    80   41   97 1    
    81   41   98 1    
    82   41   99 1    
    83   42   43 2    
    84   42   44 am   BACKBONE|DICT|INTERRES
    85   44   45 1    
    86   44  100 1    
    87   45   46 1    
    88   45   47 1    
    89   45  101 1    
    90   46  102 1    
    91   46  103 1    
    92   46  104 1    
    93   47   48 2    
    94   47   49 am   BACKBONE|DICT|INTERRES
    95   49   50 1    
    96   49  105 1    
    97   50   51 1    
    98   50   52 1    
    99   50  106 1    
   100   51  107 1    
   101   51  108 1    
   102   51  109 1    
   103   52   53 2    
   104   52   54 am   BACKBONE|DICT|INTERRES
   105   54   55 1    
   106   54  110 1    
   107   55   56 1    
   108   55   59 1    
   109   55  111 1    
   110   56   57 am   BACKBONE|DICT|INTERRES
   111   56   58 2    
   112   57  112 1    
   113   57  113 1    
   114   59   60 1    
   115   59  114 1    
   116   59  115 1    
   117   60   61 1    
   118   61  116 1    
   119   61  117 1    
@<TRIPOS>SUBSTRUCTURE
     1 UNK         1 GROUP             0       ****    0 ROOT    
