@<TRIPOS>MOLECULE
3R8
117   119    1
SMALL
USER_CHARGES


@<TRIPOS>ATOM
      1 CA         14.0446  -23.1709  -41.4131 C.3       0 UNK        -0.2013 
      2 C          15.3259  -23.5417  -42.1449 C.2       0 UNK         0.4866 
      3 O          16.3996  -23.0569  -41.7851 O.2       0 UNK        -0.5176 
      4 N          15.2198  -24.3874  -43.1766 N.am      1 UNK        -0.4884 
      5 CA         16.3459  -24.9153  -43.9530 C.3       1 UNK         0.0853 
      6 C6         15.9027  -25.4735  -45.3371 C.3       10 UNK        -0.0849 
      7 S7         14.3207  -26.3960  -45.4039 S.3       10 UNK        -0.2776 
      8 C8         14.6066  -27.9050  -44.4083 C.3       10 UNK         0.0316 
      9 C9         15.7574  -28.8118  -44.8510 C.ar      10 UNK        -0.0863 
     10 C10        16.3346  -29.6681  -43.9053 C.ar      10 UNK        -0.1009 
     11 C11        17.3396  -30.5676  -44.2724 C.ar      10 UNK        -0.0712 
     12 C12        17.7759  -30.6044  -45.5975 C.ar      10 UNK        -0.0894 
     13 C13        17.2332  -29.7374  -46.5492 C.ar      10 UNK        -0.0745 
     14 C14        16.2157  -28.8546  -46.1743 C.ar      10 UNK        -0.0972 
     15 C15        17.7292  -29.7676  -47.9874 C.3       10 UNK         0.0209 
     16 S16        19.1086  -28.6070  -48.2560 S.3       10 UNK        -0.2568 
     17 C17        20.5012  -29.4801  -47.4602 C.3       10 UNK        -0.0983 
     18 CA         21.1183  -28.6907  -46.2784 C.3       3 UNK         0.0876 
     19 N          20.1440  -28.3299  -45.2438 N.am      3 UNK        -0.4424 
     20 C          20.3669  -27.4042  -44.3033 C.2       2 UNK         0.4918 
     21 O          21.3443  -26.6541  -44.3021 O.2       2 UNK        -0.4875 
     22 CA         19.3000  -27.2467  -43.2176 C.3       2 UNK         0.0481 
     23 CB         19.9172  -26.9445  -41.8368 C.3       2 UNK        -0.1831 
     24 N          18.4059  -26.1809  -43.6490 N.am      2 UNK        -0.4498 
     25 C          17.1823  -25.9451  -43.1637 C.2       1 UNK         0.5027 
     26 O          16.7066  -26.5224  -42.1821 O.2       1 UNK        -0.4969 
     27 C          22.2526  -29.4861  -45.6045 C.2       3 UNK         0.5005 
     28 O          21.9928  -30.5800  -45.1017 O.2       3 UNK        -0.5279 
     29 N          23.4577  -28.8980  -45.5677 N.am      4 UNK        -0.4463 
     30 CA         24.5876  -29.2592  -44.7017 C.3       4 UNK         0.0283 
     31 CB         25.0528  -30.7192  -44.8969 C.3       4 UNK        -0.1875 
     32 C          24.2523  -28.9177  -43.2388 C.2       4 UNK         0.4949 
     33 O          24.0024  -29.8046  -42.4217 O.2       4 UNK        -0.5039 
     34 N          24.2268  -27.6091  -42.9474 N.am      5 UNK        -0.4663 
     35 CA         23.9398  -27.0487  -41.6222 C.3       5 UNK         0.0242 
     36 CB         23.7829  -25.5245  -41.7344 C.3       5 UNK        -0.1982 
     37 C          24.9903  -27.4101  -40.5578 C.2       5 UNK         0.5017 
     38 O          24.6503  -27.4712  -39.3755 O.2       5 UNK        -0.5012 
     39 N          26.2295  -27.6844  -40.9910 N.am      6 UNK        -0.4439 
     40 CA         27.2883  -28.2797  -40.1761 C.3       6 UNK         0.0297 
     41 CB         28.6048  -28.2880  -40.9715 C.3       6 UNK        -0.2006 
     42 C          26.8788  -29.7004  -39.7520 C.2       6 UNK         0.4892 
     43 O          26.7690  -30.5778  -40.6093 O.2       6 UNK        -0.5089 
     44 N          26.6124  -29.8657  -38.4494 N.am      7 UNK        -0.4243 
     45 CA         26.0160  -31.0445  -37.8065 C.3       7 UNK         0.0196 
     46 CB         26.8702  -32.3139  -38.0203 C.3       7 UNK        -0.2007 
     47 C          24.5253  -31.2558  -38.1528 C.2       7 UNK         0.5020 
     48 O          24.0268  -32.3684  -37.9815 O.2       7 UNK        -0.5147 
     49 N          23.8360  -30.1858  -38.5860 N.am      8 UNK        -0.4734 
     50 CA         22.3847  -30.0569  -38.7893 C.3       8 UNK         0.0238 
     51 CB         21.6967  -29.8415  -37.4254 C.3       8 UNK        -0.1912 
     52 C          21.7510  -31.2103  -39.5914 C.2       8 UNK         0.5038 
     53 O          20.9075  -31.9355  -39.0595 O.2       8 UNK        -0.5046 
     54 N          22.1954  -31.3706  -40.8434 N.am      9 UNK        -0.4200 
     55 CA         21.8057  -32.4408  -41.7784 C.3       9 UNK         0.0839 
     56 C          22.3976  -33.8439  -41.4449 C.2       9 UNK         0.5513 
     57 N          23.2016  -34.0158  -40.4019 N.am      9 UNK        -0.7519 
     58 O          22.1473  -34.8020  -42.1720 O.2       9 UNK        -0.4960 
     59 C59        20.2742  -32.5147  -42.0622 C.3       10 UNK        -0.0876 
     60 S60        19.5646  -30.9485  -42.6716 S.3       10 UNK        -0.2414 
     61 C61        17.9413  -31.5264  -43.2561 C.3       10 UNK         0.0169 
     62 H62        14.1127  -23.4656  -40.3662 H         1 UNK         0.0903 
     63 H63        13.8864  -22.0936  -41.4548 H         1 UNK         0.0903 
     64 H64        13.1716  -23.6588  -41.8464 H         1 UNK         0.0903 
     65 H65        14.3181  -24.7715  -43.4234 H         1 UNK         0.3096 
     66 H66        17.0164  -24.0738  -44.1453 H         1 UNK         0.1121 
     67 H67        15.7758  -24.6261  -46.0126 H         1 UNK         0.0849 
     68 H68        16.6860  -26.0739  -45.8032 H         1 UNK         0.0849 
     69 H69        14.7271  -27.6174  -43.3645 H         1 UNK         0.0865 
     70 H70        13.6917  -28.4979  -44.4408 H         1 UNK         0.0865 
     71 H71        15.9888  -29.6464  -42.8805 H         1 UNK         0.1346 
     72 H72        18.5430  -31.3117  -45.8806 H         1 UNK         0.1412 
     73 H73        15.7782  -28.2087  -46.9227 H         1 UNK         0.1426 
     74 H74        16.9145  -29.5020  -48.6628 H         1 UNK         0.0716 
     75 H75        18.0344  -30.7770  -48.2679 H         1 UNK         0.0716 
     76 H76        20.1865  -30.4751  -47.1468 H         1 UNK         0.0695 
     77 H77        21.2604  -29.6450  -48.2269 H         1 UNK         0.0695 
     78 H78        21.5297  -27.7650  -46.6876 H         1 UNK         0.0983 
     79 H79        19.3164  -28.9078  -45.1886 H         1 UNK         0.3095 
     80 H80        18.7293  -28.1733  -43.1491 H         1 UNK         0.0454 
     81 H81        20.6067  -27.7373  -41.5459 H         1 UNK         0.0851 
     82 H82        20.4715  -26.0054  -41.8352 H         1 UNK         0.0851 
     83 H83        19.1550  -26.8843  -41.0605 H         1 UNK         0.0851 
     84 H84        18.7296  -25.6570  -44.4515 H         1 UNK         0.2976 
     85 H85        23.5452  -27.9990  -46.0221 H         1 UNK         0.3116 
     86 H86        25.4199  -28.6188  -44.9985 H         1 UNK         0.0646 
     87 H87        25.9721  -30.9041  -44.3400 H         1 UNK         0.0847 
     88 H88        25.2570  -30.9355  -45.9452 H         1 UNK         0.0847 
     89 H89        24.3194  -31.4428  -44.5406 H         1 UNK         0.0847 
     90 H90        24.3938  -26.9433  -43.6885 H         1 UNK         0.3040 
     91 H91        22.9892  -27.4667  -41.2869 H         1 UNK         0.1015 
     92 H92        24.6995  -25.0476  -42.0834 H         1 UNK         0.0786 
     93 H93        23.5340  -25.0858  -40.7670 H         1 UNK         0.0786 
     94 H94        22.9811  -25.2587  -42.4240 H         1 UNK         0.0786 
     95 H95        26.3970  -27.6344  -41.9848 H         1 UNK         0.3172 
     96 H96        27.4293  -27.6595  -39.2882 H         1 UNK         0.0595 
     97 H97        29.4115  -28.7251  -40.3816 H         1 UNK         0.0839 
     98 H98        28.5217  -28.8709  -41.8899 H         1 UNK         0.0839 
     99 H99        28.9127  -27.2777  -41.2415 H         1 UNK         0.0839 
    100 H100       26.7266  -29.0626  -37.8452 H         1 UNK         0.2998 
    101 H101       26.0323  -30.8288  -36.7371 H         1 UNK         0.0822 
    102 H102       26.5290  -33.1257  -37.3768 H         1 UNK         0.0787 
    103 H103       26.8138  -32.6751  -39.0474 H         1 UNK         0.0787 
    104 H104       27.9186  -32.1336  -37.7828 H         1 UNK         0.0787 
    105 H105       24.3543  -29.3248  -38.7347 H         1 UNK         0.3055 
    106 H106       22.2298  -29.1527  -39.3804 H         1 UNK         0.1106 
    107 H107       21.8268  -30.7023  -36.7682 H         1 UNK         0.0828 
    108 H108       22.0961  -28.9658  -36.9138 H         1 UNK         0.0828 
    109 H109       20.6244  -29.6827  -37.5476 H         1 UNK         0.0828 
    110 H110       22.9107  -30.7443  -41.2063 H         1 UNK         0.2931 
    111 H111       22.2860  -32.1617  -42.7170 H         1 UNK         0.0412 
    112 H112       23.5781  -34.9326  -40.2212 H         1 UNK         0.3472 
    113 H113       23.3926  -33.2603  -39.7542 H         1 UNK         0.3472 
    114 H114       19.7240  -32.8297  -41.1748 H         1 UNK         0.0970 
    115 H115       20.0812  -33.2775  -42.8186 H         1 UNK         0.0970 
    116 H116       17.2770  -31.6515  -42.3997 H         1 UNK         0.0612 
    117 H117       18.0406  -32.5109  -43.7155 H         1 UNK         0.0612 
@<TRIPOS>BOND
     1    1    2 1    
     2    1   62 1    
     3    1   63 1    
     4    1   64 1    
     5    2    3 2    
     6    2    4 am   BACKBONE|DICT|INTERRES
     7    4    5 1    
     8    4   65 1    
     9    5    6 1    
    10    5   25 1    
    11    5   66 1    
    12    6    7 1    
    13    6   67 1    
    14    6   68 1    
    15    7    8 1    
    16    8    9 1    
    17    8   69 1    
    18    8   70 1    
    19    9   10 ar   
    20    9   14 ar   
    21   10   11 ar   
    22   10   71 1    
    23   11   12 ar   
    24   11   61 1    
    25   12   13 ar   
    26   12   72 1    
    27   13   14 ar   
    28   13   15 1    
    29   14   73 1    
    30   15   16 1    
    31   15   74 1    
    32   15   75 1    
    33   16   17 1    
    34   17   18 1    
    35   17   76 1    
    36   17   77 1    
    37   18   19 1    
    38   18   27 1    
    39   18   78 1    
    40   19   20 am   BACKBONE|DICT|INTERRES
    41   19   79 1    
    42   20   21 2    
    43   20   22 1    
    44   22   23 1    
    45   22   24 1    
    46   22   80 1    
    47   23   81 1    
    48   23   82 1    
    49   23   83 1    
    50   24   25 am   BACKBONE|DICT|INTERRES
    51   24   84 1    
    52   25   26 2    
    53   27   28 2    
    54   27   29 am   BACKBONE|DICT|INTERRES
    55   29   30 1    
    56   29   85 1    
    57   30   31 1    
    58   30   32 1    
    59   30   86 1    
    60   31   87 1    
    61   31   88 1    
    62   31   89 1    
    63   32   33 2    
    64   32   34 am   BACKBONE|DICT|INTERRES
    65   34   35 1    
    66   34   90 1    
    67   35   36 1    
    68   35   37 1    
    69   35   91 1    
    70   36   92 1    
    71   36   93 1    
    72   36   94 1    
    73   37   38 2    
    74   37   39 am   BACKBONE|DICT|INTERRES
    75   39   40 1    
    76   39   95 1    
    77   40   41 1    
    78   40   42 1    
    79   40   96 1    
    80   41   97 1    
    81   41   98 1    
    82   41   99 1    
    83   42   43 2    
    84   42   44 am   BACKBONE|DICT|INTERRES
    85   44   45 1    
    86   44  100 1    
    87   45   46 1    
    88   45   47 1    
    89   45  101 1    
    90   46  102 1    
    91   46  103 1    
    92   46  104 1    
    93   47   48 2    
    94   47   49 am   BACKBONE|DICT|INTERRES
    95   49   50 1    
    96   49  105 1    
    97   50   51 1    
    98   50   52 1    
    99   50  106 1    
   100   51  107 1    
   101   51  108 1    
   102   51  109 1    
   103   52   53 2    
   104   52   54 am   BACKBONE|DICT|INTERRES
   105   54   55 1    
   106   54  110 1    
   107   55   56 1    
   108   55   59 1    
   109   55  111 1    
   110   56   57 am   BACKBONE|DICT|INTERRES
   111   56   58 2    
   112   57  112 1    
   113   57  113 1    
   114   59   60 1    
   115   59  114 1    
   116   59  115 1    
   117   60   61 1    
   118   61  116 1    
   119   61  117 1    
@<TRIPOS>SUBSTRUCTURE
     1 UNK         1 GROUP             0       ****    0 ROOT    
