@<TRIPOS>MOLECULE
3R8
117   119    1
SMALL
USER_CHARGES


@<TRIPOS>ATOM
      1 CA         15.2438  -24.6176  -39.0584 C.3       0 UNK        -0.2013 
      2 C          15.9928  -24.5846  -40.3822 C.2       0 UNK         0.4866 
      3 O          16.6715  -23.6004  -40.6784 O.2       0 UNK        -0.5176 
      4 N          15.8685  -25.6490  -41.1838 N.am      1 UNK        -0.4884 
      5 CA         16.5945  -25.8413  -42.4429 C.3       1 UNK         0.0853 
      6 C6         15.9062  -26.9015  -43.3386 C.3       10 UNK        -0.0849 
      7 S7         15.6564  -28.5283  -42.5387 S.3       10 UNK        -0.2776 
      8 C8         15.4576  -29.6042  -43.9927 C.3       10 UNK         0.0316 
      9 C9         16.7514  -30.3211  -44.3526 C.ar      10 UNK        -0.0863 
     10 C10        16.9320  -31.6561  -43.9854 C.ar      10 UNK        -0.1009 
     11 C11        18.0933  -32.3465  -44.3458 C.ar      10 UNK        -0.0712 
     12 C12        19.0812  -31.6901  -45.0868 C.ar      10 UNK        -0.0894 
     13 C13        18.9167  -30.3508  -45.4561 C.ar      10 UNK        -0.0745 
     14 C14        17.7498  -29.6735  -45.0851 C.ar      10 UNK        -0.0972 
     15 C15        19.9547  -29.6412  -46.3145 C.3       10 UNK         0.0209 
     16 S16        21.6431  -29.6998  -45.6257 S.3       10 UNK        -0.2568 
     17 C17        22.3977  -28.3246  -46.5715 C.3       10 UNK        -0.0983 
     18 CA         22.9606  -27.1531  -45.7075 C.3       3 UNK         0.0876 
     19 N          22.1650  -26.8550  -44.5204 N.am      3 UNK        -0.4424 
     20 C          20.9701  -26.2671  -44.4864 C.2       2 UNK         0.4918 
     21 O          20.3555  -25.8614  -45.4760 O.2       2 UNK        -0.4875 
     22 CA         20.3804  -26.0960  -43.0863 C.3       2 UNK         0.0481 
     23 CB         21.0673  -24.9391  -42.3340 C.3       2 UNK        -0.1831 
     24 N          18.9427  -25.8586  -43.1589 N.am      2 UNK        -0.4498 
     25 C          18.0793  -26.1749  -42.1870 C.2       1 UNK         0.5027 
     26 O          18.4143  -26.7195  -41.1305 O.2       1 UNK        -0.4969 
     27 C          24.4285  -27.3197  -45.2692 C.2       3 UNK         0.5005 
     28 O          24.7614  -27.0176  -44.1195 O.2       3 UNK        -0.5279 
     29 N          25.2926  -27.7701  -46.1909 N.am      4 UNK        -0.4463 
     30 CA         26.7396  -27.9316  -45.9989 C.3       4 UNK         0.0283 
     31 CB         27.3833  -28.3296  -47.3375 C.3       4 UNK        -0.1875 
     32 C          27.1431  -28.9279  -44.8946 C.2       4 UNK         0.4949 
     33 O          28.2627  -28.8338  -44.3909 O.2       4 UNK        -0.5039 
     34 N          26.2419  -29.8552  -44.5402 N.am      5 UNK        -0.4663 
     35 CA         26.4003  -30.7824  -43.4194 C.3       5 UNK         0.0242 
     36 CB         25.3218  -31.8770  -43.4990 C.3       5 UNK        -0.1982 
     37 C          26.3653  -30.0477  -42.0678 C.2       5 UNK         0.5017 
     38 O          27.3575  -30.0800  -41.3397 O.2       5 UNK        -0.5012 
     39 N          25.2343  -29.3877  -41.7887 N.am      6 UNK        -0.4439 
     40 CA         24.9036  -28.5735  -40.6183 C.3       6 UNK         0.0297 
     41 CB         25.1552  -29.3285  -39.2881 C.3       6 UNK        -0.2006 
     42 C          23.4270  -28.1570  -40.7565 C.2       6 UNK         0.4892 
     43 O          22.8260  -28.3607  -41.8171 O.2       6 UNK        -0.5089 
     44 N          22.8601  -27.6001  -39.6784 N.am      7 UNK        -0.4243 
     45 CA         21.4188  -27.4106  -39.5111 C.3       7 UNK         0.0196 
     46 CB         21.1633  -26.4147  -38.3693 C.3       7 UNK        -0.2007 
     47 C          20.7261  -28.7532  -39.2276 C.2       7 UNK         0.5020 
     48 O          21.3214  -29.6081  -38.5679 O.2       7 UNK        -0.5147 
     49 N          19.4848  -28.9025  -39.7118 N.am      8 UNK        -0.4734 
     50 CA         18.5949  -30.0617  -39.5378 C.3       8 UNK         0.0238 
     51 CB         18.0187  -30.0694  -38.1065 C.3       8 UNK        -0.1912 
     52 C          19.2635  -31.3994  -39.9196 C.2       8 UNK         0.5038 
     53 O          19.3389  -32.3134  -39.0958 O.2       8 UNK        -0.5046 
     54 N          19.7732  -31.4532  -41.1559 N.am      9 UNK        -0.4200 
     55 CA         20.5781  -32.5412  -41.7409 C.3       9 UNK         0.0839 
     56 C          22.0550  -32.5988  -41.2509 C.2       9 UNK         0.5513 
     57 N          22.5068  -31.7450  -40.3422 N.am      9 UNK        -0.7519 
     58 O          22.8214  -33.4329  -41.7247 O.2       9 UNK        -0.4960 
     59 C59        19.9254  -33.9565  -41.6814 C.3       10 UNK        -0.0876 
     60 S60        18.1695  -34.0553  -42.1646 S.3       10 UNK        -0.2414 
     61 C61        18.2493  -33.8123  -43.9663 C.3       10 UNK         0.0169 
     62 H62        14.5501  -23.7795  -38.9981 H         1 UNK         0.0903 
     63 H63        14.6745  -25.5388  -38.9349 H         1 UNK         0.0903 
     64 H64        15.9463  -24.5397  -38.2290 H         1 UNK         0.0903 
     65 H65        15.3312  -26.4486  -40.8787 H         1 UNK         0.3096 
     66 H66        16.5706  -24.8904  -42.9808 H         1 UNK         0.1121 
     67 H67        14.9254  -26.5311  -43.6414 H         1 UNK         0.0849 
     68 H68        16.4643  -27.0276  -44.2666 H         1 UNK         0.0849 
     69 H69        14.6748  -30.3328  -43.7757 H         1 UNK         0.0865 
     70 H70        15.0960  -29.0296  -44.8468 H         1 UNK         0.0865 
     71 H71        16.1620  -32.1679  -43.4239 H         1 UNK         0.1346 
     72 H72        19.9742  -32.2210  -45.3872 H         1 UNK         0.1412 
     73 H73        17.6085  -28.6462  -45.3887 H         1 UNK         0.1426 
     74 H74        19.6634  -28.5977  -46.4455 H         1 UNK         0.0716 
     75 H75        19.9609  -30.0873  -47.3099 H         1 UNK         0.0716 
     76 H76        23.1442  -28.7478  -47.2439 H         1 UNK         0.0695 
     77 H77        21.6482  -27.9077  -47.2449 H         1 UNK         0.0695 
     78 H78        22.9593  -26.2537  -46.3273 H         1 UNK         0.0983 
     79 H79        22.6083  -27.1420  -43.6523 H         1 UNK         0.3095 
     80 H80        20.5502  -27.0387  -42.5649 H         1 UNK         0.0454 
     81 H81        22.1331  -25.1322  -42.2047 H         1 UNK         0.0851 
     82 H82        20.9678  -23.9965  -42.8734 H         1 UNK         0.0851 
     83 H83        20.6440  -24.7966  -41.3398 H         1 UNK         0.0851 
     84 H84        18.6204  -25.4669  -44.0350 H         1 UNK         0.2976 
     85 H85        24.9410  -27.9882  -47.1124 H         1 UNK         0.3116 
     86 H86        27.1378  -26.9573  -45.7076 H         1 UNK         0.0646 
     87 H87        28.4654  -28.4265  -47.2373 H         1 UNK         0.0847 
     88 H88        27.1997  -27.5801  -48.1075 H         1 UNK         0.0847 
     89 H89        27.0043  -29.2862  -47.6994 H         1 UNK         0.0847 
     90 H90        25.3517  -29.8564  -45.0159 H         1 UNK         0.3040 
     91 H91        27.3772  -31.2632  -43.5093 H         1 UNK         0.1015 
     92 H92        25.4235  -32.4665  -44.4103 H         1 UNK         0.0786 
     93 H93        24.3120  -31.4647  -43.4808 H         1 UNK         0.0786 
     94 H94        25.4052  -32.5674  -42.6584 H         1 UNK         0.0786 
     95 H95        24.4834  -29.3908  -42.4704 H         1 UNK         0.3172 
     96 H96        25.5141  -27.6697  -40.6490 H         1 UNK         0.0595 
     97 H97        26.2011  -29.6022  -39.1597 H         1 UNK         0.0839 
     98 H98        24.5631  -30.2401  -39.2225 H         1 UNK         0.0839 
     99 H99        24.9044  -28.7172  -38.4212 H         1 UNK         0.0839 
    100 H100       23.4194  -27.4961  -38.8450 H         1 UNK         0.2998 
    101 H101       21.0115  -26.9918  -40.4268 H         1 UNK         0.0822 
    102 H102       21.6371  -25.4532  -38.5681 H         1 UNK         0.0787 
    103 H103       20.0947  -26.2295  -38.2495 H         1 UNK         0.0787 
    104 H104       21.5399  -26.7870  -37.4156 H         1 UNK         0.0787 
    105 H105       19.0867  -28.1245  -40.2406 H         1 UNK         0.3055 
    106 H106       17.7612  -29.9248  -40.2296 H         1 UNK         0.1106 
    107 H107       18.7997  -30.2056  -37.3576 H         1 UNK         0.0828 
    108 H108       17.4994  -29.1373  -37.8840 H         1 UNK         0.0828 
    109 H109       17.2993  -30.8792  -37.9790 H         1 UNK         0.0828 
    110 H110       19.6762  -30.6367  -41.7416 H         1 UNK         0.2931 
    111 H111       20.6576  -32.2739  -42.7942 H         1 UNK         0.0412 
    112 H112       23.4673  -31.8185  -40.0525 H         1 UNK         0.3472 
    113 H113       21.8952  -31.0736  -39.8933 H         1 UNK         0.3472 
    114 H114       19.9999  -34.3561  -40.6686 H         1 UNK         0.0970 
    115 H115       20.4842  -34.6542  -42.3079 H         1 UNK         0.0970 
    116 H116       17.4399  -34.3783  -44.4291 H         1 UNK         0.0612 
    117 H117       19.1786  -34.2287  -44.3578 H         1 UNK         0.0612 
@<TRIPOS>BOND
     1    1    2 1    
     2    1   62 1    
     3    1   63 1    
     4    1   64 1    
     5    2    3 2    
     6    2    4 am   BACKBONE|DICT|INTERRES
     7    4    5 1    
     8    4   65 1    
     9    5    6 1    
    10    5   25 1    
    11    5   66 1    
    12    6    7 1    
    13    6   67 1    
    14    6   68 1    
    15    7    8 1    
    16    8    9 1    
    17    8   69 1    
    18    8   70 1    
    19    9   10 ar   
    20    9   14 ar   
    21   10   11 ar   
    22   10   71 1    
    23   11   12 ar   
    24   11   61 1    
    25   12   13 ar   
    26   12   72 1    
    27   13   14 ar   
    28   13   15 1    
    29   14   73 1    
    30   15   16 1    
    31   15   74 1    
    32   15   75 1    
    33   16   17 1    
    34   17   18 1    
    35   17   76 1    
    36   17   77 1    
    37   18   19 1    
    38   18   27 1    
    39   18   78 1    
    40   19   20 am   BACKBONE|DICT|INTERRES
    41   19   79 1    
    42   20   21 2    
    43   20   22 1    
    44   22   23 1    
    45   22   24 1    
    46   22   80 1    
    47   23   81 1    
    48   23   82 1    
    49   23   83 1    
    50   24   25 am   BACKBONE|DICT|INTERRES
    51   24   84 1    
    52   25   26 2    
    53   27   28 2    
    54   27   29 am   BACKBONE|DICT|INTERRES
    55   29   30 1    
    56   29   85 1    
    57   30   31 1    
    58   30   32 1    
    59   30   86 1    
    60   31   87 1    
    61   31   88 1    
    62   31   89 1    
    63   32   33 2    
    64   32   34 am   BACKBONE|DICT|INTERRES
    65   34   35 1    
    66   34   90 1    
    67   35   36 1    
    68   35   37 1    
    69   35   91 1    
    70   36   92 1    
    71   36   93 1    
    72   36   94 1    
    73   37   38 2    
    74   37   39 am   BACKBONE|DICT|INTERRES
    75   39   40 1    
    76   39   95 1    
    77   40   41 1    
    78   40   42 1    
    79   40   96 1    
    80   41   97 1    
    81   41   98 1    
    82   41   99 1    
    83   42   43 2    
    84   42   44 am   BACKBONE|DICT|INTERRES
    85   44   45 1    
    86   44  100 1    
    87   45   46 1    
    88   45   47 1    
    89   45  101 1    
    90   46  102 1    
    91   46  103 1    
    92   46  104 1    
    93   47   48 2    
    94   47   49 am   BACKBONE|DICT|INTERRES
    95   49   50 1    
    96   49  105 1    
    97   50   51 1    
    98   50   52 1    
    99   50  106 1    
   100   51  107 1    
   101   51  108 1    
   102   51  109 1    
   103   52   53 2    
   104   52   54 am   BACKBONE|DICT|INTERRES
   105   54   55 1    
   106   54  110 1    
   107   55   56 1    
   108   55   59 1    
   109   55  111 1    
   110   56   57 am   BACKBONE|DICT|INTERRES
   111   56   58 2    
   112   57  112 1    
   113   57  113 1    
   114   59   60 1    
   115   59  114 1    
   116   59  115 1    
   117   60   61 1    
   118   61  116 1    
   119   61  117 1    
@<TRIPOS>SUBSTRUCTURE
     1 UNK         1 GROUP             0       ****    0 ROOT    
