@<TRIPOS>MOLECULE
3R8
117   119    1
SMALL
USER_CHARGES


@<TRIPOS>ATOM
      1 CA         23.3553  -31.2367  -45.9237 C.3       0 UNK        -0.2013 
      2 C          22.1093  -30.7251  -45.2183 C.2       0 UNK         0.4866 
      3 O          21.5396  -31.4310  -44.3883 O.2       0 UNK        -0.5176 
      4 N          21.6773  -29.5012  -45.5449 N.am      1 UNK        -0.4884 
      5 CA         20.5016  -28.8569  -44.9564 C.3       1 UNK         0.0853 
      6 C6         19.9246  -27.7449  -45.8686 C.3       10 UNK        -0.0849 
      7 S7         19.1283  -28.4505  -47.3489 S.3       10 UNK        -0.2776 
      8 C8         17.3554  -28.2119  -46.9722 C.3       10 UNK         0.0316 
      9 C9         16.9166  -28.8496  -45.6556 C.ar      10 UNK        -0.0863 
     10 C10        17.2151  -30.1874  -45.3752 C.ar      10 UNK        -0.1009 
     11 C11        16.8256  -30.7654  -44.1640 C.ar      10 UNK        -0.0712 
     12 C12        16.0894  -30.0106  -43.2471 C.ar      10 UNK        -0.0894 
     13 C13        15.7584  -28.6814  -43.5244 C.ar      10 UNK        -0.0745 
     14 C14        16.1849  -28.1029  -44.7248 C.ar      10 UNK        -0.0972 
     15 C15        14.8991  -27.8935  -42.5444 C.3       10 UNK         0.0209 
     16 S16        15.8183  -27.3878  -41.0569 S.3       10 UNK        -0.2568 
     17 C17        16.7903  -25.9797  -41.6874 C.3       10 UNK        -0.0983 
     18 CA         18.2067  -25.9100  -41.0660 C.3       3 UNK         0.0876 
     19 N          18.9649  -27.1370  -41.3135 N.am      3 UNK        -0.4424 
     20 C          20.0360  -27.5319  -40.6145 C.2       2 UNK         0.4918 
     21 O          20.4595  -26.9373  -39.6236 O.2       2 UNK        -0.4875 
     22 CA         20.7545  -28.8052  -41.1043 C.3       2 UNK         0.0481 
     23 CB         20.3122  -30.0116  -40.2629 C.3       2 UNK        -0.1831 
     24 N          20.5472  -29.1200  -42.5236 N.am      2 UNK        -0.4498 
     25 C          20.8379  -28.3186  -43.5577 C.2       1 UNK         0.5027 
     26 O          21.3173  -27.1893  -43.4407 O.2       1 UNK        -0.4969 
     27 C          18.9378  -24.6473  -41.5738 C.2       3 UNK         0.5005 
     28 O          18.6388  -23.5557  -41.0859 O.2       3 UNK        -0.5279 
     29 N          19.8396  -24.7974  -42.5562 N.am      4 UNK        -0.4463 
     30 CA         20.4963  -23.6917  -43.2587 C.3       4 UNK         0.0283 
     31 CB         20.2847  -23.8681  -44.7718 C.3       4 UNK        -0.1875 
     32 C          21.9969  -23.6010  -42.9481 C.2       4 UNK         0.4949 
     33 O          22.5249  -22.4904  -42.8824 O.2       4 UNK        -0.5039 
     34 N          22.6605  -24.7500  -42.7843 N.am      5 UNK        -0.4663 
     35 CA         24.0992  -24.8706  -42.5570 C.3       5 UNK         0.0242 
     36 CB         24.7335  -25.4888  -43.8163 C.3       5 UNK        -0.1982 
     37 C          24.3709  -25.7552  -41.3349 C.2       5 UNK         0.5017 
     38 O          23.4747  -26.4610  -40.8673 O.2       5 UNK        -0.5012 
     39 N          25.6249  -25.7386  -40.8637 N.am      6 UNK        -0.4439 
     40 CA         26.1449  -26.6225  -39.8165 C.3       6 UNK         0.0297 
     41 CB         27.4135  -25.9934  -39.2109 C.3       6 UNK        -0.2006 
     42 C          26.3953  -28.0349  -40.3805 C.2       6 UNK         0.4892 
     43 O          27.5450  -28.4325  -40.5786 O.2       6 UNK        -0.5089 
     44 N          25.2999  -28.7388  -40.6723 N.am      7 UNK        -0.4243 
     45 CA         25.2520  -30.0637  -41.2802 C.3       7 UNK         0.0196 
     46 CB         24.8748  -29.9007  -42.7647 C.3       7 UNK        -0.2007 
     47 C          24.2275  -30.9327  -40.5377 C.2       7 UNK         0.5020 
     48 O          23.5518  -30.4522  -39.6248 O.2       7 UNK        -0.5147 
     49 N          24.1224  -32.1977  -40.9529 N.am      8 UNK        -0.4734 
     50 CA         23.1134  -33.1489  -40.4955 C.3       8 UNK         0.0238 
     51 CB         23.7879  -34.2483  -39.6578 C.3       8 UNK        -0.1912 
     52 C          22.4297  -33.7458  -41.7305 C.2       8 UNK         0.5038 
     53 O          23.1145  -34.0371  -42.7150 O.2       8 UNK        -0.5046 
     54 N          21.1085  -33.9357  -41.6430 N.am      9 UNK        -0.4200 
     55 CA         20.2681  -34.4974  -42.7143 C.3       9 UNK         0.0839 
     56 C          20.4176  -36.0344  -42.9165 C.2       9 UNK         0.5513 
     57 N          21.0828  -36.7659  -42.0300 N.am      9 UNK        -0.7519 
     58 O          19.9208  -36.5732  -43.9022 O.2       9 UNK        -0.4960 
     59 C59        18.7784  -34.1061  -42.5246 C.3       10 UNK        -0.0876 
     60 S60        18.5143  -32.3008  -42.6085 S.3       10 UNK        -0.2414 
     61 C61        17.1881  -32.2078  -43.8500 C.3       10 UNK         0.0169 
     62 H62        23.9104  -31.9110  -45.2719 H         1 UNK         0.0903 
     63 H63        23.0775  -31.7880  -46.8215 H         1 UNK         0.0903 
     64 H64        24.0179  -30.4199  -46.2091 H         1 UNK         0.0903 
     65 H65        22.1827  -28.9556  -46.2284 H         1 UNK         0.3096 
     66 H66        19.7305  -29.6167  -44.8265 H         1 UNK         0.1121 
     67 H67        20.7111  -27.0582  -46.1866 H         1 UNK         0.0849 
     68 H68        19.1936  -27.1350  -45.3335 H         1 UNK         0.0849 
     69 H69        17.1430  -27.1415  -46.9731 H         1 UNK         0.0865 
     70 H70        16.7639  -28.6404  -47.7823 H         1 UNK         0.0865 
     71 H71        17.7727  -30.7724  -46.0941 H         1 UNK         0.1346 
     72 H72        15.7711  -30.4601  -42.3161 H         1 UNK         0.1412 
     73 H73        15.9284  -27.0749  -44.9426 H         1 UNK         0.1426 
     74 H74        14.0550  -28.5124  -42.2366 H         1 UNK         0.0716 
     75 H75        14.4673  -27.0127  -43.0225 H         1 UNK         0.0716 
     76 H76        16.2288  -25.0697  -41.4665 H         1 UNK         0.0695 
     77 H77        16.8573  -26.0393  -42.7749 H         1 UNK         0.0695 
     78 H78        18.0943  -25.7957  -39.9853 H         1 UNK         0.0983 
     79 H79        18.6405  -27.7193  -42.0708 H         1 UNK         0.3095 
     80 H80        21.8257  -28.6563  -40.9596 H         1 UNK         0.0454 
     81 H81        20.5448  -29.8564  -39.2085 H         1 UNK         0.0851 
     82 H82        20.8249  -30.9199  -40.5757 H         1 UNK         0.0851 
     83 H83        19.2385  -30.1877  -40.3409 H         1 UNK         0.0851 
     84 H84        20.2008  -30.0492  -42.7289 H         1 UNK         0.2976 
     85 H85        20.0987  -25.7337  -42.8477 H         1 UNK         0.3116 
     86 H86        20.0475  -22.7383  -42.9721 H         1 UNK         0.0646 
     87 H87        19.2247  -23.8902  -45.0251 H         1 UNK         0.0847 
     88 H88        20.7373  -24.7900  -45.1382 H         1 UNK         0.0847 
     89 H89        20.7331  -23.0431  -45.3269 H         1 UNK         0.0847 
     90 H90        22.1583  -25.6339  -42.8263 H         1 UNK         0.3040 
     91 H91        24.5447  -23.8912  -42.3689 H         1 UNK         0.1015 
     92 H92        25.8151  -25.5842  -43.7140 H         1 UNK         0.0786 
     93 H93        24.5468  -24.8716  -44.6954 H         1 UNK         0.0786 
     94 H94        24.3346  -26.4844  -44.0179 H         1 UNK         0.0786 
     95 H95        26.3051  -25.1540  -41.3283 H         1 UNK         0.3172 
     96 H96        25.4021  -26.7070  -39.0200 H         1 UNK         0.0595 
     97 H97        28.1968  -25.8559  -39.9575 H         1 UNK         0.0839 
     98 H98        27.8230  -26.6266  -38.4226 H         1 UNK         0.0839 
     99 H99        27.2005  -25.0216  -38.7652 H         1 UNK         0.0839 
    100 H100       24.3970  -28.3243  -40.4629 H         1 UNK         0.2998 
    101 H101       26.2256  -30.5520  -41.1998 H         1 UNK         0.0822 
    102 H102       23.8787  -29.4700  -42.8799 H         1 UNK         0.0787 
    103 H103       25.5796  -29.2505  -43.2833 H         1 UNK         0.0787 
    104 H104       24.8819  -30.8592  -43.2832 H         1 UNK         0.0787 
    105 H105       24.6622  -32.5055  -41.7517 H         1 UNK         0.3055 
    106 H106       22.3625  -32.6484  -39.8803 H         1 UNK         0.1106 
    107 H107       24.5319  -34.7987  -40.2354 H         1 UNK         0.0828 
    108 H108       23.0550  -34.9701  -39.2954 H         1 UNK         0.0828 
    109 H109       24.2871  -33.8282  -38.7845 H         1 UNK         0.0828 
    110 H110       20.6247  -33.6845  -40.7941 H         1 UNK         0.2931 
    111 H111       20.6014  -34.0486  -43.6525 H         1 UNK         0.0412 
    112 H112       21.1730  -37.7591  -42.1776 H         1 UNK         0.3472 
    113 H113       21.4980  -36.3363  -41.2195 H         1 UNK         0.3472 
    114 H114       18.1600  -34.5872  -43.2849 H         1 UNK         0.0970 
    115 H115       18.4053  -34.4690  -41.5653 H         1 UNK         0.0970 
    116 H116       16.3072  -32.7345  -43.4797 H         1 UNK         0.0612 
    117 H117       17.5064  -32.7269  -44.7556 H         1 UNK         0.0612 
@<TRIPOS>BOND
     1    1    2 1    
     2    1   62 1    
     3    1   63 1    
     4    1   64 1    
     5    2    3 2    
     6    2    4 am   BACKBONE|DICT|INTERRES
     7    4    5 1    
     8    4   65 1    
     9    5    6 1    
    10    5   25 1    
    11    5   66 1    
    12    6    7 1    
    13    6   67 1    
    14    6   68 1    
    15    7    8 1    
    16    8    9 1    
    17    8   69 1    
    18    8   70 1    
    19    9   10 ar   
    20    9   14 ar   
    21   10   11 ar   
    22   10   71 1    
    23   11   12 ar   
    24   11   61 1    
    25   12   13 ar   
    26   12   72 1    
    27   13   14 ar   
    28   13   15 1    
    29   14   73 1    
    30   15   16 1    
    31   15   74 1    
    32   15   75 1    
    33   16   17 1    
    34   17   18 1    
    35   17   76 1    
    36   17   77 1    
    37   18   19 1    
    38   18   27 1    
    39   18   78 1    
    40   19   20 am   BACKBONE|DICT|INTERRES
    41   19   79 1    
    42   20   21 2    
    43   20   22 1    
    44   22   23 1    
    45   22   24 1    
    46   22   80 1    
    47   23   81 1    
    48   23   82 1    
    49   23   83 1    
    50   24   25 am   BACKBONE|DICT|INTERRES
    51   24   84 1    
    52   25   26 2    
    53   27   28 2    
    54   27   29 am   BACKBONE|DICT|INTERRES
    55   29   30 1    
    56   29   85 1    
    57   30   31 1    
    58   30   32 1    
    59   30   86 1    
    60   31   87 1    
    61   31   88 1    
    62   31   89 1    
    63   32   33 2    
    64   32   34 am   BACKBONE|DICT|INTERRES
    65   34   35 1    
    66   34   90 1    
    67   35   36 1    
    68   35   37 1    
    69   35   91 1    
    70   36   92 1    
    71   36   93 1    
    72   36   94 1    
    73   37   38 2    
    74   37   39 am   BACKBONE|DICT|INTERRES
    75   39   40 1    
    76   39   95 1    
    77   40   41 1    
    78   40   42 1    
    79   40   96 1    
    80   41   97 1    
    81   41   98 1    
    82   41   99 1    
    83   42   43 2    
    84   42   44 am   BACKBONE|DICT|INTERRES
    85   44   45 1    
    86   44  100 1    
    87   45   46 1    
    88   45   47 1    
    89   45  101 1    
    90   46  102 1    
    91   46  103 1    
    92   46  104 1    
    93   47   48 2    
    94   47   49 am   BACKBONE|DICT|INTERRES
    95   49   50 1    
    96   49  105 1    
    97   50   51 1    
    98   50   52 1    
    99   50  106 1    
   100   51  107 1    
   101   51  108 1    
   102   51  109 1    
   103   52   53 2    
   104   52   54 am   BACKBONE|DICT|INTERRES
   105   54   55 1    
   106   54  110 1    
   107   55   56 1    
   108   55   59 1    
   109   55  111 1    
   110   56   57 am   BACKBONE|DICT|INTERRES
   111   56   58 2    
   112   57  112 1    
   113   57  113 1    
   114   59   60 1    
   115   59  114 1    
   116   59  115 1    
   117   60   61 1    
   118   61  116 1    
   119   61  117 1    
@<TRIPOS>SUBSTRUCTURE
     1 UNK         1 GROUP             0       ****    0 ROOT    
