@<TRIPOS>MOLECULE
3R8
117   119    1
SMALL
USER_CHARGES


@<TRIPOS>ATOM
      1 CA         15.2796  -26.4144  -48.2268 C.3       0 UNK        -0.2013 
      2 C          16.5321  -26.2782  -47.3759 C.2       0 UNK         0.4866 
      3 O          16.4348  -26.2131  -46.1513 O.2       0 UNK        -0.5176 
      4 N          17.7114  -26.2123  -48.0131 N.am      1 UNK        -0.4884 
      5 CA         19.0571  -26.1735  -47.4034 C.3       1 UNK         0.0853 
      6 C6         19.3631  -27.4264  -46.5299 C.3       10 UNK        -0.0849 
      7 S7         19.1058  -29.0382  -47.3559 S.3       10 UNK        -0.2776 
      8 C8         17.5766  -29.6881  -46.5791 C.3       10 UNK         0.0316 
      9 C9         17.5546  -29.5912  -45.0548 C.ar      10 UNK        -0.0863 
     10 C10        18.6313  -30.0542  -44.2931 C.ar      10 UNK        -0.1009 
     11 C11        18.6371  -29.9042  -42.9038 C.ar      10 UNK        -0.0712 
     12 C12        17.5403  -29.3167  -42.2665 C.ar      10 UNK        -0.0894 
     13 C13        16.4526  -28.8541  -43.0150 C.ar      10 UNK        -0.0745 
     14 C14        16.4633  -29.0027  -44.4059 C.ar      10 UNK        -0.0972 
     15 C15        15.2849  -28.1547  -42.3294 C.3       10 UNK         0.0209 
     16 S16        15.2624  -26.3583  -42.6610 S.3       10 UNK        -0.2568 
     17 C17        16.7734  -25.7889  -41.8089 C.3       10 UNK        -0.0983 
     18 CA         18.0046  -25.7727  -42.7523 C.3       3 UNK         0.0876 
     19 N          17.8552  -24.8699  -43.8997 N.am      3 UNK        -0.4424 
     20 C          18.1608  -23.5645  -43.9893 C.2       2 UNK         0.4918 
     21 O          18.4368  -22.8542  -43.0218 O.2       2 UNK        -0.4875 
     22 CA         18.2115  -22.9627  -45.4170 C.3       2 UNK         0.0481 
     23 CB         19.2884  -21.8662  -45.5528 C.3       2 UNK        -0.1831 
     24 N          18.3678  -23.9837  -46.4664 N.am      2 UNK        -0.4498 
     25 C          19.3481  -24.8977  -46.5712 C.2       1 UNK         0.5027 
     26 O          20.4112  -24.8189  -45.9530 O.2       1 UNK        -0.4969 
     27 C          19.3553  -25.6216  -42.0140 C.2       3 UNK         0.5005 
     28 O          19.3811  -25.5327  -40.7841 O.2       3 UNK        -0.5279 
     29 N          20.4557  -25.5760  -42.7832 N.am      4 UNK        -0.4463 
     30 CA         21.8289  -25.4866  -42.2813 C.3       4 UNK         0.0283 
     31 CB         22.7921  -25.3372  -43.4692 C.3       4 UNK        -0.1875 
     32 C          22.2130  -26.7086  -41.4297 C.2       4 UNK         0.4949 
     33 O          21.9552  -27.8431  -41.8368 O.2       4 UNK        -0.5039 
     34 N          22.8399  -26.4591  -40.2742 N.am      5 UNK        -0.4663 
     35 CA         23.2279  -27.4689  -39.2850 C.3       5 UNK         0.0242 
     36 CB         23.3709  -26.7857  -37.9116 C.3       5 UNK        -0.1982 
     37 C          24.4950  -28.2447  -39.6960 C.2       5 UNK         0.5017 
     38 O          25.5162  -28.1713  -39.0091 O.2       5 UNK        -0.5012 
     39 N          24.4096  -28.9652  -40.8205 N.am      6 UNK        -0.4439 
     40 CA         25.4428  -29.8746  -41.3181 C.3       6 UNK         0.0297 
     41 CB         25.0795  -30.3132  -42.7456 C.3       6 UNK        -0.2006 
     42 C          25.5982  -31.1009  -40.4032 C.2       6 UNK         0.4892 
     43 O          24.6028  -31.5834  -39.8573 O.2       6 UNK        -0.5089 
     44 N          26.8314  -31.6121  -40.2899 N.am      7 UNK        -0.4243 
     45 CA         27.1950  -32.7471  -39.4302 C.3       7 UNK         0.0196 
     46 CB         28.7202  -32.9373  -39.4576 C.3       7 UNK        -0.2007 
     47 C          26.4831  -34.0663  -39.7819 C.2       7 UNK         0.5020 
     48 O          26.2297  -34.8726  -38.8871 O.2       7 UNK        -0.5147 
     49 N          26.1571  -34.2556  -41.0676 N.am      8 UNK        -0.4734 
     50 CA         25.3743  -35.3924  -41.5625 C.3       8 UNK         0.0238 
     51 CB         25.6324  -35.5587  -43.0693 C.3       8 UNK        -0.1912 
     52 C          23.8641  -35.2525  -41.2905 C.2       8 UNK         0.5038 
     53 O          23.1603  -36.2632  -41.2994 O.2       8 UNK        -0.5046 
     54 N          23.3952  -34.0169  -41.0777 N.am      9 UNK        -0.4200 
     55 CA         22.0005  -33.6772  -40.7741 C.3       9 UNK         0.0839 
     56 C          21.7229  -33.7219  -39.2490 C.2       9 UNK         0.5513 
     57 N          22.5963  -33.1540  -38.4256 N.am      9 UNK        -0.7519 
     58 O          20.7243  -34.2867  -38.8107 O.2       9 UNK        -0.4960 
     59 C59        21.6389  -32.3005  -41.3869 C.3       10 UNK        -0.0876 
     60 S60        19.8624  -32.0959  -41.7294 S.3       10 UNK        -0.2414 
     61 C61        19.8625  -30.3204  -42.1093 C.3       10 UNK         0.0169 
     62 H62        15.5110  -26.4592  -49.2908 H         1 UNK         0.0903 
     63 H63        14.7436  -27.3239  -47.9574 H         1 UNK         0.0903 
     64 H64        14.6171  -25.5661  -48.0572 H         1 UNK         0.0903 
     65 H65        17.7137  -26.2462  -49.0239 H         1 UNK         0.3096 
     66 H66        19.7687  -26.1588  -48.2306 H         1 UNK         0.1121 
     67 H67        20.4078  -27.4147  -46.2129 H         1 UNK         0.0849 
     68 H68        18.7865  -27.3868  -45.6064 H         1 UNK         0.0849 
     69 H69        17.4600  -30.7347  -46.8629 H         1 UNK         0.0865 
     70 H70        16.7218  -29.1647  -47.0077 H         1 UNK         0.0865 
     71 H71        19.4843  -30.5000  -44.7865 H         1 UNK         0.1346 
     72 H72        17.5495  -29.1902  -41.1924 H         1 UNK         0.1412 
     73 H73        15.6324  -28.6218  -44.9845 H         1 UNK         0.1426 
     74 H74        15.3061  -28.3238  -41.2516 H         1 UNK         0.0716 
     75 H75        14.3501  -28.5886  -42.6871 H         1 UNK         0.0716 
     76 H76        16.9434  -26.4404  -40.9498 H         1 UNK         0.0695 
     77 H77        16.5943  -24.7909  -41.4059 H         1 UNK         0.0695 
     78 H78        18.0771  -26.7598  -43.2049 H         1 UNK         0.0983 
     79 H79        17.5184  -25.3254  -44.7439 H         1 UNK         0.3095 
     80 H80        17.2392  -22.4986  -45.5867 H         1 UNK         0.0454 
     81 H81        19.3198  -21.4634  -46.5649 H         1 UNK         0.0851 
     82 H82        20.2829  -22.2409  -45.3092 H         1 UNK         0.0851 
     83 H83        19.0842  -21.0322  -44.8804 H         1 UNK         0.0851 
     84 H84        17.5359  -24.1665  -47.0110 H         1 UNK         0.2976 
     85 H85        20.3499  -25.6130  -43.7889 H         1 UNK         0.3116 
     86 H86        21.8966  -24.5876  -41.6653 H         1 UNK         0.0646 
     87 H87        23.8246  -25.2499  -43.1283 H         1 UNK         0.0847 
     88 H88        22.5673  -24.4446  -44.0536 H         1 UNK         0.0847 
     89 H89        22.7412  -26.1966  -44.1393 H         1 UNK         0.0847 
     90 H90        23.0480  -25.4998  -40.0356 H         1 UNK         0.3040 
     91 H91        22.4218  -28.2023  -39.2032 H         1 UNK         0.1015 
     92 H92        22.4394  -26.3076  -37.6075 H         1 UNK         0.0786 
     93 H93        24.1531  -26.0254  -37.9164 H         1 UNK         0.0786 
     94 H94        23.6260  -27.5120  -37.1385 H         1 UNK         0.0786 
     95 H95        23.5329  -28.9236  -41.3317 H         1 UNK         0.3172 
     96 H96        26.3897  -29.3313  -41.3473 H         1 UNK         0.0595 
     97 H97        24.1313  -30.8502  -42.7756 H         1 UNK         0.0839 
     98 H98        25.8421  -30.9731  -43.1612 H         1 UNK         0.0839 
     99 H99        24.9974  -29.4558  -43.4141 H         1 UNK         0.0839 
    100 H100       27.5883  -31.1635  -40.7864 H         1 UNK         0.2998 
    101 H101       26.9022  -32.4881  -38.4103 H         1 UNK         0.0822 
    102 H102       29.0812  -33.1667  -40.4611 H         1 UNK         0.0787 
    103 H103       29.2389  -32.0440  -39.1087 H         1 UNK         0.0787 
    104 H104       29.0229  -33.7592  -38.8069 H         1 UNK         0.0787 
    105 H105       26.4246  -33.5512  -41.7399 H         1 UNK         0.3055 
    106 H106       25.7123  -36.2992  -41.0552 H         1 UNK         0.1106 
    107 H107       25.0872  -36.4165  -43.4661 H         1 UNK         0.0828 
    108 H108       26.6896  -35.7273  -43.2751 H         1 UNK         0.0828 
    109 H109       25.3144  -34.6817  -43.6345 H         1 UNK         0.0828 
    110 H110       24.0580  -33.2586  -40.9819 H         1 UNK         0.2931 
    111 H111       21.3634  -34.4275  -41.2473 H         1 UNK         0.0412 
    112 H112       22.4366  -33.1829  -37.4314 H         1 UNK         0.3472 
    113 H113       23.3946  -32.6502  -38.8006 H         1 UNK         0.3472 
    114 H114       21.9937  -31.4797  -40.7595 H         1 UNK         0.0970 
    115 H115       22.1463  -32.1813  -42.3453 H         1 UNK         0.0970 
    116 H116       19.9324  -29.7516  -41.1806 H         1 UNK         0.0612 
    117 H117       20.7552  -30.0750  -42.6867 H         1 UNK         0.0612 
@<TRIPOS>BOND
     1    1    2 1    
     2    1   62 1    
     3    1   63 1    
     4    1   64 1    
     5    2    3 2    
     6    2    4 am   BACKBONE|DICT|INTERRES
     7    4    5 1    
     8    4   65 1    
     9    5    6 1    
    10    5   25 1    
    11    5   66 1    
    12    6    7 1    
    13    6   67 1    
    14    6   68 1    
    15    7    8 1    
    16    8    9 1    
    17    8   69 1    
    18    8   70 1    
    19    9   10 ar   
    20    9   14 ar   
    21   10   11 ar   
    22   10   71 1    
    23   11   12 ar   
    24   11   61 1    
    25   12   13 ar   
    26   12   72 1    
    27   13   14 ar   
    28   13   15 1    
    29   14   73 1    
    30   15   16 1    
    31   15   74 1    
    32   15   75 1    
    33   16   17 1    
    34   17   18 1    
    35   17   76 1    
    36   17   77 1    
    37   18   19 1    
    38   18   27 1    
    39   18   78 1    
    40   19   20 am   BACKBONE|DICT|INTERRES
    41   19   79 1    
    42   20   21 2    
    43   20   22 1    
    44   22   23 1    
    45   22   24 1    
    46   22   80 1    
    47   23   81 1    
    48   23   82 1    
    49   23   83 1    
    50   24   25 am   BACKBONE|DICT|INTERRES
    51   24   84 1    
    52   25   26 2    
    53   27   28 2    
    54   27   29 am   BACKBONE|DICT|INTERRES
    55   29   30 1    
    56   29   85 1    
    57   30   31 1    
    58   30   32 1    
    59   30   86 1    
    60   31   87 1    
    61   31   88 1    
    62   31   89 1    
    63   32   33 2    
    64   32   34 am   BACKBONE|DICT|INTERRES
    65   34   35 1    
    66   34   90 1    
    67   35   36 1    
    68   35   37 1    
    69   35   91 1    
    70   36   92 1    
    71   36   93 1    
    72   36   94 1    
    73   37   38 2    
    74   37   39 am   BACKBONE|DICT|INTERRES
    75   39   40 1    
    76   39   95 1    
    77   40   41 1    
    78   40   42 1    
    79   40   96 1    
    80   41   97 1    
    81   41   98 1    
    82   41   99 1    
    83   42   43 2    
    84   42   44 am   BACKBONE|DICT|INTERRES
    85   44   45 1    
    86   44  100 1    
    87   45   46 1    
    88   45   47 1    
    89   45  101 1    
    90   46  102 1    
    91   46  103 1    
    92   46  104 1    
    93   47   48 2    
    94   47   49 am   BACKBONE|DICT|INTERRES
    95   49   50 1    
    96   49  105 1    
    97   50   51 1    
    98   50   52 1    
    99   50  106 1    
   100   51  107 1    
   101   51  108 1    
   102   51  109 1    
   103   52   53 2    
   104   52   54 am   BACKBONE|DICT|INTERRES
   105   54   55 1    
   106   54  110 1    
   107   55   56 1    
   108   55   59 1    
   109   55  111 1    
   110   56   57 am   BACKBONE|DICT|INTERRES
   111   56   58 2    
   112   57  112 1    
   113   57  113 1    
   114   59   60 1    
   115   59  114 1    
   116   59  115 1    
   117   60   61 1    
   118   61  116 1    
   119   61  117 1    
@<TRIPOS>SUBSTRUCTURE
     1 UNK         1 GROUP             0       ****    0 ROOT    
