@<TRIPOS>MOLECULE
3R8
117   119    1
SMALL
USER_CHARGES


@<TRIPOS>ATOM
      1 CA         17.1282  -22.2497  -48.1206 C.3       0 UNK        -0.2013 
      2 C          17.6937  -23.6452  -47.9019 C.2       0 UNK         0.4866 
      3 O          18.3668  -24.1786  -48.7848 O.2       0 UNK        -0.5176 
      4 N          17.4184  -24.2445  -46.7372 N.am      1 UNK        -0.4884 
      5 CA         17.9192  -25.5634  -46.3391 C.3       1 UNK         0.0853 
      6 C6         17.2044  -26.0920  -45.0725 C.3       10 UNK        -0.0849 
      7 S7         15.4503  -26.5095  -45.3378 S.3       10 UNK        -0.2776 
      8 C8         15.4830  -28.3383  -45.2146 C.3       10 UNK         0.0316 
      9 C9         15.9918  -28.9289  -43.8926 C.ar      10 UNK        -0.0863 
     10 C10        16.2782  -30.2974  -43.8448 C.ar      10 UNK        -0.1009 
     11 C11        16.7556  -30.8952  -42.6738 C.ar      10 UNK        -0.0712 
     12 C12        16.9499  -30.1098  -41.5334 C.ar      10 UNK        -0.0894 
     13 C13        16.6754  -28.7385  -41.5624 C.ar      10 UNK        -0.0745 
     14 C14        16.1802  -28.1617  -42.7346 C.ar      10 UNK        -0.0972 
     15 C15        16.8928  -27.8729  -40.3275 C.3       10 UNK         0.0209 
     16 S16        18.6297  -27.8499  -39.7767 S.3       10 UNK        -0.2568 
     17 C17        19.5208  -27.1286  -41.2053 C.3       10 UNK        -0.0983 
     18 CA         20.1701  -28.1526  -42.1815 C.3       3 UNK         0.0876 
     19 N          20.6808  -27.4546  -43.3651 N.am      3 UNK        -0.4424 
     20 C          20.9853  -28.0284  -44.5348 C.2       2 UNK         0.4918 
     21 O          20.8854  -29.2343  -44.7584 O.2       2 UNK        -0.4875 
     22 CA         21.3460  -27.0676  -45.6784 C.3       2 UNK         0.0481 
     23 CB         22.2456  -27.7133  -46.7473 C.3       2 UNK        -0.1831 
     24 N          20.0755  -26.6886  -46.2862 N.am      2 UNK        -0.4498 
     25 C          19.4324  -25.5397  -46.0514 C.2       1 UNK         0.5027 
     26 O          19.9483  -24.5516  -45.5224 O.2       1 UNK        -0.4969 
     27 C          21.2560  -29.0264  -41.5073 C.2       3 UNK         0.5005 
     28 O          22.4533  -28.8764  -41.7676 O.2       3 UNK        -0.5279 
     29 N          20.8166  -29.9021  -40.5930 N.am      4 UNK        -0.4463 
     30 CA         21.6540  -30.6709  -39.6662 C.3       4 UNK         0.0283 
     31 CB         20.7760  -31.6605  -38.8848 C.3       4 UNK        -0.1875 
     32 C          22.4485  -29.7793  -38.6939 C.2       4 UNK         0.4949 
     33 O          23.5030  -30.1988  -38.2222 O.2       4 UNK        -0.5039 
     34 N          21.9798  -28.5423  -38.4690 N.am      5 UNK        -0.4663 
     35 CA         22.7074  -27.4786  -37.7686 C.3       5 UNK         0.0242 
     36 CB         21.7715  -26.2740  -37.5798 C.3       5 UNK        -0.1982 
     37 C          24.0048  -27.0471  -38.4836 C.2       5 UNK         0.5017 
     38 O          24.9256  -26.5743  -37.8176 O.2       5 UNK        -0.5012 
     39 N          24.0663  -27.2454  -39.8091 N.am      6 UNK        -0.4439 
     40 CA         25.2574  -27.0627  -40.6425 C.3       6 UNK         0.0297 
     41 CB         24.8375  -26.3784  -41.9569 C.3       6 UNK        -0.2006 
     42 C          25.9748  -28.4005  -40.9208 C.2       6 UNK         0.4892 
     43 O          26.8900  -28.4244  -41.7438 O.2       6 UNK        -0.5089 
     44 N          25.5367  -29.4867  -40.2609 N.am      7 UNK        -0.4243 
     45 CA         25.9825  -30.8810  -40.3913 C.3       7 UNK         0.0196 
     46 CB         27.4700  -31.0267  -40.0058 C.3       7 UNK        -0.2007 
     47 C          25.6659  -31.5301  -41.7539 C.2       7 UNK         0.5020 
     48 O          26.1689  -32.6203  -42.0275 O.2       7 UNK        -0.5147 
     49 N          24.8403  -30.8788  -42.5840 N.am      8 UNK        -0.4734 
     50 CA         24.5305  -31.3263  -43.9427 C.3       8 UNK         0.0238 
     51 CB         24.2484  -30.1021  -44.8223 C.3       8 UNK        -0.1912 
     52 C          23.3674  -32.3276  -43.9845 C.2       8 UNK         0.5038 
     53 O          23.4586  -33.3189  -44.7093 O.2       8 UNK        -0.5046 
     54 N          22.3144  -32.0661  -43.1985 N.am      9 UNK        -0.4200 
     55 CA         21.1412  -32.9482  -43.0496 C.3       9 UNK         0.0839 
     56 C          21.3069  -34.0338  -41.9434 C.2       9 UNK         0.5513 
     57 N          22.4524  -34.1389  -41.2794 N.am      9 UNK        -0.7519 
     58 O          20.3843  -34.8001  -41.6818 O.2       9 UNK        -0.4960 
     59 C59        19.8297  -32.1262  -42.8942 C.3       10 UNK        -0.0876 
     60 S60        18.4005  -32.8805  -43.7369 S.3       10 UNK        -0.2414 
     61 C61        17.0307  -32.3944  -42.6377 C.3       10 UNK         0.0169 
     62 H62        16.4829  -22.2396  -48.9987 H         1 UNK         0.0903 
     63 H63        16.5436  -21.9077  -47.2666 H         1 UNK         0.0903 
     64 H64        17.9375  -21.5386  -48.2840 H         1 UNK         0.0903 
     65 H65        16.8662  -23.7595  -46.0443 H         1 UNK         0.3096 
     66 H66        17.7367  -26.2553  -47.1649 H         1 UNK         0.1121 
     67 H67        17.2612  -25.3576  -44.2662 H         1 UNK         0.0849 
     68 H68        17.7150  -26.9792  -44.6932 H         1 UNK         0.0849 
     69 H69        14.4714  -28.7080  -45.3880 H         1 UNK         0.0865 
     70 H70        16.0924  -28.7212  -46.0348 H         1 UNK         0.0865 
     71 H71        16.1300  -30.9074  -44.7259 H         1 UNK         0.1346 
     72 H72        17.3105  -30.5630  -40.6202 H         1 UNK         0.1412 
     73 H73        15.9499  -27.1063  -42.7362 H         1 UNK         0.1426 
     74 H74        16.5665  -26.8466  -40.5030 H         1 UNK         0.0716 
     75 H75        16.2728  -28.2553  -39.5156 H         1 UNK         0.0716 
     76 H76        18.8171  -26.4972  -41.7508 H         1 UNK         0.0695 
     77 H77        20.2811  -26.4492  -40.8153 H         1 UNK         0.0695 
     78 H78        19.3879  -28.8295  -42.5310 H         1 UNK         0.0983 
     79 H79        20.7970  -26.4558  -43.2770 H         1 UNK         0.3095 
     80 H80        21.8682  -26.2002  -45.2690 H         1 UNK         0.0454 
     81 H81        21.8233  -28.6383  -47.1422 H         1 UNK         0.0851 
     82 H82        22.4045  -27.0371  -47.5873 H         1 UNK         0.0851 
     83 H83        23.2274  -27.9464  -46.3371 H         1 UNK         0.0851 
     84 H84        19.5594  -27.4516  -46.7031 H         1 UNK         0.2976 
     85 H85        19.8246  -29.9028  -40.3951 H         1 UNK         0.3116 
     86 H86        22.3770  -31.2393  -40.2541 H         1 UNK         0.0646 
     87 H87        21.3803  -32.2599  -38.2021 H         1 UNK         0.0847 
     88 H88        20.2630  -32.3563  -39.5478 H         1 UNK         0.0847 
     89 H89        20.0217  -31.1482  -38.2862 H         1 UNK         0.0847 
     90 H90        21.0838  -28.2917  -38.8636 H         1 UNK         0.3040 
     91 H91        22.9891  -27.8575  -36.7835 H         1 UNK         0.1015 
     92 H92        20.8813  -26.5473  -37.0127 H         1 UNK         0.0786 
     93 H93        21.4466  -25.8598  -38.5351 H         1 UNK         0.0786 
     94 H94        22.2707  -25.4743  -37.0306 H         1 UNK         0.0786 
     95 H95        23.2725  -27.6676  -40.2784 H         1 UNK         0.3172 
     96 H96        25.9728  -26.4119  -40.1360 H         1 UNK         0.0595 
     97 H97        25.7068  -26.1499  -42.5748 H         1 UNK         0.0839 
     98 H98        24.3226  -25.4366  -41.7671 H         1 UNK         0.0839 
     99 H99        24.1752  -27.0091  -42.5510 H         1 UNK         0.0839 
    100 H100       24.7925  -29.3566  -39.5850 H         1 UNK         0.2998 
    101 H101       25.4040  -31.4467  -39.6599 H         1 UNK         0.0822 
    102 H102       27.6736  -30.5774  -39.0338 H         1 UNK         0.0787 
    103 H103       27.7571  -32.0769  -39.9409 H         1 UNK         0.0787 
    104 H104       28.1277  -30.5575  -40.7379 H         1 UNK         0.0787 
    105 H105       24.4317  -30.0035  -42.2804 H         1 UNK         0.3055 
    106 H106       25.4037  -31.8335  -44.3608 H         1 UNK         0.1106 
    107 H107       23.8974  -30.3965  -45.8125 H         1 UNK         0.0828 
    108 H108       23.4897  -29.4617  -44.3767 H         1 UNK         0.0828 
    109 H109       25.1477  -29.5015  -44.9597 H         1 UNK         0.0828 
    110 H110       22.3299  -31.2269  -42.6378 H         1 UNK         0.2931 
    111 H111       21.0530  -33.5116  -43.9803 H         1 UNK         0.0412 
    112 H112       22.5451  -34.8505  -40.5716 H         1 UNK         0.3472 
    113 H113       23.2372  -33.5531  -41.5122 H         1 UNK         0.3472 
    114 H114       19.9435  -31.1375  -43.3353 H         1 UNK         0.0970 
    115 H115       19.5895  -31.9614  -41.8443 H         1 UNK         0.0970 
    116 H116       17.2470  -32.7314  -41.6226 H         1 UNK         0.0612 
    117 H117       16.1299  -32.9249  -42.9491 H         1 UNK         0.0612 
@<TRIPOS>BOND
     1    1    2 1    
     2    1   62 1    
     3    1   63 1    
     4    1   64 1    
     5    2    3 2    
     6    2    4 am   BACKBONE|DICT|INTERRES
     7    4    5 1    
     8    4   65 1    
     9    5    6 1    
    10    5   25 1    
    11    5   66 1    
    12    6    7 1    
    13    6   67 1    
    14    6   68 1    
    15    7    8 1    
    16    8    9 1    
    17    8   69 1    
    18    8   70 1    
    19    9   10 ar   
    20    9   14 ar   
    21   10   11 ar   
    22   10   71 1    
    23   11   12 ar   
    24   11   61 1    
    25   12   13 ar   
    26   12   72 1    
    27   13   14 ar   
    28   13   15 1    
    29   14   73 1    
    30   15   16 1    
    31   15   74 1    
    32   15   75 1    
    33   16   17 1    
    34   17   18 1    
    35   17   76 1    
    36   17   77 1    
    37   18   19 1    
    38   18   27 1    
    39   18   78 1    
    40   19   20 am   BACKBONE|DICT|INTERRES
    41   19   79 1    
    42   20   21 2    
    43   20   22 1    
    44   22   23 1    
    45   22   24 1    
    46   22   80 1    
    47   23   81 1    
    48   23   82 1    
    49   23   83 1    
    50   24   25 am   BACKBONE|DICT|INTERRES
    51   24   84 1    
    52   25   26 2    
    53   27   28 2    
    54   27   29 am   BACKBONE|DICT|INTERRES
    55   29   30 1    
    56   29   85 1    
    57   30   31 1    
    58   30   32 1    
    59   30   86 1    
    60   31   87 1    
    61   31   88 1    
    62   31   89 1    
    63   32   33 2    
    64   32   34 am   BACKBONE|DICT|INTERRES
    65   34   35 1    
    66   34   90 1    
    67   35   36 1    
    68   35   37 1    
    69   35   91 1    
    70   36   92 1    
    71   36   93 1    
    72   36   94 1    
    73   37   38 2    
    74   37   39 am   BACKBONE|DICT|INTERRES
    75   39   40 1    
    76   39   95 1    
    77   40   41 1    
    78   40   42 1    
    79   40   96 1    
    80   41   97 1    
    81   41   98 1    
    82   41   99 1    
    83   42   43 2    
    84   42   44 am   BACKBONE|DICT|INTERRES
    85   44   45 1    
    86   44  100 1    
    87   45   46 1    
    88   45   47 1    
    89   45  101 1    
    90   46  102 1    
    91   46  103 1    
    92   46  104 1    
    93   47   48 2    
    94   47   49 am   BACKBONE|DICT|INTERRES
    95   49   50 1    
    96   49  105 1    
    97   50   51 1    
    98   50   52 1    
    99   50  106 1    
   100   51  107 1    
   101   51  108 1    
   102   51  109 1    
   103   52   53 2    
   104   52   54 am   BACKBONE|DICT|INTERRES
   105   54   55 1    
   106   54  110 1    
   107   55   56 1    
   108   55   59 1    
   109   55  111 1    
   110   56   57 am   BACKBONE|DICT|INTERRES
   111   56   58 2    
   112   57  112 1    
   113   57  113 1    
   114   59   60 1    
   115   59  114 1    
   116   59  115 1    
   117   60   61 1    
   118   61  116 1    
   119   61  117 1    
@<TRIPOS>SUBSTRUCTURE
     1 UNK         1 GROUP             0       ****    0 ROOT    
