@<TRIPOS>MOLECULE
3R8
117   119    1
SMALL
USER_CHARGES


@<TRIPOS>ATOM
      1 CA         15.3844  -23.4378  -41.9743 C.3       0 UNK        -0.2013 
      2 C          15.9574  -23.8319  -43.3275 C.2       0 UNK         0.4866 
      3 O          15.9309  -23.0291  -44.2614 O.2       0 UNK        -0.5176 
      4 N          16.4663  -25.0645  -43.4433 N.am      1 UNK        -0.4884 
      5 CA         17.1052  -25.5974  -44.6516 C.3       1 UNK         0.0853 
      6 C6         17.2880  -27.1326  -44.5750 C.3       10 UNK        -0.0849 
      7 S7         15.7121  -28.0337  -44.3901 S.3       10 UNK        -0.2776 
      8 C8         16.0402  -29.5458  -45.3563 C.3       10 UNK         0.0316 
      9 C9         17.2689  -30.2887  -44.8478 C.ar      10 UNK        -0.0863 
     10 C10        17.2286  -30.9572  -43.6206 C.ar      10 UNK        -0.1009 
     11 C11        18.3608  -31.6179  -43.1363 C.ar      10 UNK        -0.0712 
     12 C12        19.5430  -31.5950  -43.8825 C.ar      10 UNK        -0.0894 
     13 C13        19.5919  -30.9486  -45.1208 C.ar      10 UNK        -0.0745 
     14 C14        18.4471  -30.3046  -45.6018 C.ar      10 UNK        -0.0972 
     15 C15        20.8755  -30.9758  -45.9441 C.3       10 UNK         0.0209 
     16 S16        21.4414  -29.3181  -46.4458 S.3       10 UNK        -0.2568 
     17 C17        21.8092  -28.5672  -44.8275 C.3       10 UNK        -0.0983 
     18 CA         22.2483  -27.0872  -44.9510 C.3       3 UNK         0.0876 
     19 N          21.2391  -26.2735  -45.6353 N.am      3 UNK        -0.4424 
     20 C          21.4101  -25.0192  -46.0747 C.2       2 UNK         0.4918 
     21 O          22.4847  -24.4201  -46.0349 O.2       2 UNK        -0.4875 
     22 CA         20.1642  -24.2966  -46.6268 C.3       2 UNK         0.0481 
     23 CB         20.1925  -24.2873  -48.1636 C.3       2 UNK        -0.1831 
     24 N          18.8797  -24.8491  -46.1713 N.am      2 UNK        -0.4498 
     25 C          18.4743  -24.9306  -44.8945 C.2       1 UNK         0.5027 
     26 O          19.1662  -24.5800  -43.9339 O.2       1 UNK        -0.4969 
     27 C          22.6181  -26.5373  -43.5566 C.2       3 UNK         0.5005 
     28 O          23.6829  -26.8895  -43.0495 O.2       3 UNK        -0.5279 
     29 N          21.7371  -25.7260  -42.9415 N.am      4 UNK        -0.4463 
     30 CA         21.9054  -25.0469  -41.6463 C.3       4 UNK         0.0283 
     31 CB         22.9394  -23.9097  -41.7817 C.3       4 UNK        -0.1875 
     32 C          22.2274  -25.9898  -40.4659 C.2       4 UNK         0.4949 
     33 O          22.8765  -25.5695  -39.5072 O.2       4 UNK        -0.5039 
     34 N          21.7899  -27.2538  -40.5767 N.am      5 UNK        -0.4663 
     35 CA         22.0874  -28.3845  -39.6886 C.3       5 UNK         0.0242 
     36 CB         21.4475  -28.1790  -38.2990 C.3       5 UNK        -0.1982 
     37 C          23.5888  -28.7449  -39.6088 C.2       5 UNK         0.5017 
     38 O          24.0094  -29.3577  -38.6254 O.2       5 UNK        -0.5012 
     39 N          24.3709  -28.4006  -40.6442 N.am      6 UNK        -0.4439 
     40 CA         25.7881  -28.7620  -40.7631 C.3       6 UNK         0.0297 
     41 CB         26.5070  -27.7173  -41.6326 C.3       6 UNK        -0.2006 
     42 C          26.0036  -30.1768  -41.3351 C.2       6 UNK         0.4892 
     43 O          27.1250  -30.6819  -41.2655 O.2       6 UNK        -0.5089 
     44 N          24.9502  -30.7862  -41.8925 N.am      7 UNK        -0.4243 
     45 CA         24.9374  -32.1344  -42.4527 C.3       7 UNK         0.0196 
     46 CB         25.0415  -32.0467  -43.9849 C.3       7 UNK        -0.2007 
     47 C          23.6348  -32.8254  -42.0380 C.2       7 UNK         0.5020 
     48 O          22.6377  -32.1382  -41.8013 O.2       7 UNK        -0.5147 
     49 N          23.6680  -34.1645  -41.9726 N.am      8 UNK        -0.4734 
     50 CA         22.5790  -35.0788  -41.5962 C.3       8 UNK         0.0238 
     51 CB         21.4966  -35.1308  -42.6962 C.3       8 UNK        -0.1912 
     52 C          22.0115  -34.7807  -40.1954 C.2       8 UNK         0.5038 
     53 O          22.5143  -35.3290  -39.2138 O.2       8 UNK        -0.5046 
     54 N          20.9989  -33.9084  -40.1315 N.am      9 UNK        -0.4200 
     55 CA         20.4491  -33.3289  -38.8975 C.3       9 UNK         0.0839 
     56 C          21.4056  -32.3314  -38.1817 C.2       9 UNK         0.5513 
     57 N          22.4199  -31.8069  -38.8562 N.am      9 UNK        -0.7519 
     58 O          21.2224  -32.0397  -37.0028 O.2       9 UNK        -0.4960 
     59 C59        19.0488  -32.7037  -39.1410 C.3       10 UNK        -0.0876 
     60 S60        19.0281  -31.4308  -40.4568 S.3       10 UNK        -0.2414 
     61 C61        18.3013  -32.3825  -41.8240 C.3       10 UNK         0.0169 
     62 H62        14.3327  -23.1711  -42.0751 H         1 UNK         0.0903 
     63 H63        15.4607  -24.2466  -41.2477 H         1 UNK         0.0903 
     64 H64        15.9188  -22.5747  -41.5781 H         1 UNK         0.0903 
     65 H65        16.4649  -25.6826  -42.6446 H         1 UNK         0.3096 
     66 H66        16.4580  -25.3647  -45.5007 H         1 UNK         0.1121 
     67 H67        17.9378  -27.4093  -43.7417 H         1 UNK         0.0849 
     68 H68        17.7835  -27.4920  -45.4787 H         1 UNK         0.0849 
     69 H69        15.1703  -30.2016  -45.2974 H         1 UNK         0.0865 
     70 H70        16.1519  -29.2826  -46.4094 H         1 UNK         0.0865 
     71 H71        16.3153  -30.9569  -43.0411 H         1 UNK         0.1346 
     72 H72        20.4257  -32.0868  -43.5001 H         1 UNK         0.1412 
     73 H73        18.4821  -29.8035  -46.5596 H         1 UNK         0.1426 
     74 H74        20.7029  -31.5729  -46.8403 H         1 UNK         0.0716 
     75 H75        21.6802  -31.4690  -45.3961 H         1 UNK         0.0716 
     76 H76        22.5906  -29.1638  -44.3515 H         1 UNK         0.0695 
     77 H77        20.9248  -28.6519  -44.1926 H         1 UNK         0.0695 
     78 H78        23.1600  -27.0511  -45.5516 H         1 UNK         0.0983 
     79 H79        20.3359  -26.7038  -45.7588 H         1 UNK         0.3095 
     80 H80        20.2137  -23.2626  -46.2796 H         1 UNK         0.0454 
     81 H81        20.1184  -25.2945  -48.5756 H         1 UNK         0.0851 
     82 H82        21.1217  -23.8523  -48.5348 H         1 UNK         0.0851 
     83 H83        19.3755  -23.6937  -48.5739 H         1 UNK         0.0851 
     84 H84        18.2568  -25.1739  -46.8977 H         1 UNK         0.2976 
     85 H85        20.8777  -25.4912  -43.4307 H         1 UNK         0.3116 
     86 H86        20.9408  -24.5924  -41.4155 H         1 UNK         0.0646 
     87 H87        22.6894  -23.2429  -42.6070 H         1 UNK         0.0847 
     88 H88        23.9433  -24.2983  -41.9570 H         1 UNK         0.0847 
     89 H89        22.9784  -23.3017  -40.8772 H         1 UNK         0.0847 
     90 H90        21.2596  -27.4811  -41.4059 H         1 UNK         0.3040 
     91 H91        21.6045  -29.2539  -40.1392 H         1 UNK         0.1015 
     92 H92        21.9278  -27.3714  -37.7461 H         1 UNK         0.0786 
     93 H93        21.5302  -29.0815  -37.6920 H         1 UNK         0.0786 
     94 H94        20.3860  -27.9465  -38.3823 H         1 UNK         0.0786 
     95 H95        23.9766  -27.8669  -41.4166 H         1 UNK         0.3172 
     96 H96        26.2432  -28.7371  -39.7707 H         1 UNK         0.0595 
     97 H97        26.1616  -27.7451  -42.6666 H         1 UNK         0.0839 
     98 H98        27.5828  -27.8965  -41.6467 H         1 UNK         0.0839 
     99 H99        26.3510  -26.7071  -41.2535 H         1 UNK         0.0839 
    100 H100       24.0454  -30.3370  -41.8513 H         1 UNK         0.2998 
    101 H101       25.7766  -32.7129  -42.0602 H         1 UNK         0.0822 
    102 H102       25.9683  -31.5608  -44.2903 H         1 UNK         0.0787 
    103 H103       25.0309  -33.0390  -44.4377 H         1 UNK         0.0787 
    104 H104       24.2117  -31.4823  -44.4131 H         1 UNK         0.0787 
    105 H105       24.5505  -34.6181  -42.1682 H         1 UNK         0.3055 
    106 H106       23.0197  -36.0756  -41.5340 H         1 UNK         0.1106 
    107 H107       21.0715  -34.1526  -42.9096 H         1 UNK         0.0828 
    108 H108       20.6765  -35.7908  -42.4097 H         1 UNK         0.0828 
    109 H109       21.9076  -35.5174  -43.6287 H         1 UNK         0.0828 
    110 H110       20.7348  -33.4352  -40.9832 H         1 UNK         0.2931 
    111 H111       20.3084  -34.1551  -38.1978 H         1 UNK         0.0412 
    112 H112       22.5193  -32.0109  -39.8438 H         1 UNK         0.3472 
    113 H113       23.0348  -31.1354  -38.4137 H         1 UNK         0.3472 
    114 H114       18.6647  -32.2558  -38.2224 H         1 UNK         0.0970 
    115 H115       18.3376  -33.4924  -39.3906 H         1 UNK         0.0970 
    116 H116       18.8270  -33.3313  -41.9353 H         1 UNK         0.0612 
    117 H117       17.2687  -32.6323  -41.5747 H         1 UNK         0.0612 
@<TRIPOS>BOND
     1    1    2 1    
     2    1   62 1    
     3    1   63 1    
     4    1   64 1    
     5    2    3 2    
     6    2    4 am   BACKBONE|DICT|INTERRES
     7    4    5 1    
     8    4   65 1    
     9    5    6 1    
    10    5   25 1    
    11    5   66 1    
    12    6    7 1    
    13    6   67 1    
    14    6   68 1    
    15    7    8 1    
    16    8    9 1    
    17    8   69 1    
    18    8   70 1    
    19    9   10 ar   
    20    9   14 ar   
    21   10   11 ar   
    22   10   71 1    
    23   11   12 ar   
    24   11   61 1    
    25   12   13 ar   
    26   12   72 1    
    27   13   14 ar   
    28   13   15 1    
    29   14   73 1    
    30   15   16 1    
    31   15   74 1    
    32   15   75 1    
    33   16   17 1    
    34   17   18 1    
    35   17   76 1    
    36   17   77 1    
    37   18   19 1    
    38   18   27 1    
    39   18   78 1    
    40   19   20 am   BACKBONE|DICT|INTERRES
    41   19   79 1    
    42   20   21 2    
    43   20   22 1    
    44   22   23 1    
    45   22   24 1    
    46   22   80 1    
    47   23   81 1    
    48   23   82 1    
    49   23   83 1    
    50   24   25 am   BACKBONE|DICT|INTERRES
    51   24   84 1    
    52   25   26 2    
    53   27   28 2    
    54   27   29 am   BACKBONE|DICT|INTERRES
    55   29   30 1    
    56   29   85 1    
    57   30   31 1    
    58   30   32 1    
    59   30   86 1    
    60   31   87 1    
    61   31   88 1    
    62   31   89 1    
    63   32   33 2    
    64   32   34 am   BACKBONE|DICT|INTERRES
    65   34   35 1    
    66   34   90 1    
    67   35   36 1    
    68   35   37 1    
    69   35   91 1    
    70   36   92 1    
    71   36   93 1    
    72   36   94 1    
    73   37   38 2    
    74   37   39 am   BACKBONE|DICT|INTERRES
    75   39   40 1    
    76   39   95 1    
    77   40   41 1    
    78   40   42 1    
    79   40   96 1    
    80   41   97 1    
    81   41   98 1    
    82   41   99 1    
    83   42   43 2    
    84   42   44 am   BACKBONE|DICT|INTERRES
    85   44   45 1    
    86   44  100 1    
    87   45   46 1    
    88   45   47 1    
    89   45  101 1    
    90   46  102 1    
    91   46  103 1    
    92   46  104 1    
    93   47   48 2    
    94   47   49 am   BACKBONE|DICT|INTERRES
    95   49   50 1    
    96   49  105 1    
    97   50   51 1    
    98   50   52 1    
    99   50  106 1    
   100   51  107 1    
   101   51  108 1    
   102   51  109 1    
   103   52   53 2    
   104   52   54 am   BACKBONE|DICT|INTERRES
   105   54   55 1    
   106   54  110 1    
   107   55   56 1    
   108   55   59 1    
   109   55  111 1    
   110   56   57 am   BACKBONE|DICT|INTERRES
   111   56   58 2    
   112   57  112 1    
   113   57  113 1    
   114   59   60 1    
   115   59  114 1    
   116   59  115 1    
   117   60   61 1    
   118   61  116 1    
   119   61  117 1    
@<TRIPOS>SUBSTRUCTURE
     1 UNK         1 GROUP             0       ****    0 ROOT    
