@<TRIPOS>MOLECULE
3R8
117   119    1
SMALL
USER_CHARGES


@<TRIPOS>ATOM
      1 CA         12.7310  -24.2509  -43.6533 C.3       0 UNK        -0.2013 
      2 C          14.1106  -24.2285  -44.2945 C.2       0 UNK         0.4866 
      3 O          14.7589  -23.1824  -44.3116 O.2       0 UNK        -0.5176 
      4 N          14.5540  -25.3724  -44.8301 N.am      1 UNK        -0.4884 
      5 CA         15.8749  -25.5839  -45.4295 C.3       1 UNK         0.0853 
      6 C6         15.8970  -26.8162  -46.3765 C.3       10 UNK        -0.0849 
      7 S7         15.0829  -28.3113  -45.6991 S.3       10 UNK        -0.2776 
      8 C8         16.1085  -29.6480  -46.3852 C.3       10 UNK         0.0316 
      9 C9         17.4404  -29.7775  -45.6617 C.ar      10 UNK        -0.0863 
     10 C10        17.4936  -30.3569  -44.3907 C.ar      10 UNK        -0.1009 
     11 C11        18.7182  -30.5244  -43.7373 C.ar      10 UNK        -0.0712 
     12 C12        19.8955  -30.1011  -44.3614 C.ar      10 UNK        -0.0894 
     13 C13        19.8527  -29.5076  -45.6258 C.ar      10 UNK        -0.0745 
     14 C14        18.6233  -29.3519  -46.2729 C.ar      10 UNK        -0.0972 
     15 C15        21.1333  -29.0569  -46.3106 C.3       10 UNK         0.0209 
     16 S16        21.3315  -27.2492  -46.2568 S.3       10 UNK        -0.2568 
     17 C17        22.0239  -26.9810  -44.5905 C.3       10 UNK        -0.0983 
     18 CA         21.3170  -25.8100  -43.8589 C.3       3 UNK         0.0876 
     19 N          19.9213  -26.0909  -43.4902 N.am      3 UNK        -0.4424 
     20 C          19.4269  -27.0171  -42.6612 C.2       2 UNK         0.4918 
     21 O          20.1295  -27.8022  -42.0235 O.2       2 UNK        -0.4875 
     22 CA         17.8988  -27.0589  -42.4553 C.3       2 UNK         0.0481 
     23 CB         17.5000  -26.1785  -41.2562 C.3       2 UNK        -0.1831 
     24 N          17.0614  -26.7507  -43.6266 N.am      2 UNK        -0.4498 
     25 C          16.9657  -25.6192  -44.3398 C.2       1 UNK         0.5027 
     26 O          17.6751  -24.6283  -44.1578 O.2       1 UNK        -0.4969 
     27 C          22.1884  -25.2692  -42.7038 C.2       3 UNK         0.5005 
     28 O          23.0119  -24.3861  -42.9507 O.2       3 UNK        -0.5279 
     29 N          22.0159  -25.7950  -41.4825 N.am      4 UNK        -0.4463 
     30 CA         22.7270  -25.5071  -40.2267 C.3       4 UNK         0.0283 
     31 CB         22.5876  -24.0295  -39.8121 C.3       4 UNK        -0.1875 
     32 C          24.2000  -25.9552  -40.2267 C.2       4 UNK         0.4949 
     33 O          24.6348  -26.5972  -39.2703 O.2       4 UNK        -0.5039 
     34 N          24.9316  -25.6427  -41.3022 N.am      5 UNK        -0.4663 
     35 CA         26.2627  -26.1675  -41.6035 C.3       5 UNK         0.0242 
     36 CB         26.8501  -25.3842  -42.7880 C.3       5 UNK        -0.1982 
     37 C          26.1989  -27.6691  -41.9301 C.2       5 UNK         0.5017 
     38 O          25.1874  -28.1374  -42.4596 O.2       5 UNK        -0.5012 
     39 N          27.2734  -28.3967  -41.5964 N.am      6 UNK        -0.4439 
     40 CA         27.4825  -29.8479  -41.7439 C.3       6 UNK         0.0297 
     41 CB         27.3951  -30.2882  -43.2191 C.3       6 UNK        -0.2006 
     42 C          26.5889  -30.7355  -40.8528 C.2       6 UNK         0.4892 
     43 O          27.0619  -31.7800  -40.4041 O.2       6 UNK        -0.5089 
     44 N          25.3411  -30.3093  -40.6050 N.am      7 UNK        -0.4243 
     45 CA         24.3053  -30.9637  -39.7960 C.3       7 UNK         0.0196 
     46 CB         24.6987  -30.9716  -38.3037 C.3       7 UNK        -0.2007 
     47 C          23.9404  -32.3599  -40.3339 C.2       7 UNK         0.5020 
     48 O          23.8744  -33.3254  -39.5712 O.2       7 UNK        -0.5147 
     49 N          23.7107  -32.4355  -41.6533 N.am      8 UNK        -0.4734 
     50 CA         23.4530  -33.6668  -42.4130 C.3       8 UNK         0.0238 
     51 CB         23.3065  -33.3127  -43.9024 C.3       8 UNK        -0.1912 
     52 C          22.2389  -34.4875  -41.9382 C.2       8 UNK         0.5038 
     53 O          22.2336  -35.7065  -42.1156 O.2       8 UNK        -0.5046 
     54 N          21.2496  -33.8123  -41.3415 N.am      9 UNK        -0.4200 
     55 CA         20.0620  -34.4272  -40.7292 C.3       9 UNK         0.0839 
     56 C          20.3078  -35.0063  -39.3045 C.2       9 UNK         0.5513 
     57 N          21.4745  -34.8312  -38.6941 N.am      9 UNK        -0.7519 
     58 O          19.4181  -35.6394  -38.7418 O.2       9 UNK        -0.4960 
     59 C59        18.8427  -33.4679  -40.7470 C.3       10 UNK        -0.0876 
     60 S60        18.4099  -32.9384  -42.4391 S.3       10 UNK        -0.2414 
     61 C61        18.7682  -31.1576  -42.3562 C.3       10 UNK         0.0169 
     62 H62        12.8023  -23.9773  -42.6008 H         1 UNK         0.0903 
     63 H63        12.0755  -23.5346  -44.1480 H         1 UNK         0.0903 
     64 H64        12.2669  -25.2350  -43.7168 H         1 UNK         0.0903 
     65 H65        13.9759  -26.2009  -44.7841 H         1 UNK         0.3096 
     66 H66        16.0981  -24.7100  -46.0466 H         1 UNK         0.1121 
     67 H67        15.3747  -26.5614  -47.3000 H         1 UNK         0.0849 
     68 H68        16.9199  -27.0453  -46.6805 H         1 UNK         0.0849 
     69 H69        15.5627  -30.5887  -46.2973 H         1 UNK         0.0865 
     70 H70        16.2558  -29.4847  -47.4541 H         1 UNK         0.0865 
     71 H71        16.5822  -30.6908  -43.9133 H         1 UNK         0.1346 
     72 H72        20.8444  -30.2243  -43.8580 H         1 UNK         0.1412 
     73 H73        18.5929  -28.9043  -47.2570 H         1 UNK         0.1426 
     74 H74        21.1099  -29.3737  -47.3543 H         1 UNK         0.0716 
     75 H75        22.0073  -29.5381  -45.8687 H         1 UNK         0.0716 
     76 H76        23.0879  -26.7728  -44.7222 H         1 UNK         0.0695 
     77 H77        21.9705  -27.8973  -44.0012 H         1 UNK         0.0695 
     78 H78        21.2516  -24.9804  -44.5654 H         1 UNK         0.0983 
     79 H79        19.2358  -25.4537  -43.8909 H         1 UNK         0.3095 
     80 H80        17.6563  -28.0902  -42.1957 H         1 UNK         0.0454 
     81 H81        18.0532  -26.4644  -40.3605 H         1 UNK         0.0851 
     82 H82        16.4394  -26.2791  -41.0261 H         1 UNK         0.0851 
     83 H83        17.7043  -25.1232  -41.4397 H         1 UNK         0.0851 
     84 H84        16.4615  -27.5100  -43.9262 H         1 UNK         0.2976 
     85 H85        21.3521  -26.5661  -41.4349 H         1 UNK         0.3116 
     86 H86        22.2207  -26.1049  -39.4670 H         1 UNK         0.0646 
     87 H87        23.0906  -23.3575  -40.5077 H         1 UNK         0.0847 
     88 H88        21.5410  -23.7310  -39.7548 H         1 UNK         0.0847 
     89 H89        23.0271  -23.8611  -38.8282 H         1 UNK         0.0847 
     90 H90        24.4578  -25.1293  -42.0415 H         1 UNK         0.3040 
     91 H91        26.8956  -26.0187  -40.7257 H         1 UNK         0.1015 
     92 H92        27.8552  -25.7325  -43.0300 H         1 UNK         0.0786 
     93 H93        26.9221  -24.3198  -42.5630 H         1 UNK         0.0786 
     94 H94        26.2405  -25.4961  -43.6859 H         1 UNK         0.0786 
     95 H95        28.0371  -27.9107  -41.1454 H         1 UNK         0.3172 
     96 H96        28.5087  -30.0232  -41.4163 H         1 UNK         0.0595 
     97 H97        26.3883  -30.1776  -43.6228 H         1 UNK         0.0839 
     98 H98        27.6695  -31.3385  -43.3265 H         1 UNK         0.0839 
     99 H99        28.0737  -29.7109  -43.8469 H         1 UNK         0.0839 
    100 H100       25.0593  -29.4589  -41.0856 H         1 UNK         0.2998 
    101 H101       23.4064  -30.3529  -39.8942 H         1 UNK         0.0822 
    102 H102       23.8860  -31.3590  -37.6879 H         1 UNK         0.0787 
    103 H103       24.9224  -29.9654  -37.9489 H         1 UNK         0.0787 
    104 H104       25.5731  -31.5958  -38.1173 H         1 UNK         0.0787 
    105 H105       23.7967  -31.5865  -42.1937 H         1 UNK         0.3055 
    106 H106       24.3306  -34.3064  -42.2961 H         1 UNK         0.1106 
    107 H107       24.2032  -32.8264  -44.2870 H         1 UNK         0.0828 
    108 H108       23.1454  -34.2093  -44.5029 H         1 UNK         0.0828 
    109 H109       22.4596  -32.6480  -44.0783 H         1 UNK         0.0828 
    110 H110       21.3491  -32.8156  -41.2309 H         1 UNK         0.2931 
    111 H111       19.7891  -35.2883  -41.3426 H         1 UNK         0.0412 
    112 H112       21.6079  -35.2209  -37.7745 H         1 UNK         0.3472 
    113 H113       22.2338  -34.3218  -39.1353 H         1 UNK         0.3472 
    114 H114       17.9637  -33.9615  -40.3278 H         1 UNK         0.0970 
    115 H115       19.0276  -32.5980  -40.1143 H         1 UNK         0.0970 
    116 H116       18.0425  -30.6710  -41.7029 H         1 UNK         0.0612 
    117 H117       19.7486  -31.0031  -41.9028 H         1 UNK         0.0612 
@<TRIPOS>BOND
     1    1    2 1    
     2    1   62 1    
     3    1   63 1    
     4    1   64 1    
     5    2    3 2    
     6    2    4 am   BACKBONE|DICT|INTERRES
     7    4    5 1    
     8    4   65 1    
     9    5    6 1    
    10    5   25 1    
    11    5   66 1    
    12    6    7 1    
    13    6   67 1    
    14    6   68 1    
    15    7    8 1    
    16    8    9 1    
    17    8   69 1    
    18    8   70 1    
    19    9   10 ar   
    20    9   14 ar   
    21   10   11 ar   
    22   10   71 1    
    23   11   12 ar   
    24   11   61 1    
    25   12   13 ar   
    26   12   72 1    
    27   13   14 ar   
    28   13   15 1    
    29   14   73 1    
    30   15   16 1    
    31   15   74 1    
    32   15   75 1    
    33   16   17 1    
    34   17   18 1    
    35   17   76 1    
    36   17   77 1    
    37   18   19 1    
    38   18   27 1    
    39   18   78 1    
    40   19   20 am   BACKBONE|DICT|INTERRES
    41   19   79 1    
    42   20   21 2    
    43   20   22 1    
    44   22   23 1    
    45   22   24 1    
    46   22   80 1    
    47   23   81 1    
    48   23   82 1    
    49   23   83 1    
    50   24   25 am   BACKBONE|DICT|INTERRES
    51   24   84 1    
    52   25   26 2    
    53   27   28 2    
    54   27   29 am   BACKBONE|DICT|INTERRES
    55   29   30 1    
    56   29   85 1    
    57   30   31 1    
    58   30   32 1    
    59   30   86 1    
    60   31   87 1    
    61   31   88 1    
    62   31   89 1    
    63   32   33 2    
    64   32   34 am   BACKBONE|DICT|INTERRES
    65   34   35 1    
    66   34   90 1    
    67   35   36 1    
    68   35   37 1    
    69   35   91 1    
    70   36   92 1    
    71   36   93 1    
    72   36   94 1    
    73   37   38 2    
    74   37   39 am   BACKBONE|DICT|INTERRES
    75   39   40 1    
    76   39   95 1    
    77   40   41 1    
    78   40   42 1    
    79   40   96 1    
    80   41   97 1    
    81   41   98 1    
    82   41   99 1    
    83   42   43 2    
    84   42   44 am   BACKBONE|DICT|INTERRES
    85   44   45 1    
    86   44  100 1    
    87   45   46 1    
    88   45   47 1    
    89   45  101 1    
    90   46  102 1    
    91   46  103 1    
    92   46  104 1    
    93   47   48 2    
    94   47   49 am   BACKBONE|DICT|INTERRES
    95   49   50 1    
    96   49  105 1    
    97   50   51 1    
    98   50   52 1    
    99   50  106 1    
   100   51  107 1    
   101   51  108 1    
   102   51  109 1    
   103   52   53 2    
   104   52   54 am   BACKBONE|DICT|INTERRES
   105   54   55 1    
   106   54  110 1    
   107   55   56 1    
   108   55   59 1    
   109   55  111 1    
   110   56   57 am   BACKBONE|DICT|INTERRES
   111   56   58 2    
   112   57  112 1    
   113   57  113 1    
   114   59   60 1    
   115   59  114 1    
   116   59  115 1    
   117   60   61 1    
   118   61  116 1    
   119   61  117 1    
@<TRIPOS>SUBSTRUCTURE
     1 UNK         1 GROUP             0       ****    0 ROOT    
