@<TRIPOS>MOLECULE
3R8
117   119    1
SMALL
USER_CHARGES


@<TRIPOS>ATOM
      1 CA         18.8248  -23.0356  -40.9160 C.3       0 UNK        -0.2013 
      2 C          18.2045  -23.5565  -42.2042 C.2       0 UNK         0.4866 
      3 O          17.1605  -23.0567  -42.6245 O.2       0 UNK        -0.5176 
      4 N          18.8453  -24.5483  -42.8312 N.am      1 UNK        -0.4884 
      5 CA         18.4465  -25.1539  -44.1030 C.3       1 UNK         0.0853 
      6 C6         17.8747  -26.5866  -43.9348 C.3       10 UNK        -0.0849 
      7 S7         16.3801  -26.6730  -42.8894 S.3       10 UNK        -0.2776 
      8 C8         15.3373  -27.8604  -43.8036 C.3       10 UNK         0.0316 
      9 C9         16.0536  -29.1816  -44.0555 C.ar      10 UNK        -0.0863 
     10 C10        16.4160  -30.0041  -42.9841 C.ar      10 UNK        -0.1009 
     11 C11        17.1251  -31.1883  -43.2063 C.ar      10 UNK        -0.0712 
     12 C12        17.4471  -31.5627  -44.5131 C.ar      10 UNK        -0.0894 
     13 C13        17.0925  -30.7483  -45.5917 C.ar      10 UNK        -0.0745 
     14 C14        16.3838  -29.5661  -45.3592 C.ar      10 UNK        -0.0972 
     15 C15        17.5270  -31.1222  -47.0015 C.3       10 UNK         0.0209 
     16 S16        18.7963  -29.9859  -47.6536 S.3       10 UNK        -0.2568 
     17 C17        20.0624  -30.0183  -46.3345 C.3       10 UNK        -0.0983 
     18 CA         21.1958  -28.9845  -46.5571 C.3       3 UNK         0.0876 
     19 N          20.6535  -27.6386  -46.7729 N.am      3 UNK        -0.4424 
     20 C          21.2796  -26.6104  -47.3589 C.2       2 UNK         0.4918 
     21 O          22.4009  -26.6874  -47.8598 O.2       2 UNK        -0.4875 
     22 CA         20.5456  -25.2538  -47.3446 C.3       2 UNK         0.0481 
     23 CB         19.9324  -24.9665  -48.7244 C.3       2 UNK        -0.1831 
     24 N          19.4982  -25.1411  -46.3175 N.am      2 UNK        -0.4498 
     25 C          19.6979  -25.2120  -44.9925 C.2       1 UNK         0.5027 
     26 O          20.8039  -25.3962  -44.4722 O.2       1 UNK        -0.4969 
     27 C          22.2223  -29.0450  -45.3965 C.2       3 UNK         0.5005 
     28 O          22.7060  -30.1370  -45.0956 O.2       3 UNK        -0.5279 
     29 N          22.5265  -27.8957  -44.7678 N.am      4 UNK        -0.4463 
     30 CA         23.4295  -27.6864  -43.6327 C.3       4 UNK         0.0283 
     31 CB         24.8604  -28.1865  -43.9259 C.3       4 UNK        -0.1875 
     32 C          22.8375  -28.2705  -42.3438 C.2       4 UNK         0.4949 
     33 O          23.3323  -29.2691  -41.8237 O.2       4 UNK        -0.5039 
     34 N          21.7818  -27.6165  -41.8395 N.am      5 UNK        -0.4663 
     35 CA         21.0395  -27.9994  -40.6284 C.3       5 UNK         0.0242 
     36 CB         19.9070  -26.9906  -40.3792 C.3       5 UNK        -0.1982 
     37 C          21.8945  -28.1665  -39.3573 C.2       5 UNK         0.5017 
     38 O          21.5369  -28.9680  -38.4949 O.2       5 UNK        -0.5012 
     39 N          23.0093  -27.4288  -39.2776 N.am      6 UNK        -0.4439 
     40 CA         23.9729  -27.4689  -38.1768 C.3       6 UNK         0.0297 
     41 CB         24.6883  -26.1086  -38.1060 C.3       6 UNK        -0.2006 
     42 C          25.0043  -28.6120  -38.2754 C.2       6 UNK         0.4892 
     43 O          25.7507  -28.8028  -37.3144 O.2       6 UNK        -0.5089 
     44 N          25.0668  -29.3299  -39.4098 N.am      7 UNK        -0.4243 
     45 CA         26.0501  -30.3899  -39.6595 C.3       7 UNK         0.0196 
     46 CB         26.0677  -30.7851  -41.1457 C.3       7 UNK        -0.2007 
     47 C          26.0073  -31.6264  -38.7271 C.2       7 UNK         0.5020 
     48 O          27.0876  -32.1007  -38.3796 O.2       7 UNK        -0.5147 
     49 N          24.8653  -32.1688  -38.2690 N.am      8 UNK        -0.4734 
     50 CA         23.4699  -31.9361  -38.6549 C.3       8 UNK         0.0238 
     51 CB         22.5640  -32.5723  -37.5868 C.3       8 UNK        -0.1912 
     52 C          23.1355  -32.5160  -40.0383 C.2       8 UNK         0.5038 
     53 O          23.8494  -33.3941  -40.5298 O.2       8 UNK        -0.5046 
     54 N          22.0375  -32.0235  -40.6207 N.am      9 UNK        -0.4200 
     55 CA         21.4775  -32.4727  -41.9026 C.3       9 UNK         0.0839 
     56 C          21.0226  -33.9602  -41.9069 C.2       9 UNK         0.5513 
     57 N          21.0025  -34.5934  -43.0723 N.am      9 UNK        -0.7519 
     58 O          20.6563  -34.5322  -40.8819 O.2       9 UNK        -0.4960 
     59 C59        20.3489  -31.5238  -42.3850 C.3       10 UNK        -0.0876 
     60 S60        18.9936  -31.3023  -41.1718 S.3       10 UNK        -0.2414 
     61 C61        17.5716  -32.0450  -42.0317 C.3       10 UNK         0.0169 
     62 H62        18.1700  -23.2514  -40.0721 H         1 UNK         0.0903 
     63 H63        18.9614  -21.9560  -40.9742 H         1 UNK         0.0903 
     64 H64        19.7960  -23.4878  -40.7171 H         1 UNK         0.0903 
     65 H65        19.7477  -24.8546  -42.4960 H         1 UNK         0.3096 
     66 H66        17.7035  -24.5262  -44.6006 H         1 UNK         0.1121 
     67 H67        17.6308  -26.9975  -44.9158 H         1 UNK         0.0849 
     68 H68        18.6196  -27.2605  -43.5065 H         1 UNK         0.0849 
     69 H69        14.4279  -28.0487  -43.2313 H         1 UNK         0.0865 
     70 H70        15.0183  -27.4042  -44.7421 H         1 UNK         0.0865 
     71 H71        16.1782  -29.7033  -41.9727 H         1 UNK         0.1346 
     72 H72        18.0035  -32.4733  -44.6884 H         1 UNK         0.1412 
     73 H73        16.1226  -28.9308  -46.1948 H         1 UNK         0.1426 
     74 H74        17.9172  -32.1408  -47.0309 H         1 UNK         0.0716 
     75 H75        16.6605  -31.1060  -47.6639 H         1 UNK         0.0716 
     76 H76        20.4658  -31.0314  -46.2808 H         1 UNK         0.0695 
     77 H77        19.5815  -29.8259  -45.3741 H         1 UNK         0.0695 
     78 H78        21.7383  -29.2725  -47.4603 H         1 UNK         0.0983 
     79 H79        19.7164  -27.4890  -46.4329 H         1 UNK         0.3095 
     80 H80        21.2929  -24.4852  -47.1370 H         1 UNK         0.0454 
     81 H81        19.4891  -23.9715  -48.7643 H         1 UNK         0.0851 
     82 H82        19.1592  -25.6914  -48.9824 H         1 UNK         0.0851 
     83 H83        20.6921  -25.0101  -49.5063 H         1 UNK         0.0851 
     84 H84        18.5577  -24.9999  -46.6594 H         1 UNK         0.2976 
     85 H85        22.0251  -27.0648  -45.0603 H         1 UNK         0.3116 
     86 H86        23.4924  -26.6061  -43.4918 H         1 UNK         0.0646 
     87 H87        25.2517  -27.7539  -44.8465 H         1 UNK         0.0847 
     88 H88        25.5387  -27.9041  -43.1202 H         1 UNK         0.0847 
     89 H89        24.9090  -29.2719  -44.0177 H         1 UNK         0.0847 
     90 H90        21.4418  -26.8118  -42.3469 H         1 UNK         0.3040 
     91 H91        20.5863  -28.9695  -40.8236 H         1 UNK         0.1015 
     92 H92        20.2890  -25.9788  -40.2408 H         1 UNK         0.0786 
     93 H93        19.3437  -27.2504  -39.4816 H         1 UNK         0.0786 
     94 H94        19.1949  -26.9785  -41.2032 H         1 UNK         0.0786 
     95 H95        23.2180  -26.8054  -40.0439 H         1 UNK         0.3172 
     96 H96        23.4272  -27.6100  -37.2413 H         1 UNK         0.0595 
     97 H97        25.2643  -25.9066  -39.0100 H         1 UNK         0.0839 
     98 H98        25.3820  -26.0735  -37.2646 H         1 UNK         0.0839 
     99 H99        23.9787  -25.2924  -37.9690 H         1 UNK         0.0839 
    100 H100       24.4094  -29.1411  -40.1606 H         1 UNK         0.2998 
    101 H101       27.0213  -29.9274  -39.4685 H         1 UNK         0.0822 
    102 H102       26.3441  -29.9383  -41.7734 H         1 UNK         0.0787 
    103 H103       26.7961  -31.5752  -41.3323 H         1 UNK         0.0787 
    104 H104       25.1025  -31.1485  -41.4921 H         1 UNK         0.0787 
    105 H105       24.9833  -32.9644  -37.6598 H         1 UNK         0.3055 
    106 H106       23.2573  -30.8719  -38.6625 H         1 UNK         0.1106 
    107 H107       21.5107  -32.3868  -37.8024 H         1 UNK         0.0828 
    108 H108       22.7639  -32.1576  -36.5985 H         1 UNK         0.0828 
    109 H109       22.6984  -33.6536  -37.5326 H         1 UNK         0.0828 
    110 H110       21.4844  -31.3395  -40.1263 H         1 UNK         0.2931 
    111 H111       22.2919  -32.3923  -42.6261 H         1 UNK         0.0412 
    112 H112       20.6999  -35.5547  -43.1012 H         1 UNK         0.3472 
    113 H113       21.3042  -34.1387  -43.9200 H         1 UNK         0.3472 
    114 H114       20.7727  -30.5423  -42.5989 H         1 UNK         0.0970 
    115 H115       19.9522  -31.8663  -43.3405 H         1 UNK         0.0970 
    116 H116       17.8287  -33.0550  -42.3552 H         1 UNK         0.0612 
    117 H117       16.7469  -32.1483  -41.3252 H         1 UNK         0.0612 
@<TRIPOS>BOND
     1    1    2 1    
     2    1   62 1    
     3    1   63 1    
     4    1   64 1    
     5    2    3 2    
     6    2    4 am   BACKBONE|DICT|INTERRES
     7    4    5 1    
     8    4   65 1    
     9    5    6 1    
    10    5   25 1    
    11    5   66 1    
    12    6    7 1    
    13    6   67 1    
    14    6   68 1    
    15    7    8 1    
    16    8    9 1    
    17    8   69 1    
    18    8   70 1    
    19    9   10 ar   
    20    9   14 ar   
    21   10   11 ar   
    22   10   71 1    
    23   11   12 ar   
    24   11   61 1    
    25   12   13 ar   
    26   12   72 1    
    27   13   14 ar   
    28   13   15 1    
    29   14   73 1    
    30   15   16 1    
    31   15   74 1    
    32   15   75 1    
    33   16   17 1    
    34   17   18 1    
    35   17   76 1    
    36   17   77 1    
    37   18   19 1    
    38   18   27 1    
    39   18   78 1    
    40   19   20 am   BACKBONE|DICT|INTERRES
    41   19   79 1    
    42   20   21 2    
    43   20   22 1    
    44   22   23 1    
    45   22   24 1    
    46   22   80 1    
    47   23   81 1    
    48   23   82 1    
    49   23   83 1    
    50   24   25 am   BACKBONE|DICT|INTERRES
    51   24   84 1    
    52   25   26 2    
    53   27   28 2    
    54   27   29 am   BACKBONE|DICT|INTERRES
    55   29   30 1    
    56   29   85 1    
    57   30   31 1    
    58   30   32 1    
    59   30   86 1    
    60   31   87 1    
    61   31   88 1    
    62   31   89 1    
    63   32   33 2    
    64   32   34 am   BACKBONE|DICT|INTERRES
    65   34   35 1    
    66   34   90 1    
    67   35   36 1    
    68   35   37 1    
    69   35   91 1    
    70   36   92 1    
    71   36   93 1    
    72   36   94 1    
    73   37   38 2    
    74   37   39 am   BACKBONE|DICT|INTERRES
    75   39   40 1    
    76   39   95 1    
    77   40   41 1    
    78   40   42 1    
    79   40   96 1    
    80   41   97 1    
    81   41   98 1    
    82   41   99 1    
    83   42   43 2    
    84   42   44 am   BACKBONE|DICT|INTERRES
    85   44   45 1    
    86   44  100 1    
    87   45   46 1    
    88   45   47 1    
    89   45  101 1    
    90   46  102 1    
    91   46  103 1    
    92   46  104 1    
    93   47   48 2    
    94   47   49 am   BACKBONE|DICT|INTERRES
    95   49   50 1    
    96   49  105 1    
    97   50   51 1    
    98   50   52 1    
    99   50  106 1    
   100   51  107 1    
   101   51  108 1    
   102   51  109 1    
   103   52   53 2    
   104   52   54 am   BACKBONE|DICT|INTERRES
   105   54   55 1    
   106   54  110 1    
   107   55   56 1    
   108   55   59 1    
   109   55  111 1    
   110   56   57 am   BACKBONE|DICT|INTERRES
   111   56   58 2    
   112   57  112 1    
   113   57  113 1    
   114   59   60 1    
   115   59  114 1    
   116   59  115 1    
   117   60   61 1    
   118   61  116 1    
   119   61  117 1    
@<TRIPOS>SUBSTRUCTURE
     1 UNK         1 GROUP             0       ****    0 ROOT    
