@<TRIPOS>MOLECULE
3R8
117   119    1
SMALL
USER_CHARGES


@<TRIPOS>ATOM
      1 CA         16.0377  -27.8732  -42.4895 C.3       0 UNK        -0.2013 
      2 C          16.3091  -27.2828  -43.8643 C.2       0 UNK         0.4866 
      3 O          15.6735  -26.2997  -44.2470 O.2       0 UNK        -0.5176 
      4 N          17.2506  -27.8680  -44.6138 N.am      1 UNK        -0.4884 
      5 CA         17.5902  -27.5227  -46.0018 C.3       1 UNK         0.0853 
      6 C6         18.2352  -28.7176  -46.7615 C.3       10 UNK        -0.0849 
      7 S7         17.3465  -30.3041  -46.5781 S.3       10 UNK        -0.2776 
      8 C8         18.5930  -31.3290  -45.7256 C.3       10 UNK         0.0316 
      9 C9         18.6851  -31.0042  -44.2405 C.ar      10 UNK        -0.0863 
     10 C10        17.8948  -31.7047  -43.3238 C.ar      10 UNK        -0.1009 
     11 C11        17.9871  -31.4350  -41.9555 C.ar      10 UNK        -0.0712 
     12 C12        18.8541  -30.4347  -41.5083 C.ar      10 UNK        -0.0894 
     13 C13        19.6288  -29.7090  -42.4164 C.ar      10 UNK        -0.0745 
     14 C14        19.5610  -30.0153  -43.7785 C.ar      10 UNK        -0.0972 
     15 C15        20.4991  -28.5640  -41.9253 C.3       10 UNK         0.0209 
     16 S16        19.4678  -27.0862  -41.6971 S.3       10 UNK        -0.2568 
     17 C17        20.6971  -25.8133  -41.2703 C.3       10 UNK        -0.0983 
     18 CA         21.1842  -25.0044  -42.5029 C.3       3 UNK         0.0876 
     19 N          20.0645  -24.5061  -43.3073 N.am      3 UNK        -0.4424 
     20 C          20.1223  -24.0862  -44.5762 C.2       2 UNK         0.4918 
     21 O          21.1706  -23.9343  -45.2075 O.2       2 UNK        -0.4875 
     22 CA         18.7571  -23.8831  -45.2611 C.3       2 UNK         0.0481 
     23 CB         18.8653  -23.1338  -46.6058 C.3       2 UNK        -0.1831 
     24 N          18.0513  -25.1635  -45.4234 N.am      2 UNK        -0.4498 
     25 C          18.4714  -26.2509  -46.0913 C.2       1 UNK         0.5027 
     26 O          19.5159  -26.2832  -46.7450 O.2       1 UNK        -0.4969 
     27 C          22.1748  -23.8890  -42.1009 C.2       3 UNK         0.5005 
     28 O          22.2395  -23.5083  -40.9298 O.2       3 UNK        -0.5279 
     29 N          22.9541  -23.3983  -43.0750 N.am      4 UNK        -0.4463 
     30 CA         24.1197  -22.5295  -42.8639 C.3       4 UNK         0.0283 
     31 CB         24.6058  -21.9905  -44.2185 C.3       4 UNK        -0.1875 
     32 C          25.2643  -23.2522  -42.1248 C.2       4 UNK         0.4949 
     33 O          26.0502  -22.6055  -41.4322 O.2       4 UNK        -0.5039 
     34 N          25.3050  -24.5811  -42.2629 N.am      5 UNK        -0.4663 
     35 CA         26.0727  -25.5187  -41.4547 C.3       5 UNK         0.0242 
     36 CB         27.2654  -26.0405  -42.2732 C.3       5 UNK        -0.1982 
     37 C          25.1243  -26.6626  -41.0649 C.2       5 UNK         0.5017 
     38 O          24.1107  -26.8714  -41.7406 O.2       5 UNK        -0.5012 
     39 N          25.4655  -27.3802  -39.9883 N.am      6 UNK        -0.4439 
     40 CA         24.7173  -28.5395  -39.4944 C.3       6 UNK         0.0297 
     41 CB         25.2282  -28.9035  -38.0902 C.3       6 UNK        -0.2006 
     42 C          24.8306  -29.7499  -40.4385 C.2       6 UNK         0.4892 
     43 O          25.8267  -29.8828  -41.1544 O.2       6 UNK        -0.5089 
     44 N          23.8235  -30.6265  -40.3886 N.am      7 UNK        -0.4243 
     45 CA         23.7490  -31.8690  -41.1507 C.3       7 UNK         0.0196 
     46 CB         23.0253  -31.6133  -42.4859 C.3       7 UNK        -0.2007 
     47 C          23.0072  -32.9197  -40.3178 C.2       7 UNK         0.5020 
     48 O          22.2799  -32.5669  -39.3867 O.2       7 UNK        -0.5147 
     49 N          23.1807  -34.1924  -40.6929 N.am      8 UNK        -0.4734 
     50 CA         22.5219  -35.3498  -40.0724 C.3       8 UNK         0.0238 
     51 CB         23.4366  -36.5780  -40.2303 C.3       8 UNK        -0.1912 
     52 C          21.1152  -35.6352  -40.6394 C.2       8 UNK         0.5038 
     53 O          20.5014  -36.6265  -40.2423 O.2       8 UNK        -0.5046 
     54 N          20.6451  -34.7868  -41.5637 N.am      9 UNK        -0.4200 
     55 CA         19.3607  -34.8727  -42.2802 C.3       9 UNK         0.0839 
     56 C          19.2837  -36.0126  -43.3406 C.2       9 UNK         0.5513 
     57 N          20.3905  -36.6367  -43.7259 N.am      9 UNK        -0.7519 
     58 O          18.2082  -36.3178  -43.8495 O.2       9 UNK        -0.4960 
     59 C59        18.1088  -34.8444  -41.3522 C.3       10 UNK        -0.0876 
     60 S60        18.1122  -33.4973  -40.1174 S.3       10 UNK        -0.2414 
     61 C61        17.1414  -32.2051  -40.9539 C.3       10 UNK         0.0169 
     62 H62        14.9853  -28.1389  -42.3952 H         1 UNK         0.0903 
     63 H63        16.2787  -27.1467  -41.7141 H         1 UNK         0.0903 
     64 H64        16.6297  -28.7697  -42.3104 H         1 UNK         0.0903 
     65 H65        17.7505  -28.6638  -44.2381 H         1 UNK         0.3096 
     66 H66        16.6582  -27.2829  -46.5189 H         1 UNK         0.1121 
     67 H67        19.2732  -28.8548  -46.4580 H         1 UNK         0.0849 
     68 H68        18.2773  -28.4918  -47.8288 H         1 UNK         0.0849 
     69 H69        18.3250  -32.3789  -45.8544 H         1 UNK         0.0865 
     70 H70        19.5665  -31.2123  -46.2044 H         1 UNK         0.0865 
     71 H71        17.2161  -32.4704  -43.6746 H         1 UNK         0.1346 
     72 H72        18.9102  -30.2063  -40.4526 H         1 UNK         0.1412 
     73 H73        20.1762  -29.4655  -44.4767 H         1 UNK         0.1426 
     74 H74        21.2982  -28.3509  -42.6374 H         1 UNK         0.0716 
     75 H75        20.9800  -28.8303  -40.9828 H         1 UNK         0.0716 
     76 H76        21.5396  -26.2850  -40.7606 H         1 UNK         0.0695 
     77 H77        20.2294  -25.1525  -40.5379 H         1 UNK         0.0695 
     78 H78        21.7439  -25.7018  -43.1309 H         1 UNK         0.0983 
     79 H79        19.1555  -24.6108  -42.8813 H         1 UNK         0.3095 
     80 H80        18.1496  -23.2719  -44.5920 H         1 UNK         0.0454 
     81 H81        19.4718  -23.6760  -47.3317 H         1 UNK         0.0851 
     82 H82        19.3271  -22.1555  -46.4676 H         1 UNK         0.0851 
     83 H83        17.8828  -22.9691  -47.0476 H         1 UNK         0.0851 
     84 H84        17.1773  -25.2642  -44.9131 H         1 UNK         0.2976 
     85 H85        22.7446  -23.6792  -44.0288 H         1 UNK         0.3116 
     86 H86        23.8068  -21.6839  -42.2478 H         1 UNK         0.0646 
     87 H87        24.9248  -22.7945  -44.8830 H         1 UNK         0.0847 
     88 H88        25.4556  -21.3191  -44.0880 H         1 UNK         0.0847 
     89 H89        23.8230  -21.4261  -44.7256 H         1 UNK         0.0847 
     90 H90        24.5749  -25.0234  -42.8064 H         1 UNK         0.3040 
     91 H91        26.4288  -25.0307  -40.5443 H         1 UNK         0.1015 
     92 H92        26.9387  -26.5575  -43.1765 H         1 UNK         0.0786 
     93 H93        27.8626  -26.7445  -41.6922 H         1 UNK         0.0786 
     94 H94        27.9247  -25.2259  -42.5736 H         1 UNK         0.0786 
     95 H95        26.3342  -27.1706  -39.5182 H         1 UNK         0.3172 
     96 H96        23.6647  -28.2565  -39.4199 H         1 UNK         0.0595 
     97 H97        26.2801  -29.1922  -38.1055 H         1 UNK         0.0839 
     98 H98        24.6681  -29.7417  -37.6733 H         1 UNK         0.0839 
     99 H99        25.1182  -28.0687  -37.3977 H         1 UNK         0.0839 
    100 H100       23.0777  -30.5070  -39.7141 H         1 UNK         0.2998 
    101 H101       24.7579  -32.2401  -41.3454 H         1 UNK         0.0822 
    102 H102       23.5202  -30.8316  -43.0628 H         1 UNK         0.0787 
    103 H103       23.0097  -32.5099  -43.1063 H         1 UNK         0.0787 
    104 H104       21.9911  -31.3067  -42.3285 H         1 UNK         0.0787 
    105 H105       23.7933  -34.3900  -41.4725 H         1 UNK         0.3055 
    106 H106       22.3954  -35.1567  -39.0044 H         1 UNK         0.1106 
    107 H107       23.0145  -37.4503  -39.7290 H         1 UNK         0.0828 
    108 H108       23.5811  -36.8437  -41.2781 H         1 UNK         0.0828 
    109 H109       24.4179  -36.4014  -39.7895 H         1 UNK         0.0828 
    110 H110       21.2281  -34.0034  -41.8144 H         1 UNK         0.2931 
    111 H111       19.3331  -33.9625  -42.8764 H         1 UNK         0.0412 
    112 H112       21.2822  -36.3924  -43.3270 H         1 UNK         0.3472 
    113 H113       20.3299  -37.3648  -44.4207 H         1 UNK         0.3472 
    114 H114       18.0239  -35.7881  -40.8113 H         1 UNK         0.0970 
    115 H115       17.1975  -34.7685  -41.9476 H         1 UNK         0.0970 
    116 H116       16.7597  -31.5144  -40.2005 H         1 UNK         0.0612 
    117 H117       16.2650  -32.6431  -41.4337 H         1 UNK         0.0612 
@<TRIPOS>BOND
     1    1    2 1    
     2    1   62 1    
     3    1   63 1    
     4    1   64 1    
     5    2    3 2    
     6    2    4 am   BACKBONE|DICT|INTERRES
     7    4    5 1    
     8    4   65 1    
     9    5    6 1    
    10    5   25 1    
    11    5   66 1    
    12    6    7 1    
    13    6   67 1    
    14    6   68 1    
    15    7    8 1    
    16    8    9 1    
    17    8   69 1    
    18    8   70 1    
    19    9   10 ar   
    20    9   14 ar   
    21   10   11 ar   
    22   10   71 1    
    23   11   12 ar   
    24   11   61 1    
    25   12   13 ar   
    26   12   72 1    
    27   13   14 ar   
    28   13   15 1    
    29   14   73 1    
    30   15   16 1    
    31   15   74 1    
    32   15   75 1    
    33   16   17 1    
    34   17   18 1    
    35   17   76 1    
    36   17   77 1    
    37   18   19 1    
    38   18   27 1    
    39   18   78 1    
    40   19   20 am   BACKBONE|DICT|INTERRES
    41   19   79 1    
    42   20   21 2    
    43   20   22 1    
    44   22   23 1    
    45   22   24 1    
    46   22   80 1    
    47   23   81 1    
    48   23   82 1    
    49   23   83 1    
    50   24   25 am   BACKBONE|DICT|INTERRES
    51   24   84 1    
    52   25   26 2    
    53   27   28 2    
    54   27   29 am   BACKBONE|DICT|INTERRES
    55   29   30 1    
    56   29   85 1    
    57   30   31 1    
    58   30   32 1    
    59   30   86 1    
    60   31   87 1    
    61   31   88 1    
    62   31   89 1    
    63   32   33 2    
    64   32   34 am   BACKBONE|DICT|INTERRES
    65   34   35 1    
    66   34   90 1    
    67   35   36 1    
    68   35   37 1    
    69   35   91 1    
    70   36   92 1    
    71   36   93 1    
    72   36   94 1    
    73   37   38 2    
    74   37   39 am   BACKBONE|DICT|INTERRES
    75   39   40 1    
    76   39   95 1    
    77   40   41 1    
    78   40   42 1    
    79   40   96 1    
    80   41   97 1    
    81   41   98 1    
    82   41   99 1    
    83   42   43 2    
    84   42   44 am   BACKBONE|DICT|INTERRES
    85   44   45 1    
    86   44  100 1    
    87   45   46 1    
    88   45   47 1    
    89   45  101 1    
    90   46  102 1    
    91   46  103 1    
    92   46  104 1    
    93   47   48 2    
    94   47   49 am   BACKBONE|DICT|INTERRES
    95   49   50 1    
    96   49  105 1    
    97   50   51 1    
    98   50   52 1    
    99   50  106 1    
   100   51  107 1    
   101   51  108 1    
   102   51  109 1    
   103   52   53 2    
   104   52   54 am   BACKBONE|DICT|INTERRES
   105   54   55 1    
   106   54  110 1    
   107   55   56 1    
   108   55   59 1    
   109   55  111 1    
   110   56   57 am   BACKBONE|DICT|INTERRES
   111   56   58 2    
   112   57  112 1    
   113   57  113 1    
   114   59   60 1    
   115   59  114 1    
   116   59  115 1    
   117   60   61 1    
   118   61  116 1    
   119   61  117 1    
@<TRIPOS>SUBSTRUCTURE
     1 UNK         1 GROUP             0       ****    0 ROOT    
