@<TRIPOS>MOLECULE
3R8
117   119    1
SMALL
USER_CHARGES


@<TRIPOS>ATOM
      1 CA         14.4071  -21.4656  -43.3132 C.3       0 UNK        -0.2013 
      2 C          14.4760  -22.8719  -43.8895 C.2       0 UNK         0.4866 
      3 O          13.4392  -23.5079  -44.0804 O.2       0 UNK        -0.5176 
      4 N          15.6873  -23.3618  -44.1693 N.am      1 UNK        -0.4884 
      5 CA         15.9592  -24.6726  -44.7542 C.3       1 UNK         0.0853 
      6 C6         15.9393  -25.7970  -43.6848 C.3       10 UNK        -0.0849 
      7 S7         15.7057  -27.4568  -44.4059 S.3       10 UNK        -0.2776 
      8 C8         15.8520  -28.5134  -42.9289 C.3       10 UNK         0.0316 
      9 C9         17.3018  -28.8509  -42.6070 C.ar      10 UNK        -0.0863 
     10 C10        17.8905  -29.9994  -43.1481 C.ar      10 UNK        -0.1009 
     11 C11        19.2125  -30.3319  -42.8381 C.ar      10 UNK        -0.0712 
     12 C12        19.9447  -29.5077  -41.9807 C.ar      10 UNK        -0.0894 
     13 C13        19.3777  -28.3446  -41.4516 C.ar      10 UNK        -0.0745 
     14 C14        18.0502  -28.0292  -41.7574 C.ar      10 UNK        -0.0972 
     15 C15        20.2071  -27.4179  -40.5721 C.3       10 UNK         0.0209 
     16 S16        21.7174  -26.8376  -41.4142 S.3       10 UNK        -0.2568 
     17 C17        21.0322  -25.9069  -42.8296 C.3       10 UNK        -0.0983 
     18 CA         20.9203  -26.7450  -44.1296 C.3       3 UNK         0.0876 
     19 N          20.1652  -26.0293  -45.1549 N.am      3 UNK        -0.4424 
     20 C          19.7005  -26.5650  -46.2901 C.2       2 UNK         0.4918 
     21 O          19.8900  -27.7345  -46.6288 O.2       2 UNK        -0.4875 
     22 CA         18.8110  -25.6462  -47.1477 C.3       2 UNK         0.0481 
     23 CB         18.5558  -26.2148  -48.5556 C.3       2 UNK        -0.1831 
     24 N          17.5272  -25.4391  -46.4752 N.am      2 UNK        -0.4498 
     25 C          17.3202  -24.5873  -45.4634 C.2       1 UNK         0.5027 
     26 O          18.1714  -23.7888  -45.0571 O.2       1 UNK        -0.4969 
     27 C          22.2923  -27.2012  -44.6634 C.2       3 UNK         0.5005 
     28 O          23.1091  -26.3615  -45.0524 O.2       3 UNK        -0.5279 
     29 N          22.5286  -28.5195  -44.6532 N.am      4 UNK        -0.4463 
     30 CA         23.7873  -29.1527  -45.0466 C.3       4 UNK         0.0283 
     31 CB         23.5078  -30.5916  -45.5170 C.3       4 UNK        -0.1875 
     32 C          24.8049  -29.0875  -43.8946 C.2       4 UNK         0.4949 
     33 O          25.1335  -30.1125  -43.2971 O.2       4 UNK        -0.5039 
     34 N          25.2494  -27.8624  -43.5868 N.am      5 UNK        -0.4663 
     35 CA         26.2297  -27.4487  -42.5714 C.3       5 UNK         0.0242 
     36 CB         27.5997  -28.1145  -42.8081 C.3       5 UNK        -0.1982 
     37 C          25.7837  -27.6164  -41.1064 C.2       5 UNK         0.5017 
     38 O          26.1237  -26.7609  -40.2877 O.2       5 UNK        -0.5012 
     39 N          25.0468  -28.6846  -40.7884 N.am      6 UNK        -0.4439 
     40 CA         24.5312  -28.9920  -39.4579 C.3       6 UNK         0.0297 
     41 CB         25.6145  -29.7130  -38.6340 C.3       6 UNK        -0.2006 
     42 C          23.2773  -29.8605  -39.5836 C.2       6 UNK         0.4892 
     43 O          23.0907  -30.5255  -40.6044 O.2       6 UNK        -0.5089 
     44 N          22.4702  -29.8829  -38.5140 N.am      7 UNK        -0.4243 
     45 CA         21.2133  -30.6362  -38.3948 C.3       7 UNK         0.0196 
     46 CB         20.4970  -30.2055  -37.1041 C.3       7 UNK        -0.2007 
     47 C          21.3565  -32.1706  -38.4543 C.2       7 UNK         0.5020 
     48 O          20.3465  -32.8620  -38.5828 O.2       7 UNK        -0.5147 
     49 N          22.5930  -32.6819  -38.3776 N.am      8 UNK        -0.4734 
     50 CA         22.9349  -34.0773  -38.6685 C.3       8 UNK         0.0238 
     51 CB         24.3551  -34.3638  -38.1537 C.3       8 UNK        -0.1912 
     52 C          22.8242  -34.4230  -40.1678 C.2       8 UNK         0.5038 
     53 O          22.6780  -35.6005  -40.4976 O.2       8 UNK        -0.5046 
     54 N          22.8949  -33.4023  -41.0356 N.am      9 UNK        -0.4200 
     55 CA         22.7496  -33.4712  -42.4984 C.3       9 UNK         0.0839 
     56 C          23.8912  -34.2288  -43.2408 C.2       9 UNK         0.5513 
     57 N          25.0409  -34.4646  -42.6201 N.am      9 UNK        -0.7519 
     58 O          23.7479  -34.5845  -44.4078 O.2       9 UNK        -0.4960 
     59 C59        21.3278  -33.9147  -42.9567 C.3       10 UNK        -0.0876 
     60 S60        19.9974  -32.9032  -42.2203 S.3       10 UNK        -0.2414 
     61 C61        19.8697  -31.5631  -43.4403 C.3       10 UNK         0.0169 
     62 H62        15.3967  -21.0247  -43.1940 H         1 UNK         0.0903 
     63 H63        13.8246  -20.8192  -43.9692 H         1 UNK         0.0903 
     64 H64        13.9245  -21.4838  -42.3363 H         1 UNK         0.0903 
     65 H65        16.5199  -22.7977  -44.0406 H         1 UNK         0.3096 
     66 H66        15.1952  -24.8695  -45.5104 H         1 UNK         0.1121 
     67 H67        16.8479  -25.7752  -43.0814 H         1 UNK         0.0849 
     68 H68        15.1142  -25.6355  -42.9892 H         1 UNK         0.0849 
     69 H69        15.3725  -28.0316  -42.0752 H         1 UNK         0.0865 
     70 H70        15.2926  -29.4338  -43.1035 H         1 UNK         0.0865 
     71 H71        17.3186  -30.6348  -43.8107 H         1 UNK         0.1346 
     72 H72        20.9688  -29.7595  -41.7451 H         1 UNK         0.1412 
     73 H73        17.6004  -27.1402  -41.3379 H         1 UNK         0.1426 
     74 H74        20.4908  -27.9464  -39.6621 H         1 UNK         0.0716 
     75 H75        19.6241  -26.5520  -40.2547 H         1 UNK         0.0716 
     76 H76        21.6568  -25.0270  -42.9948 H         1 UNK         0.0695 
     77 H77        20.0498  -25.5248  -42.5464 H         1 UNK         0.0695 
     78 H78        20.3312  -27.6342  -43.9072 H         1 UNK         0.0983 
     79 H79        19.9276  -25.0654  -44.9555 H         1 UNK         0.3095 
     80 H80        19.3232  -24.6884  -47.2619 H         1 UNK         0.0454 
     81 H81        18.0257  -27.1674  -48.5205 H         1 UNK         0.0851 
     82 H82        19.4955  -26.3842  -49.0828 H         1 UNK         0.0851 
     83 H83        17.9661  -25.5257  -49.1602 H         1 UNK         0.0851 
     84 H84        16.7964  -26.1001  -46.7004 H         1 UNK         0.2976 
     85 H85        21.8111  -29.1344  -44.2989 H         1 UNK         0.3116 
     86 H86        24.2128  -28.6095  -45.8934 H         1 UNK         0.0646 
     87 H87        23.0698  -31.2004  -44.7285 H         1 UNK         0.0847 
     88 H88        24.4291  -31.0841  -45.8307 H         1 UNK         0.0847 
     89 H89        22.8275  -30.6058  -46.3687 H         1 UNK         0.0847 
     90 H90        24.8249  -27.0991  -44.1057 H         1 UNK         0.3040 
     91 H91        26.3619  -26.3760  -42.7233 H         1 UNK         0.1015 
     92 H92        27.5619  -29.1933  -42.6543 H         1 UNK         0.0786 
     93 H93        28.3479  -27.7176  -42.1206 H         1 UNK         0.0786 
     94 H94        27.9608  -27.9315  -43.8201 H         1 UNK         0.0786 
     95 H95        24.7979  -29.3471  -41.5207 H         1 UNK         0.3172 
     96 H96        24.2479  -28.0620  -38.9600 H         1 UNK         0.0595 
     97 H97        25.2575  -29.9547  -37.6322 H         1 UNK         0.0839 
     98 H98        26.5021  -29.0914  -38.5150 H         1 UNK         0.0839 
     99 H99        25.9232  -30.6463  -39.1069 H         1 UNK         0.0839 
    100 H100       22.7253  -29.3222  -37.7131 H         1 UNK         0.2998 
    101 H101       20.5829  -30.3582  -39.2413 H         1 UNK         0.0822 
    102 H102       19.5369  -30.7133  -37.0005 H         1 UNK         0.0787 
    103 H103       21.0874  -30.4413  -36.2179 H         1 UNK         0.0787 
    104 H104       20.2941  -29.1344  -37.1003 H         1 UNK         0.0787 
    105 H105       23.3611  -32.0408  -38.2458 H         1 UNK         0.3055 
    106 H106       22.2349  -34.7233  -38.1335 H         1 UNK         0.1106 
    107 H107       24.6334  -35.4029  -38.3357 H         1 UNK         0.0828 
    108 H108       25.0993  -33.7363  -38.6457 H         1 UNK         0.0828 
    109 H109       24.4295  -34.1948  -37.0793 H         1 UNK         0.0828 
    110 H110       23.0071  -32.4598  -40.6745 H         1 UNK         0.2931 
    111 H111       22.8723  -32.4369  -42.8169 H         1 UNK         0.0412 
    112 H112       25.1771  -34.1622  -41.6693 H         1 UNK         0.3472 
    113 H113       25.7788  -34.9452  -43.1104 H         1 UNK         0.3472 
    114 H114       21.2371  -33.8672  -44.0434 H         1 UNK         0.0970 
    115 H115       21.1532  -34.9577  -42.6887 H         1 UNK         0.0970 
    116 H116       19.3142  -31.9180  -44.3097 H         1 UNK         0.0612 
    117 H117       20.8647  -31.2954  -43.7952 H         1 UNK         0.0612 
@<TRIPOS>BOND
     1    1    2 1    
     2    1   62 1    
     3    1   63 1    
     4    1   64 1    
     5    2    3 2    
     6    2    4 am   BACKBONE|DICT|INTERRES
     7    4    5 1    
     8    4   65 1    
     9    5    6 1    
    10    5   25 1    
    11    5   66 1    
    12    6    7 1    
    13    6   67 1    
    14    6   68 1    
    15    7    8 1    
    16    8    9 1    
    17    8   69 1    
    18    8   70 1    
    19    9   10 ar   
    20    9   14 ar   
    21   10   11 ar   
    22   10   71 1    
    23   11   12 ar   
    24   11   61 1    
    25   12   13 ar   
    26   12   72 1    
    27   13   14 ar   
    28   13   15 1    
    29   14   73 1    
    30   15   16 1    
    31   15   74 1    
    32   15   75 1    
    33   16   17 1    
    34   17   18 1    
    35   17   76 1    
    36   17   77 1    
    37   18   19 1    
    38   18   27 1    
    39   18   78 1    
    40   19   20 am   BACKBONE|DICT|INTERRES
    41   19   79 1    
    42   20   21 2    
    43   20   22 1    
    44   22   23 1    
    45   22   24 1    
    46   22   80 1    
    47   23   81 1    
    48   23   82 1    
    49   23   83 1    
    50   24   25 am   BACKBONE|DICT|INTERRES
    51   24   84 1    
    52   25   26 2    
    53   27   28 2    
    54   27   29 am   BACKBONE|DICT|INTERRES
    55   29   30 1    
    56   29   85 1    
    57   30   31 1    
    58   30   32 1    
    59   30   86 1    
    60   31   87 1    
    61   31   88 1    
    62   31   89 1    
    63   32   33 2    
    64   32   34 am   BACKBONE|DICT|INTERRES
    65   34   35 1    
    66   34   90 1    
    67   35   36 1    
    68   35   37 1    
    69   35   91 1    
    70   36   92 1    
    71   36   93 1    
    72   36   94 1    
    73   37   38 2    
    74   37   39 am   BACKBONE|DICT|INTERRES
    75   39   40 1    
    76   39   95 1    
    77   40   41 1    
    78   40   42 1    
    79   40   96 1    
    80   41   97 1    
    81   41   98 1    
    82   41   99 1    
    83   42   43 2    
    84   42   44 am   BACKBONE|DICT|INTERRES
    85   44   45 1    
    86   44  100 1    
    87   45   46 1    
    88   45   47 1    
    89   45  101 1    
    90   46  102 1    
    91   46  103 1    
    92   46  104 1    
    93   47   48 2    
    94   47   49 am   BACKBONE|DICT|INTERRES
    95   49   50 1    
    96   49  105 1    
    97   50   51 1    
    98   50   52 1    
    99   50  106 1    
   100   51  107 1    
   101   51  108 1    
   102   51  109 1    
   103   52   53 2    
   104   52   54 am   BACKBONE|DICT|INTERRES
   105   54   55 1    
   106   54  110 1    
   107   55   56 1    
   108   55   59 1    
   109   55  111 1    
   110   56   57 am   BACKBONE|DICT|INTERRES
   111   56   58 2    
   112   57  112 1    
   113   57  113 1    
   114   59   60 1    
   115   59  114 1    
   116   59  115 1    
   117   60   61 1    
   118   61  116 1    
   119   61  117 1    
@<TRIPOS>SUBSTRUCTURE
     1 UNK         1 GROUP             0       ****    0 ROOT    
