@<TRIPOS>MOLECULE
3R8
117   119    1
SMALL
USER_CHARGES


@<TRIPOS>ATOM
      1 CA         16.1497  -28.5749  -44.1109 C.3       0 UNK        -0.2013 
      2 C          16.7347  -27.5769  -45.0961 C.2       0 UNK         0.4866 
      3 O          15.9939  -26.8727  -45.7826 O.2       0 UNK        -0.5176 
      4 N          18.0687  -27.4887  -45.1527 N.am      1 UNK        -0.4884 
      5 CA         18.8583  -26.6576  -46.0793 C.3       1 UNK         0.0853 
      6 C6         20.3093  -27.1985  -46.2042 C.3       10 UNK        -0.0849 
      7 S7         20.4092  -28.9847  -46.5592 S.3       10 UNK        -0.2776 
      8 C8         21.1697  -29.6171  -45.0270 C.3       10 UNK         0.0316 
      9 C9         20.1550  -29.8443  -43.9102 C.ar      10 UNK        -0.0863 
     10 C10        19.2942  -30.9435  -43.9730 C.ar      10 UNK        -0.1009 
     11 C11        18.4146  -31.2194  -42.9232 C.ar      10 UNK        -0.0712 
     12 C12        18.3801  -30.3725  -41.8127 C.ar      10 UNK        -0.0894 
     13 C13        19.2356  -29.2721  -41.7280 C.ar      10 UNK        -0.0745 
     14 C14        20.1184  -29.0094  -42.7862 C.ar      10 UNK        -0.0972 
     15 C15        19.2433  -28.4353  -40.4511 C.3       10 UNK         0.0209 
     16 S16        17.9318  -27.1641  -40.4304 S.3       10 UNK        -0.2568 
     17 C17        18.9403  -25.6448  -40.3183 C.3       10 UNK        -0.0983 
     18 CA         19.5591  -25.3363  -41.7001 C.3       3 UNK         0.0876 
     19 N          18.5959  -24.8372  -42.6762 N.am      3 UNK        -0.4424 
     20 C          18.3082  -23.5801  -43.0374 C.2       2 UNK         0.4918 
     21 O          18.6595  -22.5778  -42.4148 O.2       2 UNK        -0.4875 
     22 CA         17.5380  -23.4499  -44.3762 C.3       2 UNK         0.0481 
     23 CB         17.9003  -22.1594  -45.1394 C.3       2 UNK        -0.1831 
     24 N          17.7063  -24.6393  -45.2361 N.am      2 UNK        -0.4498 
     25 C          18.8682  -25.1647  -45.6630 C.2       1 UNK         0.5027 
     26 O          19.9396  -24.5594  -45.5877 O.2       1 UNK        -0.4969 
     27 C          20.9401  -24.6503  -41.7035 C.2       3 UNK         0.5005 
     28 O          21.5301  -24.4231  -40.6455 O.2       3 UNK        -0.5279 
     29 N          21.4739  -24.4288  -42.9141 N.am      4 UNK        -0.4463 
     30 CA         22.9122  -24.3266  -43.1544 C.3       4 UNK         0.0283 
     31 CB         23.1465  -23.6901  -44.5329 C.3       4 UNK        -0.1875 
     32 C          23.5338  -25.7344  -43.1010 C.2       4 UNK         0.4949 
     33 O          22.8591  -26.7085  -43.4468 O.2       4 UNK        -0.5039 
     34 N          24.7994  -25.8202  -42.6711 N.am      5 UNK        -0.4663 
     35 CA         25.6360  -27.0246  -42.5161 C.3       5 UNK         0.0242 
     36 CB         25.8501  -27.7440  -43.8632 C.3       5 UNK        -0.1982 
     37 C          25.1612  -28.0151  -41.4344 C.2       5 UNK         0.5017 
     38 O          25.9767  -28.4433  -40.6182 O.2       5 UNK        -0.5012 
     39 N          23.8697  -28.3698  -41.4535 N.am      6 UNK        -0.4439 
     40 CA         23.1057  -29.2188  -40.5235 C.3       6 UNK         0.0297 
     41 CB         23.0593  -28.5898  -39.1191 C.3       6 UNK        -0.2006 
     42 C          23.5093  -30.7036  -40.4439 C.2       6 UNK         0.4892 
     43 O          22.6463  -31.5368  -40.1629 O.2       6 UNK        -0.5089 
     44 N          24.7826  -31.0230  -40.7050 N.am      7 UNK        -0.4243 
     45 CA         25.4015  -32.3504  -40.5926 C.3       7 UNK         0.0196 
     46 CB         26.8921  -32.2271  -40.9491 C.3       7 UNK        -0.2007 
     47 C          24.7456  -33.4734  -41.4201 C.2       7 UNK         0.5020 
     48 O          24.9714  -34.6456  -41.1184 O.2       7 UNK        -0.5147 
     49 N          23.9499  -33.1123  -42.4356 N.am      8 UNK        -0.4734 
     50 CA         23.1650  -34.0416  -43.2511 C.3       8 UNK         0.0238 
     51 CB         22.5820  -33.2891  -44.4563 C.3       8 UNK        -0.1912 
     52 C          22.0328  -34.7375  -42.4737 C.2       8 UNK         0.5038 
     53 O          21.7178  -35.8843  -42.7963 O.2       8 UNK        -0.5046 
     54 N          21.4463  -34.0425  -41.4885 N.am      9 UNK        -0.4200 
     55 CA         20.3363  -34.5397  -40.6571 C.3       9 UNK         0.0839 
     56 C          20.6495  -34.5038  -39.1366 C.2       9 UNK         0.5513 
     57 N          21.5996  -33.7084  -38.6607 N.am      9 UNK        -0.7519 
     58 O          20.0227  -35.2300  -38.3694 O.2       9 UNK        -0.4960 
     59 C59        18.9991  -33.8096  -40.9567 C.3       10 UNK        -0.0876 
     60 S60        18.4538  -33.9883  -42.6932 S.3       10 UNK        -0.2414 
     61 C61        17.5199  -32.4485  -42.9750 C.3       10 UNK         0.0169 
     62 H62        16.6039  -28.4588  -43.1273 H         1 UNK         0.0903 
     63 H63        15.0752  -28.4289  -44.0040 H         1 UNK         0.0903 
     64 H64        16.3227  -29.5941  -44.4553 H         1 UNK         0.0903 
     65 H65        18.6160  -28.1279  -44.5899 H         1 UNK         0.3096 
     66 H66        18.3917  -26.7079  -47.0656 H         1 UNK         0.1121 
     67 H67        20.8367  -26.6755  -47.0044 H         1 UNK         0.0849 
     68 H68        20.8744  -26.9900  -45.2938 H         1 UNK         0.0849 
     69 H69        21.6559  -30.5623  -45.2651 H         1 UNK         0.0865 
     70 H70        21.9718  -28.9528  -44.7019 H         1 UNK         0.0865 
     71 H71        19.3293  -31.6051  -44.8281 H         1 UNK         0.1346 
     72 H72        17.7065  -30.5876  -40.9944 H         1 UNK         0.1412 
     73 H73        20.8124  -28.1847  -42.7214 H         1 UNK         0.1426 
     74 H74        20.2207  -27.9733  -40.3128 H         1 UNK         0.0716 
     75 H75        19.1060  -29.0878  -39.5874 H         1 UNK         0.0716 
     76 H76        19.6961  -25.7975  -39.5460 H         1 UNK         0.0695 
     77 H77        18.3193  -24.8143  -39.9796 H         1 UNK         0.0695 
     78 H78        19.8335  -26.2978  -42.1258 H         1 UNK         0.0983 
     79 H79        18.1894  -25.5562  -43.2552 H         1 UNK         0.3095 
     80 H80        16.4788  -23.4025  -44.1201 H         1 UNK         0.0454 
     81 H81        18.9672  -22.1000  -45.3562 H         1 UNK         0.0851 
     82 H82        17.6401  -21.2753  -44.5563 H         1 UNK         0.0851 
     83 H83        17.3615  -22.0927  -46.0842 H         1 UNK         0.0851 
     84 H84        16.8812  -25.2228  -45.3583 H         1 UNK         0.2976 
     85 H85        20.9106  -24.6148  -43.7370 H         1 UNK         0.3116 
     86 H86        23.3661  -23.6954  -42.3874 H         1 UNK         0.0646 
     87 H87        22.6852  -22.7046  -44.5986 H         1 UNK         0.0847 
     88 H88        24.2118  -23.5644  -44.7304 H         1 UNK         0.0847 
     89 H89        22.7365  -24.3043  -45.3363 H         1 UNK         0.0847 
     90 H90        25.2486  -24.9596  -42.3868 H         1 UNK         0.3040 
     91 H91        26.6116  -26.6613  -42.1875 H         1 UNK         0.1015 
     92 H92        24.9235  -28.1556  -44.2644 H         1 UNK         0.0786 
     93 H93        26.5497  -28.5739  -43.7535 H         1 UNK         0.0786 
     94 H94        26.2658  -27.0680  -44.6103 H         1 UNK         0.0786 
     95 H95        23.3278  -27.9445  -42.2047 H         1 UNK         0.3172 
     96 H96        22.0898  -29.2221  -40.9098 H         1 UNK         0.0595 
     97 H97        24.0465  -28.5537  -38.6574 H         1 UNK         0.0839 
     98 H98        22.4118  -29.1648  -38.4555 H         1 UNK         0.0839 
     99 H99        22.6670  -27.5732  -39.1529 H         1 UNK         0.0839 
    100 H100       25.4132  -30.2426  -40.8630 H         1 UNK         0.2998 
    101 H101       25.3239  -32.6487  -39.5451 H         1 UNK         0.0822 
    102 H102       27.4032  -33.1850  -40.8407 H         1 UNK         0.0787 
    103 H103       27.0324  -31.8964  -41.9790 H         1 UNK         0.0787 
    104 H104       27.3994  -31.5162  -40.2963 H         1 UNK         0.0787 
    105 H105       23.8251  -32.1261  -42.6103 H         1 UNK         0.3055 
    106 H106       23.8394  -34.8180  -43.6197 H         1 UNK         0.1106 
    107 H107       22.0655  -33.9747  -45.1296 H         1 UNK         0.0828 
    108 H108       21.8550  -32.5428  -44.1373 H         1 UNK         0.0828 
    109 H109       23.3584  -32.7886  -45.0351 H         1 UNK         0.0828 
    110 H110       21.7981  -33.1207  -41.2587 H         1 UNK         0.2931 
    111 H111       20.1736  -35.5962  -40.8784 H         1 UNK         0.0412 
    112 H112       21.7875  -33.7154  -37.6711 H         1 UNK         0.3472 
    113 H113       22.0678  -33.0283  -39.2529 H         1 UNK         0.3472 
    114 H114       18.1999  -34.1970  -40.3218 H         1 UNK         0.0970 
    115 H115       19.0995  -32.7542  -40.7051 H         1 UNK         0.0970 
    116 H116       16.7154  -32.3769  -42.2414 H         1 UNK         0.0612 
    117 H117       17.0394  -32.5020  -43.9528 H         1 UNK         0.0612 
@<TRIPOS>BOND
     1    1    2 1    
     2    1   62 1    
     3    1   63 1    
     4    1   64 1    
     5    2    3 2    
     6    2    4 am   BACKBONE|DICT|INTERRES
     7    4    5 1    
     8    4   65 1    
     9    5    6 1    
    10    5   25 1    
    11    5   66 1    
    12    6    7 1    
    13    6   67 1    
    14    6   68 1    
    15    7    8 1    
    16    8    9 1    
    17    8   69 1    
    18    8   70 1    
    19    9   10 ar   
    20    9   14 ar   
    21   10   11 ar   
    22   10   71 1    
    23   11   12 ar   
    24   11   61 1    
    25   12   13 ar   
    26   12   72 1    
    27   13   14 ar   
    28   13   15 1    
    29   14   73 1    
    30   15   16 1    
    31   15   74 1    
    32   15   75 1    
    33   16   17 1    
    34   17   18 1    
    35   17   76 1    
    36   17   77 1    
    37   18   19 1    
    38   18   27 1    
    39   18   78 1    
    40   19   20 am   BACKBONE|DICT|INTERRES
    41   19   79 1    
    42   20   21 2    
    43   20   22 1    
    44   22   23 1    
    45   22   24 1    
    46   22   80 1    
    47   23   81 1    
    48   23   82 1    
    49   23   83 1    
    50   24   25 am   BACKBONE|DICT|INTERRES
    51   24   84 1    
    52   25   26 2    
    53   27   28 2    
    54   27   29 am   BACKBONE|DICT|INTERRES
    55   29   30 1    
    56   29   85 1    
    57   30   31 1    
    58   30   32 1    
    59   30   86 1    
    60   31   87 1    
    61   31   88 1    
    62   31   89 1    
    63   32   33 2    
    64   32   34 am   BACKBONE|DICT|INTERRES
    65   34   35 1    
    66   34   90 1    
    67   35   36 1    
    68   35   37 1    
    69   35   91 1    
    70   36   92 1    
    71   36   93 1    
    72   36   94 1    
    73   37   38 2    
    74   37   39 am   BACKBONE|DICT|INTERRES
    75   39   40 1    
    76   39   95 1    
    77   40   41 1    
    78   40   42 1    
    79   40   96 1    
    80   41   97 1    
    81   41   98 1    
    82   41   99 1    
    83   42   43 2    
    84   42   44 am   BACKBONE|DICT|INTERRES
    85   44   45 1    
    86   44  100 1    
    87   45   46 1    
    88   45   47 1    
    89   45  101 1    
    90   46  102 1    
    91   46  103 1    
    92   46  104 1    
    93   47   48 2    
    94   47   49 am   BACKBONE|DICT|INTERRES
    95   49   50 1    
    96   49  105 1    
    97   50   51 1    
    98   50   52 1    
    99   50  106 1    
   100   51  107 1    
   101   51  108 1    
   102   51  109 1    
   103   52   53 2    
   104   52   54 am   BACKBONE|DICT|INTERRES
   105   54   55 1    
   106   54  110 1    
   107   55   56 1    
   108   55   59 1    
   109   55  111 1    
   110   56   57 am   BACKBONE|DICT|INTERRES
   111   56   58 2    
   112   57  112 1    
   113   57  113 1    
   114   59   60 1    
   115   59  114 1    
   116   59  115 1    
   117   60   61 1    
   118   61  116 1    
   119   61  117 1    
@<TRIPOS>SUBSTRUCTURE
     1 UNK         1 GROUP             0       ****    0 ROOT    
