@<TRIPOS>MOLECULE
3R8
117   119    1
SMALL
USER_CHARGES


@<TRIPOS>ATOM
      1 CA         19.2015  -24.6791  -49.0098 C.3       0 UNK        -0.2013 
      2 C          18.7584  -25.3256  -47.7065 C.2       0 UNK         0.4866 
      3 O          19.5989  -25.6756  -46.8769 O.2       0 UNK        -0.5176 
      4 N          17.4430  -25.4744  -47.5057 N.am      1 UNK        -0.4884 
      5 CA         16.8145  -26.1081  -46.3370 C.3       1 UNK         0.0853 
      6 C6         15.4012  -26.6483  -46.6726 C.3       10 UNK        -0.0849 
      7 S7         15.4829  -28.0089  -47.8829 S.3       10 UNK        -0.2776 
      8 C8         15.0170  -29.4412  -46.8553 C.3       10 UNK         0.0316 
      9 C9         15.9887  -29.7051  -45.7086 C.ar      10 UNK        -0.0863 
     10 C10        17.3123  -30.0693  -45.9741 C.ar      10 UNK        -0.1009 
     11 C11        18.1863  -30.3943  -44.9317 C.ar      10 UNK        -0.0712 
     12 C12        17.7143  -30.3699  -43.6155 C.ar      10 UNK        -0.0894 
     13 C13        16.4053  -29.9700  -43.3260 C.ar      10 UNK        -0.0745 
     14 C14        15.5488  -29.6397  -44.3817 C.ar      10 UNK        -0.0972 
     15 C15        15.8754  -29.9521  -41.8916 C.3       10 UNK         0.0209 
     16 S16        17.1008  -29.4580  -40.6269 S.3       10 UNK        -0.2568 
     17 C17        17.3306  -27.6836  -40.9832 C.3       10 UNK        -0.0983 
     18 CA         18.7017  -27.3765  -41.6472 C.3       3 UNK         0.0876 
     19 N          18.6532  -26.2223  -42.5465 N.am      3 UNK        -0.4424 
     20 C          18.2376  -24.9750  -42.2772 C.2       2 UNK         0.4918 
     21 O          17.8124  -24.5929  -41.1866 O.2       2 UNK        -0.4875 
     22 CA         18.2632  -23.9931  -43.4638 C.3       2 UNK         0.0481 
     23 CB         19.6175  -23.2708  -43.5406 C.3       2 UNK        -0.1831 
     24 N          18.0008  -24.6756  -44.7339 N.am      2 UNK        -0.4498 
     25 C          16.8162  -25.1858  -45.0966 C.2       1 UNK         0.5027 
     26 O          15.7709  -24.9674  -44.4810 O.2       1 UNK        -0.4969 
     27 C          19.8644  -27.2869  -40.6327 C.2       3 UNK         0.5005 
     28 O          20.3693  -26.2003  -40.3412 O.2       3 UNK        -0.5279 
     29 N          20.2877  -28.4600  -40.1372 N.am      4 UNK        -0.4463 
     30 CA         21.3751  -28.6930  -39.1740 C.3       4 UNK         0.0283 
     31 CB         20.9787  -28.1597  -37.7814 C.3       4 UNK        -0.1875 
     32 C          22.7669  -28.1842  -39.6180 C.2       4 UNK         0.4949 
     33 O          23.6313  -27.9710  -38.7673 O.2       4 UNK        -0.5039 
     34 N          22.9693  -27.9970  -40.9292 N.am      5 UNK        -0.4663 
     35 CA         24.1983  -27.4616  -41.5162 C.3       5 UNK         0.0242 
     36 CB         23.9121  -27.0421  -42.9675 C.3       5 UNK        -0.1982 
     37 C          25.3416  -28.4860  -41.4684 C.2       5 UNK         0.5017 
     38 O          25.1428  -29.6213  -41.9034 O.2       5 UNK        -0.5012 
     39 N          26.5160  -28.0662  -40.9750 N.am      6 UNK        -0.4439 
     40 CA         27.7440  -28.8628  -40.8470 C.3       6 UNK         0.0297 
     41 CB         28.3826  -29.0896  -42.2372 C.3       6 UNK        -0.2006 
     42 C          27.5004  -30.1578  -40.0444 C.2       6 UNK         0.4892 
     43 O          27.1655  -30.0745  -38.8612 O.2       6 UNK        -0.5089 
     44 N          27.6272  -31.3220  -40.6948 N.am      7 UNK        -0.4243 
     45 CA         27.3352  -32.6465  -40.1424 C.3       7 UNK         0.0196 
     46 CB         28.1204  -33.7012  -40.9448 C.3       7 UNK        -0.2007 
     47 C          25.8192  -32.9323  -40.1103 C.2       7 UNK         0.5020 
     48 O          25.3589  -33.8934  -40.7291 O.2       7 UNK        -0.5147 
     49 N          25.0689  -32.0762  -39.4018 N.am      8 UNK        -0.4734 
     50 CA         23.6229  -32.1465  -39.1426 C.3       8 UNK         0.0238 
     51 CB         23.3219  -33.2845  -38.1448 C.3       8 UNK        -0.1912 
     52 C          22.7484  -32.2327  -40.4132 C.2       8 UNK         0.5038 
     53 O          21.7048  -32.8872  -40.3953 O.2       8 UNK        -0.5046 
     54 N          23.1859  -31.5694  -41.4906 N.am      9 UNK        -0.4200 
     55 CA         22.5915  -31.5928  -42.8349 C.3       9 UNK         0.0839 
     56 C          22.7408  -32.9512  -43.5879 C.2       9 UNK         0.5513 
     57 N          23.5758  -33.8789  -43.1328 N.am      9 UNK        -0.7519 
     58 O          22.1132  -33.1641  -44.6214 O.2       9 UNK        -0.4960 
     59 C59        21.1449  -31.0141  -42.8580 C.3       10 UNK        -0.0876 
     60 S60        20.8585  -29.8864  -44.2665 S.3       10 UNK        -0.2414 
     61 C61        19.6217  -30.8075  -45.2431 C.3       10 UNK         0.0169 
     62 H62        19.8434  -25.3613  -49.5663 H         1 UNK         0.0903 
     63 H63        18.3548  -24.4170  -49.6440 H         1 UNK         0.0903 
     64 H64        19.7664  -23.7704  -48.8046 H         1 UNK         0.0903 
     65 H65        16.7998  -25.1536  -48.2159 H         1 UNK         0.3096 
     66 H66        17.4251  -26.9692  -46.0534 H         1 UNK         0.1121 
     67 H67        14.7688  -25.8542  -47.0735 H         1 UNK         0.0849 
     68 H68        14.8944  -27.0111  -45.7763 H         1 UNK         0.0849 
     69 H69        14.0027  -29.2933  -46.4809 H         1 UNK         0.0865 
     70 H70        14.9759  -30.3272  -47.4904 H         1 UNK         0.0865 
     71 H71        17.6543  -30.1150  -46.9993 H         1 UNK         0.1346 
     72 H72        18.3712  -30.6600  -42.8102 H         1 UNK         0.1412 
     73 H73        14.5251  -29.3616  -44.1703 H         1 UNK         0.1426 
     74 H74        15.5202  -30.9544  -41.6497 H         1 UNK         0.0716 
     75 H75        15.0089  -29.2935  -41.8120 H         1 UNK         0.0716 
     76 H76        17.2028  -27.1150  -40.0601 H         1 UNK         0.0695 
     77 H77        16.5171  -27.3648  -41.6372 H         1 UNK         0.0695 
     78 H78        18.9462  -28.2023  -42.3160 H         1 UNK         0.0983 
     79 H79        19.0037  -26.3953  -43.4768 H         1 UNK         0.3095 
     80 H80        17.4837  -23.2453  -43.3038 H         1 UNK         0.0454 
     81 H81        20.4399  -23.9664  -43.7124 H         1 UNK         0.0851 
     82 H82        19.8285  -22.7412  -42.6105 H         1 UNK         0.0851 
     83 H83        19.6286  -22.5328  -44.3427 H         1 UNK         0.0851 
     84 H84        18.7969  -24.8875  -45.3309 H         1 UNK         0.2976 
     85 H85        19.7688  -29.2858  -40.4049 H         1 UNK         0.3116 
     86 H86        21.4650  -29.7758  -39.0908 H         1 UNK         0.0646 
     87 H87        20.9222  -27.0708  -37.7686 H         1 UNK         0.0847 
     88 H88        21.7048  -28.4561  -37.0233 H         1 UNK         0.0847 
     89 H89        20.0105  -28.5492  -37.4672 H         1 UNK         0.0847 
     90 H90        22.2225  -28.2193  -41.5692 H         1 UNK         0.3040 
     91 H91        24.4875  -26.5728  -40.9507 H         1 UNK         0.1015 
     92 H92        23.5931  -27.8892  -43.5772 H         1 UNK         0.0786 
     93 H93        24.8032  -26.6212  -43.4354 H         1 UNK         0.0786 
     94 H94        23.1317  -26.2820  -43.0148 H         1 UNK         0.0786 
     95 H95        26.5699  -27.1267  -40.6061 H         1 UNK         0.3172 
     96 H96        28.4425  -28.2675  -40.2570 H         1 UNK         0.0595 
     97 H97        27.7264  -29.6403  -42.9124 H         1 UNK         0.0839 
     98 H98        29.3209  -29.6406  -42.1573 H         1 UNK         0.0839 
     99 H99        28.6160  -28.1387  -42.7164 H         1 UNK         0.0839 
    100 H100       27.8493  -31.2878  -41.6791 H         1 UNK         0.2998 
    101 H101       27.6906  -32.6836  -39.1103 H         1 UNK         0.0822 
    102 H102       29.1930  -33.5095  -40.9093 H         1 UNK         0.0787 
    103 H103       27.9586  -34.7008  -40.5391 H         1 UNK         0.0787 
    104 H104       27.8169  -33.7211  -41.9924 H         1 UNK         0.0787 
    105 H105       25.5587  -31.2904  -38.9825 H         1 UNK         0.3055 
    106 H106       23.3583  -31.2069  -38.6566 H         1 UNK         0.1106 
    107 H107       23.5224  -34.2641  -38.5802 H         1 UNK         0.0828 
    108 H108       22.2756  -33.2727  -37.8367 H         1 UNK         0.0828 
    109 H109       23.9231  -33.1900  -37.2406 H         1 UNK         0.0828 
    110 H110       24.0496  -31.0349  -41.4289 H         1 UNK         0.2931 
    111 H111       23.2301  -30.9101  -43.3962 H         1 UNK         0.0412 
    112 H112       23.6667  -34.7453  -43.6385 H         1 UNK         0.3472 
    113 H113       24.1098  -33.7373  -42.2815 H         1 UNK         0.3472 
    114 H114       20.9597  -30.4286  -41.9596 H         1 UNK         0.0970 
    115 H115       20.4036  -31.8146  -42.8330 H         1 UNK         0.0970 
    116 H116       19.7325  -31.8808  -45.0868 H         1 UNK         0.0612 
    117 H117       19.8413  -30.6326  -46.2973 H         1 UNK         0.0612 
@<TRIPOS>BOND
     1    1    2 1    
     2    1   62 1    
     3    1   63 1    
     4    1   64 1    
     5    2    3 2    
     6    2    4 am   BACKBONE|DICT|INTERRES
     7    4    5 1    
     8    4   65 1    
     9    5    6 1    
    10    5   25 1    
    11    5   66 1    
    12    6    7 1    
    13    6   67 1    
    14    6   68 1    
    15    7    8 1    
    16    8    9 1    
    17    8   69 1    
    18    8   70 1    
    19    9   10 ar   
    20    9   14 ar   
    21   10   11 ar   
    22   10   71 1    
    23   11   12 ar   
    24   11   61 1    
    25   12   13 ar   
    26   12   72 1    
    27   13   14 ar   
    28   13   15 1    
    29   14   73 1    
    30   15   16 1    
    31   15   74 1    
    32   15   75 1    
    33   16   17 1    
    34   17   18 1    
    35   17   76 1    
    36   17   77 1    
    37   18   19 1    
    38   18   27 1    
    39   18   78 1    
    40   19   20 am   BACKBONE|DICT|INTERRES
    41   19   79 1    
    42   20   21 2    
    43   20   22 1    
    44   22   23 1    
    45   22   24 1    
    46   22   80 1    
    47   23   81 1    
    48   23   82 1    
    49   23   83 1    
    50   24   25 am   BACKBONE|DICT|INTERRES
    51   24   84 1    
    52   25   26 2    
    53   27   28 2    
    54   27   29 am   BACKBONE|DICT|INTERRES
    55   29   30 1    
    56   29   85 1    
    57   30   31 1    
    58   30   32 1    
    59   30   86 1    
    60   31   87 1    
    61   31   88 1    
    62   31   89 1    
    63   32   33 2    
    64   32   34 am   BACKBONE|DICT|INTERRES
    65   34   35 1    
    66   34   90 1    
    67   35   36 1    
    68   35   37 1    
    69   35   91 1    
    70   36   92 1    
    71   36   93 1    
    72   36   94 1    
    73   37   38 2    
    74   37   39 am   BACKBONE|DICT|INTERRES
    75   39   40 1    
    76   39   95 1    
    77   40   41 1    
    78   40   42 1    
    79   40   96 1    
    80   41   97 1    
    81   41   98 1    
    82   41   99 1    
    83   42   43 2    
    84   42   44 am   BACKBONE|DICT|INTERRES
    85   44   45 1    
    86   44  100 1    
    87   45   46 1    
    88   45   47 1    
    89   45  101 1    
    90   46  102 1    
    91   46  103 1    
    92   46  104 1    
    93   47   48 2    
    94   47   49 am   BACKBONE|DICT|INTERRES
    95   49   50 1    
    96   49  105 1    
    97   50   51 1    
    98   50   52 1    
    99   50  106 1    
   100   51  107 1    
   101   51  108 1    
   102   51  109 1    
   103   52   53 2    
   104   52   54 am   BACKBONE|DICT|INTERRES
   105   54   55 1    
   106   54  110 1    
   107   55   56 1    
   108   55   59 1    
   109   55  111 1    
   110   56   57 am   BACKBONE|DICT|INTERRES
   111   56   58 2    
   112   57  112 1    
   113   57  113 1    
   114   59   60 1    
   115   59  114 1    
   116   59  115 1    
   117   60   61 1    
   118   61  116 1    
   119   61  117 1    
@<TRIPOS>SUBSTRUCTURE
     1 UNK         1 GROUP             0       ****    0 ROOT    
