@<TRIPOS>MOLECULE
3R8
117   119    1
SMALL
USER_CHARGES


@<TRIPOS>ATOM
      1 CA         13.5471  -23.9322  -40.9841 C.3       0 UNK        -0.2013 
      2 C          14.5331  -24.3463  -42.0664 C.2       0 UNK         0.4866 
      3 O          15.4086  -23.5604  -42.4300 O.2       0 UNK        -0.5176 
      4 N          14.3931  -25.5708  -42.5901 N.am      1 UNK        -0.4884 
      5 CA         15.2956  -26.1606  -43.5842 C.3       1 UNK         0.0853 
      6 C6         14.6289  -27.3668  -44.2892 C.3       10 UNK        -0.0849 
      7 S7         15.3026  -27.6617  -45.9588 S.3       10 UNK        -0.2776 
      8 C8         15.6650  -29.4452  -45.9097 C.3       10 UNK         0.0316 
      9 C9         17.0630  -29.7293  -45.3809 C.ar      10 UNK        -0.0863 
     10 C10        17.2823  -29.9339  -44.0154 C.ar      10 UNK        -0.1009 
     11 C11        18.5627  -30.2325  -43.5403 C.ar      10 UNK        -0.0712 
     12 C12        19.6290  -30.3248  -44.4405 C.ar      10 UNK        -0.0894 
     13 C13        19.4200  -30.1310  -45.8081 C.ar      10 UNK        -0.0745 
     14 C14        18.1370  -29.8252  -46.2707 C.ar      10 UNK        -0.0972 
     15 C15        20.5650  -30.2927  -46.7962 C.3       10 UNK         0.0209 
     16 S16        21.3516  -28.7038  -47.1996 S.3       10 UNK        -0.2568 
     17 C17        22.5391  -28.4979  -45.8322 C.3       10 UNK        -0.0983 
     18 CA         22.3661  -27.1387  -45.1075 C.3       3 UNK         0.0876 
     19 N          21.2358  -27.1350  -44.1841 N.am      3 UNK        -0.4424 
     20 C          20.0468  -26.5668  -44.3954 C.2       2 UNK         0.4918 
     21 O          19.6981  -26.0402  -45.4554 O.2       2 UNK        -0.4875 
     22 CA         19.1105  -26.5340  -43.1831 C.3       2 UNK         0.0481 
     23 CB         19.5357  -25.4290  -42.1959 C.3       2 UNK        -0.1831 
     24 N          17.7445  -26.2975  -43.6365 N.am      2 UNK        -0.4498 
     25 C          16.6387  -26.5424  -42.9274 C.2       1 UNK         0.5027 
     26 O          16.6426  -27.0485  -41.8015 O.2       1 UNK        -0.4969 
     27 C          23.6181  -26.7909  -44.2844 C.2       3 UNK         0.5005 
     28 O          23.6118  -26.9428  -43.0573 O.2       3 UNK        -0.5279 
     29 N          24.6755  -26.3525  -44.9836 N.am      4 UNK        -0.4463 
     30 CA         25.9458  -25.8688  -44.4263 C.3       4 UNK         0.0283 
     31 CB         26.8382  -25.3639  -45.5720 C.3       4 UNK        -0.1875 
     32 C          26.7178  -26.8797  -43.5587 C.2       4 UNK         0.4949 
     33 O          27.5333  -26.4600  -42.7368 O.2       4 UNK        -0.5039 
     34 N          26.4339  -28.1806  -43.7111 N.am      5 UNK        -0.4663 
     35 CA         26.9577  -29.2775  -42.8891 C.3       5 UNK         0.0242 
     36 CB         26.7837  -30.5989  -43.6617 C.3       5 UNK        -0.1982 
     37 C          26.3081  -29.3228  -41.4878 C.2       5 UNK         0.5017 
     38 O          25.7660  -30.3561  -41.0917 O.2       5 UNK        -0.5012 
     39 N          26.3391  -28.1824  -40.7816 N.am      6 UNK        -0.4439 
     40 CA         25.8295  -27.9262  -39.4263 C.3       6 UNK         0.0297 
     41 CB         26.7229  -28.6419  -38.3912 C.3       6 UNK        -0.2006 
     42 C          24.3344  -28.2543  -39.2177 C.2       6 UNK         0.4892 
     43 O          23.9214  -28.4636  -38.0757 O.2       6 UNK        -0.5089 
     44 N          23.5596  -28.3205  -40.3136 N.am      7 UNK        -0.4243 
     45 CA         22.1785  -28.8131  -40.3939 C.3       7 UNK         0.0196 
     46 CB         21.2053  -27.8145  -39.7346 C.3       7 UNK        -0.2007 
     47 C          22.0058  -30.2521  -39.8570 C.2       7 UNK         0.5020 
     48 O          20.9384  -30.5886  -39.3421 O.2       7 UNK        -0.5147 
     49 N          23.0426  -31.0924  -39.9894 N.am      8 UNK        -0.4734 
     50 CA         23.0969  -32.4575  -39.4547 C.3       8 UNK         0.0238 
     51 CB         24.5721  -32.8396  -39.2275 C.3       8 UNK        -0.1912 
     52 C          22.3451  -33.4850  -40.3274 C.2       8 UNK         0.5038 
     53 O          22.9006  -34.5372  -40.6503 O.2       8 UNK        -0.5046 
     54 N          21.0976  -33.1685  -40.6947 N.am      9 UNK        -0.4200 
     55 CA         20.1896  -34.0507  -41.4457 C.3       9 UNK         0.0839 
     56 C          19.4458  -35.1080  -40.5775 C.2       9 UNK         0.5513 
     57 N          19.5419  -35.0724  -39.2532 N.am      9 UNK        -0.7519 
     58 O          18.7840  -35.9904  -41.1186 O.2       9 UNK        -0.4960 
     59 C59        19.2291  -33.2493  -42.3628 C.3       10 UNK        -0.0876 
     60 S60        18.1526  -32.0601  -41.4828 S.3       10 UNK        -0.2414 
     61 C61        18.7943  -30.4535  -42.0533 C.3       10 UNK         0.0169 
     62 H62        14.0745  -23.7316  -40.0537 H         1 UNK         0.0903 
     63 H63        13.0234  -23.0254  -41.2802 H         1 UNK         0.0903 
     64 H64        12.8037  -24.7034  -40.7923 H         1 UNK         0.0903 
     65 H65        13.6795  -26.1858  -42.2251 H         1 UNK         0.3096 
     66 H66        15.4881  -25.3873  -44.3324 H         1 UNK         0.1121 
     67 H67        13.5630  -27.1750  -44.4253 H         1 UNK         0.0849 
     68 H68        14.6857  -28.2668  -43.6744 H         1 UNK         0.0849 
     69 H69        15.5698  -29.8438  -46.9210 H         1 UNK         0.0865 
     70 H70        14.9151  -29.9701  -45.3159 H         1 UNK         0.0865 
     71 H71        16.4584  -29.8699  -43.3182 H         1 UNK         0.1346 
     72 H72        20.6199  -30.5623  -44.0795 H         1 UNK         0.1412 
     73 H73        17.9728  -29.6750  -47.3293 H         1 UNK         0.1426 
     74 H74        20.1853  -30.7333  -47.7193 H         1 UNK         0.0716 
     75 H75        21.3098  -30.9940  -46.4167 H         1 UNK         0.0716 
     76 H76        23.5314  -28.5831  -46.2792 H         1 UNK         0.0695 
     77 H77        22.4597  -29.3248  -45.1248 H         1 UNK         0.0695 
     78 H78        22.2388  -26.3429  -45.8455 H         1 UNK         0.0983 
     79 H79        21.4815  -27.4367  -43.2515 H         1 UNK         0.3095 
     80 H80        19.1615  -27.5050  -42.6875 H         1 UNK         0.0454 
     81 H81        19.4023  -24.4359  -42.6264 H         1 UNK         0.0851 
     82 H82        20.5863  -25.5214  -41.9200 H         1 UNK         0.0851 
     83 H83        18.9556  -25.4737  -41.2741 H         1 UNK         0.0851 
     84 H84        17.6780  -25.9485  -44.5853 H         1 UNK         0.2976 
     85 H85        24.5856  -26.2853  -45.9880 H         1 UNK         0.3116 
     86 H86        25.7089  -25.0195  -43.7821 H         1 UNK         0.0646 
     87 H87        27.0838  -26.1615  -46.2744 H         1 UNK         0.0847 
     88 H88        27.7799  -24.9674  -45.1892 H         1 UNK         0.0847 
     89 H89        26.3565  -24.5599  -46.1288 H         1 UNK         0.0847 
     90 H90        25.7318  -28.4271  -44.3925 H         1 UNK         0.3040 
     91 H91        28.0276  -29.1185  -42.7368 H         1 UNK         0.1015 
     92 H92        25.7322  -30.8249  -43.8440 H         1 UNK         0.0786 
     93 H93        27.2054  -31.4367  -43.1044 H         1 UNK         0.0786 
     94 H94        27.2928  -30.5658  -44.6252 H         1 UNK         0.0786 
     95 H95        26.7831  -27.3908  -41.2418 H         1 UNK         0.3172 
     96 H96        25.9266  -26.8518  -39.2650 H         1 UNK         0.0595 
     97 H97        26.4555  -28.3567  -37.3729 H         1 UNK         0.0839 
     98 H98        27.7737  -28.3873  -38.5290 H         1 UNK         0.0839 
     99 H99        26.6283  -29.7263  -38.4611 H         1 UNK         0.0839 
    100 H100       23.9794  -28.0691  -41.2019 H         1 UNK         0.2998 
    101 H101       21.9386  -28.8583  -41.4567 H         1 UNK         0.0822 
    102 H102       20.1689  -28.0676  -39.9624 H         1 UNK         0.0787 
    103 H103       21.3085  -27.8107  -38.6490 H         1 UNK         0.0787 
    104 H104       21.3789  -26.7986  -40.0867 H         1 UNK         0.0787 
    105 H105       23.8927  -30.7549  -40.4333 H         1 UNK         0.3055 
    106 H106       22.6068  -32.4633  -38.4783 H         1 UNK         0.1106 
    107 H107       24.6569  -33.8139  -38.7445 H         1 UNK         0.0828 
    108 H108       25.1235  -32.8908  -40.1674 H         1 UNK         0.0828 
    109 H109       25.0752  -32.1162  -38.5851 H         1 UNK         0.0828 
    110 H110       20.7056  -32.2963  -40.3543 H         1 UNK         0.2931 
    111 H111       20.8093  -34.6432  -42.1221 H         1 UNK         0.0412 
    112 H112       20.0740  -34.3486  -38.7977 H         1 UNK         0.3472 
    113 H113       19.0606  -35.7677  -38.7041 H         1 UNK         0.3472 
    114 H114       18.5902  -33.9275  -42.9318 H         1 UNK         0.0970 
    115 H115       19.8195  -32.7259  -43.1133 H         1 UNK         0.0970 
    116 H116       19.8562  -30.3887  -41.8218 H         1 UNK         0.0612 
    117 H117       18.3069  -29.6572  -41.4884 H         1 UNK         0.0612 
@<TRIPOS>BOND
     1    1    2 1    
     2    1   62 1    
     3    1   63 1    
     4    1   64 1    
     5    2    3 2    
     6    2    4 am   BACKBONE|DICT|INTERRES
     7    4    5 1    
     8    4   65 1    
     9    5    6 1    
    10    5   25 1    
    11    5   66 1    
    12    6    7 1    
    13    6   67 1    
    14    6   68 1    
    15    7    8 1    
    16    8    9 1    
    17    8   69 1    
    18    8   70 1    
    19    9   10 ar   
    20    9   14 ar   
    21   10   11 ar   
    22   10   71 1    
    23   11   12 ar   
    24   11   61 1    
    25   12   13 ar   
    26   12   72 1    
    27   13   14 ar   
    28   13   15 1    
    29   14   73 1    
    30   15   16 1    
    31   15   74 1    
    32   15   75 1    
    33   16   17 1    
    34   17   18 1    
    35   17   76 1    
    36   17   77 1    
    37   18   19 1    
    38   18   27 1    
    39   18   78 1    
    40   19   20 am   BACKBONE|DICT|INTERRES
    41   19   79 1    
    42   20   21 2    
    43   20   22 1    
    44   22   23 1    
    45   22   24 1    
    46   22   80 1    
    47   23   81 1    
    48   23   82 1    
    49   23   83 1    
    50   24   25 am   BACKBONE|DICT|INTERRES
    51   24   84 1    
    52   25   26 2    
    53   27   28 2    
    54   27   29 am   BACKBONE|DICT|INTERRES
    55   29   30 1    
    56   29   85 1    
    57   30   31 1    
    58   30   32 1    
    59   30   86 1    
    60   31   87 1    
    61   31   88 1    
    62   31   89 1    
    63   32   33 2    
    64   32   34 am   BACKBONE|DICT|INTERRES
    65   34   35 1    
    66   34   90 1    
    67   35   36 1    
    68   35   37 1    
    69   35   91 1    
    70   36   92 1    
    71   36   93 1    
    72   36   94 1    
    73   37   38 2    
    74   37   39 am   BACKBONE|DICT|INTERRES
    75   39   40 1    
    76   39   95 1    
    77   40   41 1    
    78   40   42 1    
    79   40   96 1    
    80   41   97 1    
    81   41   98 1    
    82   41   99 1    
    83   42   43 2    
    84   42   44 am   BACKBONE|DICT|INTERRES
    85   44   45 1    
    86   44  100 1    
    87   45   46 1    
    88   45   47 1    
    89   45  101 1    
    90   46  102 1    
    91   46  103 1    
    92   46  104 1    
    93   47   48 2    
    94   47   49 am   BACKBONE|DICT|INTERRES
    95   49   50 1    
    96   49  105 1    
    97   50   51 1    
    98   50   52 1    
    99   50  106 1    
   100   51  107 1    
   101   51  108 1    
   102   51  109 1    
   103   52   53 2    
   104   52   54 am   BACKBONE|DICT|INTERRES
   105   54   55 1    
   106   54  110 1    
   107   55   56 1    
   108   55   59 1    
   109   55  111 1    
   110   56   57 am   BACKBONE|DICT|INTERRES
   111   56   58 2    
   112   57  112 1    
   113   57  113 1    
   114   59   60 1    
   115   59  114 1    
   116   59  115 1    
   117   60   61 1    
   118   61  116 1    
   119   61  117 1    
@<TRIPOS>SUBSTRUCTURE
     1 UNK         1 GROUP             0       ****    0 ROOT    
