@<TRIPOS>MOLECULE
3R8
117   119    1
SMALL
USER_CHARGES


@<TRIPOS>ATOM
      1 CA         15.6684  -22.1570  -43.6059 C.3       0 UNK        -0.2013 
      2 C          15.9487  -23.1552  -42.4856 C.2       0 UNK         0.4866 
      3 O          15.8742  -22.7856  -41.3156 O.2       0 UNK        -0.5176 
      4 N          16.2641  -24.4248  -42.7800 N.am      1 UNK        -0.4884 
      5 CA         16.4457  -25.0148  -44.1149 C.3       1 UNK         0.0853 
      6 C6         16.2569  -26.5514  -44.0859 C.3       10 UNK        -0.0849 
      7 S7         17.3013  -27.4130  -42.8551 S.3       10 UNK        -0.2776 
      8 C8         16.7749  -29.1499  -43.0706 C.3       10 UNK         0.0316 
      9 C9         17.7511  -29.9612  -43.9171 C.ar      10 UNK        -0.0863 
     10 C10        18.2823  -31.1630  -43.4350 C.ar      10 UNK        -0.1009 
     11 C11        19.1725  -31.9115  -44.2140 C.ar      10 UNK        -0.0712 
     12 C12        19.5573  -31.4342  -45.4712 C.ar      10 UNK        -0.0894 
     13 C13        19.0422  -30.2302  -45.9605 C.ar      10 UNK        -0.0745 
     14 C14        18.1183  -29.5210  -45.1904 C.ar      10 UNK        -0.0972 
     15 C15        19.4835  -29.6921  -47.3176 C.3       10 UNK         0.0209 
     16 S16        19.9097  -27.9158  -47.2724 S.3       10 UNK        -0.2568 
     17 C17        21.2948  -27.9264  -46.0900 C.3       10 UNK        -0.0983 
     18 CA         21.8810  -26.5104  -45.8667 C.3       3 UNK         0.0876 
     19 N          20.9363  -25.6212  -45.1705 N.am      3 UNK        -0.4424 
     20 C          20.9766  -24.2836  -45.2426 C.2       2 UNK         0.4918 
     21 O          21.7878  -23.6740  -45.9415 O.2       2 UNK        -0.4875 
     22 CA         20.0006  -23.4871  -44.3498 C.3       2 UNK         0.0481 
     23 CB         19.6834  -22.0905  -44.9274 C.3       2 UNK        -0.1831 
     24 N          18.7599  -24.1805  -43.9748 N.am      2 UNK        -0.4498 
     25 C          17.7735  -24.5931  -44.7877 C.2       1 UNK         0.5027 
     26 O          17.8497  -24.5918  -46.0161 O.2       1 UNK        -0.4969 
     27 C          23.2488  -26.6087  -45.1527 C.2       3 UNK         0.5005 
     28 O          24.1726  -27.1933  -45.7210 O.2       3 UNK        -0.5279 
     29 N          23.3564  -26.0939  -43.9153 N.am      4 UNK        -0.4463 
     30 CA         24.5075  -26.1241  -42.9935 C.3       4 UNK         0.0283 
     31 CB         25.7628  -25.4742  -43.6073 C.3       4 UNK        -0.1875 
     32 C          24.8162  -27.5249  -42.4340 C.2       4 UNK         0.4949 
     33 O          25.0109  -27.6650  -41.2267 O.2       4 UNK        -0.5039 
     34 N          24.7742  -28.5468  -43.2991 N.am      5 UNK        -0.4663 
     35 CA         24.8392  -29.9722  -42.9564 C.3       5 UNK         0.0242 
     36 CB         24.9180  -30.7966  -44.2507 C.3       5 UNK        -0.1982 
     37 C          23.6551  -30.4501  -42.0964 C.2       5 UNK         0.5017 
     38 O          23.7749  -31.4767  -41.4281 O.2       5 UNK        -0.5012 
     39 N          22.5565  -29.6790  -42.0973 N.am      6 UNK        -0.4439 
     40 CA         21.3339  -29.8660  -41.3093 C.3       6 UNK         0.0297 
     41 CB         20.3834  -28.6943  -41.5906 C.3       6 UNK        -0.2006 
     42 C          21.5612  -30.0181  -39.7950 C.2       6 UNK         0.4892 
     43 O          20.7616  -30.6783  -39.1326 O.2       6 UNK        -0.5089 
     44 N          22.6609  -29.4494  -39.2800 N.am      7 UNK        -0.4243 
     45 CA         23.1274  -29.6335  -37.9043 C.3       7 UNK         0.0196 
     46 CB         24.2906  -28.6642  -37.6391 C.3       7 UNK        -0.2007 
     47 C          23.5499  -31.0816  -37.5837 C.2       7 UNK         0.5020 
     48 O          23.5119  -31.4659  -36.4145 O.2       7 UNK        -0.5147 
     49 N          23.9431  -31.8521  -38.6077 N.am      8 UNK        -0.4734 
     50 CA         24.3198  -33.2595  -38.4992 C.3       8 UNK         0.0238 
     51 CB         25.6157  -33.5093  -39.2901 C.3       8 UNK        -0.1912 
     52 C          23.1923  -34.1758  -38.9949 C.2       8 UNK         0.5038 
     53 O          22.8359  -35.1127  -38.2787 O.2       8 UNK        -0.5046 
     54 N          22.6629  -33.9146  -40.2008 N.am      9 UNK        -0.4200 
     55 CA         21.6243  -34.7517  -40.8299 C.3       9 UNK         0.0839 
     56 C          20.1794  -34.5419  -40.2934 C.2       9 UNK         0.5513 
     57 N          19.8819  -33.4861  -39.5472 N.am      9 UNK        -0.7519 
     58 O          19.3097  -35.3708  -40.5487 O.2       9 UNK        -0.4960 
     59 C59        21.6958  -34.7400  -42.3816 C.3       10 UNK        -0.0876 
     60 S60        21.4265  -33.1076  -43.1482 S.3       10 UNK        -0.2414 
     61 C61        19.7037  -33.2452  -43.7086 C.3       10 UNK         0.0169 
     62 H62        14.8279  -22.4835  -44.2175 H         1 UNK         0.0903 
     63 H63        15.4125  -21.1823  -43.1910 H         1 UNK         0.0903 
     64 H64        16.5397  -22.0222  -44.2449 H         1 UNK         0.0903 
     65 H65        16.4262  -25.0691  -42.0175 H         1 UNK         0.3096 
     66 H66        15.6557  -24.6254  -44.7600 H         1 UNK         0.1121 
     67 H67        15.2158  -26.7721  -43.8439 H         1 UNK         0.0849 
     68 H68        16.4139  -26.9689  -45.0800 H         1 UNK         0.0849 
     69 H69        16.6771  -29.5952  -42.0793 H         1 UNK         0.0865 
     70 H70        15.7825  -29.1935  -43.5210 H         1 UNK         0.0865 
     71 H71        17.9974  -31.5235  -42.4558 H         1 UNK         0.1346 
     72 H72        20.2602  -32.0030  -46.0645 H         1 UNK         0.1412 
     73 H73        17.7128  -28.6016  -45.5805 H         1 UNK         0.1426 
     74 H74        18.6760  -29.8431  -48.0350 H         1 UNK         0.0716 
     75 H75        20.3431  -30.2488  -47.6939 H         1 UNK         0.0716 
     76 H76        20.9628  -28.3575  -45.1437 H         1 UNK         0.0695 
     77 H77        22.0488  -28.6077  -46.4901 H         1 UNK         0.0695 
     78 H78        22.0922  -26.0831  -46.8499 H         1 UNK         0.0983 
     79 H79        20.2200  -26.0595  -44.6101 H         1 UNK         0.3095 
     80 H80        20.5364  -23.3287  -43.4129 H         1 UNK         0.0454 
     81 H81        20.5932  -21.5073  -45.0751 H         1 UNK         0.0851 
     82 H82        19.0462  -21.5173  -44.2543 H         1 UNK         0.0851 
     83 H83        19.1809  -22.1565  -45.8929 H         1 UNK         0.0851 
     84 H84        18.5867  -24.2543  -42.9812 H         1 UNK         0.2976 
     85 H85        22.5279  -25.6546  -43.5397 H         1 UNK         0.3116 
     86 H86        24.2123  -25.5093  -42.1414 H         1 UNK         0.0646 
     87 H87        26.1598  -26.0505  -44.4432 H         1 UNK         0.0847 
     88 H88        25.5529  -24.4662  -43.9646 H         1 UNK         0.0847 
     89 H89        26.5588  -25.3960  -42.8657 H         1 UNK         0.0847 
     90 H90        24.6297  -28.3099  -44.2785 H         1 UNK         0.3040 
     91 H91        25.7496  -30.1399  -42.3769 H         1 UNK         0.1015 
     92 H92        24.9880  -31.8631  -44.0308 H         1 UNK         0.0786 
     93 H93        25.7955  -30.5292  -44.8396 H         1 UNK         0.0786 
     94 H94        24.0356  -30.6508  -44.8755 H         1 UNK         0.0786 
     95 H95        22.5818  -28.8649  -42.6911 H         1 UNK         0.3172 
     96 H96        20.8516  -30.7797  -41.6548 H         1 UNK         0.0595 
     97 H97        20.8122  -27.7383  -41.2879 H         1 UNK         0.0839 
     98 H98        19.4448  -28.8177  -41.0485 H         1 UNK         0.0839 
     99 H99        20.1337  -28.6340  -42.6500 H         1 UNK         0.0839 
    100 H100       23.2664  -28.9262  -39.8988 H         1 UNK         0.2998 
    101 H101       22.3041  -29.3773  -37.2339 H         1 UNK         0.0822 
    102 H102       24.6524  -28.7580  -36.6141 H         1 UNK         0.0787 
    103 H103       23.9838  -27.6276  -37.7800 H         1 UNK         0.0787 
    104 H104       25.1345  -28.8569  -38.3032 H         1 UNK         0.0787 
    105 H105       23.9066  -31.4751  -39.5511 H         1 UNK         0.3055 
    106 H106       24.5159  -33.5164  -37.4555 H         1 UNK         0.1106 
    107 H107       26.4366  -32.9068  -38.9012 H         1 UNK         0.0828 
    108 H108       25.9198  -34.5545  -39.2191 H         1 UNK         0.0828 
    109 H109       25.5030  -33.2743  -40.3490 H         1 UNK         0.0828 
    110 H110       22.9899  -33.1141  -40.7340 H         1 UNK         0.2931 
    111 H111       21.8604  -35.7817  -40.5541 H         1 UNK         0.0412 
    112 H112       18.9404  -33.3824  -39.2049 H         1 UNK         0.3472 
    113 H113       20.5567  -32.7542  -39.3662 H         1 UNK         0.3472 
    114 H114       22.6814  -35.0870  -42.6950 H         1 UNK         0.0970 
    115 H115       20.9929  -35.4615  -42.8026 H         1 UNK         0.0970 
    116 H116       19.0824  -33.6120  -42.8908 H         1 UNK         0.0612 
    117 H117       19.6419  -33.9904  -44.5030 H         1 UNK         0.0612 
@<TRIPOS>BOND
     1    1    2 1    
     2    1   62 1    
     3    1   63 1    
     4    1   64 1    
     5    2    3 2    
     6    2    4 am   BACKBONE|DICT|INTERRES
     7    4    5 1    
     8    4   65 1    
     9    5    6 1    
    10    5   25 1    
    11    5   66 1    
    12    6    7 1    
    13    6   67 1    
    14    6   68 1    
    15    7    8 1    
    16    8    9 1    
    17    8   69 1    
    18    8   70 1    
    19    9   10 ar   
    20    9   14 ar   
    21   10   11 ar   
    22   10   71 1    
    23   11   12 ar   
    24   11   61 1    
    25   12   13 ar   
    26   12   72 1    
    27   13   14 ar   
    28   13   15 1    
    29   14   73 1    
    30   15   16 1    
    31   15   74 1    
    32   15   75 1    
    33   16   17 1    
    34   17   18 1    
    35   17   76 1    
    36   17   77 1    
    37   18   19 1    
    38   18   27 1    
    39   18   78 1    
    40   19   20 am   BACKBONE|DICT|INTERRES
    41   19   79 1    
    42   20   21 2    
    43   20   22 1    
    44   22   23 1    
    45   22   24 1    
    46   22   80 1    
    47   23   81 1    
    48   23   82 1    
    49   23   83 1    
    50   24   25 am   BACKBONE|DICT|INTERRES
    51   24   84 1    
    52   25   26 2    
    53   27   28 2    
    54   27   29 am   BACKBONE|DICT|INTERRES
    55   29   30 1    
    56   29   85 1    
    57   30   31 1    
    58   30   32 1    
    59   30   86 1    
    60   31   87 1    
    61   31   88 1    
    62   31   89 1    
    63   32   33 2    
    64   32   34 am   BACKBONE|DICT|INTERRES
    65   34   35 1    
    66   34   90 1    
    67   35   36 1    
    68   35   37 1    
    69   35   91 1    
    70   36   92 1    
    71   36   93 1    
    72   36   94 1    
    73   37   38 2    
    74   37   39 am   BACKBONE|DICT|INTERRES
    75   39   40 1    
    76   39   95 1    
    77   40   41 1    
    78   40   42 1    
    79   40   96 1    
    80   41   97 1    
    81   41   98 1    
    82   41   99 1    
    83   42   43 2    
    84   42   44 am   BACKBONE|DICT|INTERRES
    85   44   45 1    
    86   44  100 1    
    87   45   46 1    
    88   45   47 1    
    89   45  101 1    
    90   46  102 1    
    91   46  103 1    
    92   46  104 1    
    93   47   48 2    
    94   47   49 am   BACKBONE|DICT|INTERRES
    95   49   50 1    
    96   49  105 1    
    97   50   51 1    
    98   50   52 1    
    99   50  106 1    
   100   51  107 1    
   101   51  108 1    
   102   51  109 1    
   103   52   53 2    
   104   52   54 am   BACKBONE|DICT|INTERRES
   105   54   55 1    
   106   54  110 1    
   107   55   56 1    
   108   55   59 1    
   109   55  111 1    
   110   56   57 am   BACKBONE|DICT|INTERRES
   111   56   58 2    
   112   57  112 1    
   113   57  113 1    
   114   59   60 1    
   115   59  114 1    
   116   59  115 1    
   117   60   61 1    
   118   61  116 1    
   119   61  117 1    
@<TRIPOS>SUBSTRUCTURE
     1 UNK         1 GROUP             0       ****    0 ROOT    
