@<TRIPOS>MOLECULE
3R8
117   119    1
SMALL
USER_CHARGES


@<TRIPOS>ATOM
      1 CA         12.6681  -24.3015  -43.8386 C.3       0 UNK        -0.2013 
      2 C          13.9455  -24.4630  -44.6495 C.2       0 UNK         0.4866 
      3 O          14.3963  -23.5029  -45.2750 O.2       0 UNK        -0.5176 
      4 N          14.5186  -25.6723  -44.6507 N.am      1 UNK        -0.4884 
      5 CA         15.7789  -26.0194  -45.3114 C.3       1 UNK         0.0853 
      6 C6         15.7243  -27.4402  -45.9388 C.3       10 UNK        -0.0849 
      7 S7         15.1849  -28.7695  -44.7997 S.3       10 UNK        -0.2776 
      8 C8         16.0476  -30.2200  -45.4824 C.3       10 UNK         0.0316 
      9 C9         17.5485  -30.1592  -45.2385 C.ar      10 UNK        -0.0863 
     10 C10        18.0695  -30.4813  -43.9822 C.ar      10 UNK        -0.1009 
     11 C11        19.4502  -30.4399  -43.7497 C.ar      10 UNK        -0.0712 
     12 C12        20.3069  -30.0998  -44.8016 C.ar      10 UNK        -0.0894 
     13 C13        19.7977  -29.7700  -46.0609 C.ar      10 UNK        -0.0745 
     14 C14        18.4177  -29.8030  -46.2729 C.ar      10 UNK        -0.0972 
     15 C15        20.7308  -29.4004  -47.2046 C.3       10 UNK         0.0209 
     16 S16        21.0461  -27.6076  -47.2712 S.3       10 UNK        -0.2568 
     17 C17        22.3369  -27.4099  -45.9962 C.3       10 UNK        -0.0983 
     18 CA         21.9205  -26.4645  -44.8391 C.3       3 UNK         0.0876 
     19 N          20.6787  -26.9040  -44.1895 N.am      3 UNK        -0.4424 
     20 C          19.9231  -26.1804  -43.3541 C.2       2 UNK         0.4918 
     21 O          20.1895  -25.0259  -43.0141 O.2       2 UNK        -0.4875 
     22 CA         18.6524  -26.8699  -42.8285 C.3       2 UNK         0.0481 
     23 CB         18.1973  -26.3089  -41.4660 C.3       2 UNK        -0.1831 
     24 N          17.5538  -26.8403  -43.8014 N.am      2 UNK        -0.4498 
     25 C          16.9535  -25.7662  -44.3392 C.2       1 UNK         0.5027 
     26 O          17.2730  -24.6032  -44.0886 O.2       1 UNK        -0.4969 
     27 C          23.0722  -26.2806  -43.8220 C.2       3 UNK         0.5005 
     28 O          23.9713  -27.1218  -43.7458 O.2       3 UNK        -0.5279 
     29 N          22.9984  -25.2052  -43.0224 N.am      4 UNK        -0.4463 
     30 CA         23.9780  -24.7349  -42.0280 C.3       4 UNK         0.0283 
     31 CB         25.2599  -24.2533  -42.7397 C.3       4 UNK        -0.1875 
     32 C          24.3007  -25.7389  -40.9000 C.2       4 UNK         0.4949 
     33 O          25.2972  -25.5588  -40.1991 O.2       4 UNK        -0.5039 
     34 N          23.4717  -26.7850  -40.7631 N.am      5 UNK        -0.4663 
     35 CA         23.6723  -27.9802  -39.9360 C.3       5 UNK         0.0242 
     36 CB         23.5445  -27.6430  -38.4358 C.3       5 UNK        -0.1982 
     37 C          24.9682  -28.7452  -40.2824 C.2       5 UNK         0.5017 
     38 O          25.5997  -29.3131  -39.3898 O.2       5 UNK        -0.5012 
     39 N          25.3461  -28.7415  -41.5719 N.am      6 UNK        -0.4439 
     40 CA         26.5652  -29.3738  -42.0877 C.3       6 UNK         0.0297 
     41 CB         26.7803  -28.9429  -43.5473 C.3       6 UNK        -0.2006 
     42 C          26.5700  -30.9093  -41.9732 C.2       6 UNK         0.4892 
     43 O          27.6394  -31.4966  -41.8035 O.2       6 UNK        -0.5089 
     44 N          25.3860  -31.5248  -42.0579 N.am      7 UNK        -0.4243 
     45 CA         25.1425  -32.9558  -41.9119 C.3       7 UNK         0.0196 
     46 CB         25.5737  -33.7039  -43.1886 C.3       7 UNK        -0.2007 
     47 C          23.6485  -33.1609  -41.6405 C.2       7 UNK         0.5020 
     48 O          22.8533  -32.2649  -41.9345 O.2       7 UNK        -0.5147 
     49 N          23.2990  -34.3412  -41.1103 N.am      8 UNK        -0.4734 
     50 CA         21.9538  -34.8758  -40.8320 C.3       8 UNK         0.0238 
     51 CB         21.1425  -35.0479  -42.1318 C.3       8 UNK        -0.1912 
     52 C          21.1391  -34.1189  -39.7648 C.2       8 UNK         0.5038 
     53 O          20.6176  -34.7547  -38.8477 O.2       8 UNK        -0.5046 
     54 N          21.0364  -32.7946  -39.9026 N.am      9 UNK        -0.4200 
     55 CA         20.3797  -31.8784  -38.9622 C.3       9 UNK         0.0839 
     56 C          21.1525  -31.7849  -37.6187 C.2       9 UNK         0.5513 
     57 N          20.4445  -31.6802  -36.5028 N.am      9 UNK        -0.7519 
     58 O          22.3811  -31.7591  -37.5850 O.2       9 UNK        -0.4960 
     59 C59        20.2057  -30.4694  -39.5847 C.3       10 UNK        -0.0876 
     60 S60        19.0002  -30.4138  -40.9537 S.3       10 UNK        -0.2414 
     61 C61        20.0584  -30.7871  -42.3931 C.3       10 UNK         0.0169 
     62 H62        11.8502  -23.9853  -44.4856 H         1 UNK         0.0903 
     63 H63        12.3738  -25.2304  -43.3503 H         1 UNK         0.0903 
     64 H64        12.8064  -23.5429  -43.0686 H         1 UNK         0.0903 
     65 H65        14.1040  -26.4216  -44.1130 H         1 UNK         0.3096 
     66 H66        15.9407  -25.3271  -46.1414 H         1 UNK         0.1121 
     67 H67        16.6879  -27.6835  -46.3863 H         1 UNK         0.0849 
     68 H68        15.0205  -27.4302  -46.7726 H         1 UNK         0.0849 
     69 H69        15.6432  -31.1208  -45.0181 H         1 UNK         0.0865 
     70 H70        15.8283  -30.3060  -46.5480 H         1 UNK         0.0865 
     71 H71        17.3920  -30.7650  -43.1888 H         1 UNK         0.1346 
     72 H72        21.3762  -30.0978  -44.6384 H         1 UNK         0.1412 
     73 H73        18.0221  -29.5589  -47.2497 H         1 UNK         0.1426 
     74 H74        20.2878  -29.7086  -48.1529 H         1 UNK         0.0716 
     75 H75        21.6726  -29.9458  -47.1258 H         1 UNK         0.0716 
     76 H76        23.2250  -27.0179  -46.4956 H         1 UNK         0.0695 
     77 H77        22.6254  -28.3887  -45.6111 H         1 UNK         0.0695 
     78 H78        21.7286  -25.4831  -45.2790 H         1 UNK         0.0983 
     79 H79        20.3618  -27.8296  -44.4434 H         1 UNK         0.3095 
     80 H80        18.8985  -27.9189  -42.6722 H         1 UNK         0.0454 
     81 H81        17.9134  -25.2579  -41.5280 H         1 UNK         0.0851 
     82 H82        18.9972  -26.3856  -40.7286 H         1 UNK         0.0851 
     83 H83        17.3443  -26.8642  -41.0762 H         1 UNK         0.0851 
     84 H84        17.1975  -27.7472  -44.0795 H         1 UNK         0.2976 
     85 H85        22.1382  -24.6654  -43.0756 H         1 UNK         0.3116 
     86 H86        23.5233  -23.8716  -41.5401 H         1 UNK         0.0646 
     87 H87        25.0331  -23.5252  -43.5183 H         1 UNK         0.0847 
     88 H88        25.7996  -25.0813  -43.2010 H         1 UNK         0.0847 
     89 H89        25.9431  -23.7708  -42.0397 H         1 UNK         0.0847 
     90 H90        22.6873  -26.8194  -41.3983 H         1 UNK         0.3040 
     91 H91        22.8606  -28.6590  -40.1909 H         1 UNK         0.1015 
     92 H92        24.3646  -27.0123  -38.0916 H         1 UNK         0.0786 
     93 H93        23.5541  -28.5499  -37.8294 H         1 UNK         0.0786 
     94 H94        22.6096  -27.1242  -38.2240 H         1 UNK         0.0786 
     95 H95        24.7908  -28.2172  -42.2435 H         1 UNK         0.3172 
     96 H96        27.4044  -28.9995  -41.4976 H         1 UNK         0.0595 
     97 H97        27.6963  -29.3749  -43.9527 H         1 UNK         0.0839 
     98 H98        26.8673  -27.8594  -43.6324 H         1 UNK         0.0839 
     99 H99        25.9565  -29.2618  -44.1874 H         1 UNK         0.0839 
    100 H100       24.5428  -30.9753  -42.1711 H         1 UNK         0.2998 
    101 H101       25.7076  -33.3254  -41.0535 H         1 UNK         0.0822 
    102 H102       26.6400  -33.5862  -43.3814 H         1 UNK         0.0787 
    103 H103       25.3801  -34.7739  -43.1039 H         1 UNK         0.0787 
    104 H104       25.0341  -33.3427  -44.0652 H         1 UNK         0.0787 
    105 H105       24.0511  -34.9780  -40.8825 H         1 UNK         0.3055 
    106 H106       22.1178  -35.8759  -40.4261 H         1 UNK         0.1106 
    107 H107       20.9724  -34.0998  -42.6409 H         1 UNK         0.0828 
    108 H108       20.1644  -35.4853  -41.9269 H         1 UNK         0.0828 
    109 H109       21.6527  -35.7118  -42.8296 H         1 UNK         0.0828 
    110 H110       21.5552  -32.3735  -40.6686 H         1 UNK         0.2931 
    111 H111       19.3874  -32.2836  -38.7527 H         1 UNK         0.0412 
    112 H112       19.4362  -31.6902  -36.5218 H         1 UNK         0.3472 
    113 H113       20.9275  -31.6015  -35.6212 H         1 UNK         0.3472 
    114 H114       19.8500  -29.7639  -38.8310 H         1 UNK         0.0970 
    115 H115       21.1650  -30.0821  -39.9235 H         1 UNK         0.0970 
    116 H116       21.0053  -30.2582  -42.2751 H         1 UNK         0.0612 
    117 H117       20.2835  -31.8520  -42.3923 H         1 UNK         0.0612 
@<TRIPOS>BOND
     1    1    2 1    
     2    1   62 1    
     3    1   63 1    
     4    1   64 1    
     5    2    3 2    
     6    2    4 am   BACKBONE|DICT|INTERRES
     7    4    5 1    
     8    4   65 1    
     9    5    6 1    
    10    5   25 1    
    11    5   66 1    
    12    6    7 1    
    13    6   67 1    
    14    6   68 1    
    15    7    8 1    
    16    8    9 1    
    17    8   69 1    
    18    8   70 1    
    19    9   10 ar   
    20    9   14 ar   
    21   10   11 ar   
    22   10   71 1    
    23   11   12 ar   
    24   11   61 1    
    25   12   13 ar   
    26   12   72 1    
    27   13   14 ar   
    28   13   15 1    
    29   14   73 1    
    30   15   16 1    
    31   15   74 1    
    32   15   75 1    
    33   16   17 1    
    34   17   18 1    
    35   17   76 1    
    36   17   77 1    
    37   18   19 1    
    38   18   27 1    
    39   18   78 1    
    40   19   20 am   BACKBONE|DICT|INTERRES
    41   19   79 1    
    42   20   21 2    
    43   20   22 1    
    44   22   23 1    
    45   22   24 1    
    46   22   80 1    
    47   23   81 1    
    48   23   82 1    
    49   23   83 1    
    50   24   25 am   BACKBONE|DICT|INTERRES
    51   24   84 1    
    52   25   26 2    
    53   27   28 2    
    54   27   29 am   BACKBONE|DICT|INTERRES
    55   29   30 1    
    56   29   85 1    
    57   30   31 1    
    58   30   32 1    
    59   30   86 1    
    60   31   87 1    
    61   31   88 1    
    62   31   89 1    
    63   32   33 2    
    64   32   34 am   BACKBONE|DICT|INTERRES
    65   34   35 1    
    66   34   90 1    
    67   35   36 1    
    68   35   37 1    
    69   35   91 1    
    70   36   92 1    
    71   36   93 1    
    72   36   94 1    
    73   37   38 2    
    74   37   39 am   BACKBONE|DICT|INTERRES
    75   39   40 1    
    76   39   95 1    
    77   40   41 1    
    78   40   42 1    
    79   40   96 1    
    80   41   97 1    
    81   41   98 1    
    82   41   99 1    
    83   42   43 2    
    84   42   44 am   BACKBONE|DICT|INTERRES
    85   44   45 1    
    86   44  100 1    
    87   45   46 1    
    88   45   47 1    
    89   45  101 1    
    90   46  102 1    
    91   46  103 1    
    92   46  104 1    
    93   47   48 2    
    94   47   49 am   BACKBONE|DICT|INTERRES
    95   49   50 1    
    96   49  105 1    
    97   50   51 1    
    98   50   52 1    
    99   50  106 1    
   100   51  107 1    
   101   51  108 1    
   102   51  109 1    
   103   52   53 2    
   104   52   54 am   BACKBONE|DICT|INTERRES
   105   54   55 1    
   106   54  110 1    
   107   55   56 1    
   108   55   59 1    
   109   55  111 1    
   110   56   57 am   BACKBONE|DICT|INTERRES
   111   56   58 2    
   112   57  112 1    
   113   57  113 1    
   114   59   60 1    
   115   59  114 1    
   116   59  115 1    
   117   60   61 1    
   118   61  116 1    
   119   61  117 1    
@<TRIPOS>SUBSTRUCTURE
     1 UNK         1 GROUP             0       ****    0 ROOT    
