@<TRIPOS>MOLECULE
3R8
117   119    1
SMALL
USER_CHARGES


@<TRIPOS>ATOM
      1 CA         17.0746  -24.6158  -40.9109 C.3       0 UNK        -0.2013 
      2 C          17.2395  -25.2817  -42.2684 C.2       0 UNK         0.4866 
      3 O          18.2368  -25.9703  -42.4951 O.2       0 UNK        -0.5176 
      4 N          16.2725  -25.0722  -43.1745 N.am      1 UNK        -0.4884 
      5 CA         16.1953  -25.6015  -44.5447 C.3       1 UNK         0.0853 
      6 C6         16.1886  -27.1538  -44.5850 C.3       10 UNK        -0.0849 
      7 S7         15.6246  -27.8438  -46.1772 S.3       10 UNK        -0.2776 
      8 C8         15.3941  -29.6023  -45.7449 C.3       10 UNK         0.0316 
      9 C9         16.6414  -30.2037  -45.1101 C.ar      10 UNK        -0.0863 
     10 C10        16.6454  -30.5520  -43.7548 C.ar      10 UNK        -0.1009 
     11 C11        17.8003  -31.0507  -43.1429 C.ar      10 UNK        -0.0712 
     12 C12        18.9582  -31.1973  -43.9160 C.ar      10 UNK        -0.0894 
     13 C13        18.9663  -30.8674  -45.2738 C.ar      10 UNK        -0.0745 
     14 C14        17.8013  -30.3797  -45.8692 C.ar      10 UNK        -0.0972 
     15 C15        20.2417  -31.0232  -46.0901 C.3       10 UNK         0.0209 
     16 S16        21.1229  -29.4422  -46.2964 S.3       10 UNK        -0.2568 
     17 C17        21.6316  -29.0713  -44.5816 C.3       10 UNK        -0.0983 
     18 CA         21.9464  -27.5744  -44.3471 C.3       3 UNK         0.0876 
     19 N          20.8528  -26.7112  -44.8053 N.am      3 UNK        -0.4424 
     20 C          20.9812  -25.4270  -45.1644 C.2       2 UNK         0.4918 
     21 O          22.0080  -24.7684  -45.0023 O.2       2 UNK        -0.4875 
     22 CA         19.7558  -24.7783  -45.8228 C.3       2 UNK         0.0481 
     23 CB         19.7649  -25.0968  -47.3332 C.3       2 UNK        -0.1831 
     24 N          18.5355  -25.2500  -45.1652 N.am      2 UNK        -0.4498 
     25 C          17.2627  -24.9753  -45.4699 C.2       1 UNK         0.5027 
     26 O          16.9107  -24.2459  -46.3981 O.2       1 UNK        -0.4969 
     27 C          22.3453  -27.3513  -42.8734 C.2       3 UNK         0.5005 
     28 O          23.3183  -27.9652  -42.4319 O.2       3 UNK        -0.5279 
     29 N          21.6149  -26.5060  -42.1278 N.am      4 UNK        -0.4463 
     30 CA         21.7919  -26.2318  -40.6922 C.3       4 UNK         0.0283 
     31 CB         20.7129  -25.2424  -40.2266 C.3       4 UNK        -0.1875 
     32 C          23.1885  -25.7466  -40.2524 C.2       4 UNK         0.4949 
     33 O          23.4914  -25.8106  -39.0612 O.2       4 UNK        -0.5039 
     34 N          24.0255  -25.3035  -41.2010 N.am      5 UNK        -0.4663 
     35 CA         25.4521  -25.0372  -40.9903 C.3       5 UNK         0.0242 
     36 CB         26.0280  -24.3537  -42.2407 C.3       5 UNK        -0.1982 
     37 C          26.2602  -26.3062  -40.6469 C.2       5 UNK         0.5017 
     38 O          27.2538  -26.2052  -39.9263 O.2       5 UNK        -0.5012 
     39 N          25.8150  -27.4646  -41.1536 N.am      6 UNK        -0.4439 
     40 CA         26.3430  -28.7913  -40.8316 C.3       6 UNK         0.0297 
     41 CB         26.5776  -29.5781  -42.1323 C.3       6 UNK        -0.2006 
     42 C          25.3753  -29.5518  -39.9111 C.2       6 UNK         0.4892 
     43 O          25.8279  -30.1784  -38.9530 O.2       6 UNK        -0.5089 
     44 N          24.0697  -29.4752  -40.2191 N.am      7 UNK        -0.4243 
     45 CA         22.9360  -30.0745  -39.5013 C.3       7 UNK         0.0196 
     46 CB         22.7586  -29.4138  -38.1175 C.3       7 UNK        -0.2007 
     47 C          22.9819  -31.6151  -39.4228 C.2       7 UNK         0.5020 
     48 O          22.4850  -32.1921  -38.4542 O.2       7 UNK        -0.5147 
     49 N          23.5766  -32.2595  -40.4377 N.am      8 UNK        -0.4734 
     50 CA         23.6839  -33.7184  -40.5361 C.3       8 UNK         0.0238 
     51 CB         24.7571  -34.0917  -41.5731 C.3       8 UNK        -0.1912 
     52 C          22.3349  -34.3770  -40.8682 C.2       8 UNK         0.5038 
     53 O          21.9306  -35.3130  -40.1774 O.2       8 UNK        -0.5046 
     54 N          21.6687  -33.8555  -41.9086 N.am      9 UNK        -0.4200 
     55 CA         20.3249  -34.2484  -42.3747 C.3       9 UNK         0.0839 
     56 C          20.1929  -35.7277  -42.8519 C.2       9 UNK         0.5513 
     57 N          21.2755  -36.3881  -43.2451 N.am      9 UNK        -0.7519 
     58 O          19.0954  -36.2778  -42.8990 O.2       9 UNK        -0.4960 
     59 C59        19.1964  -33.8241  -41.3876 C.3       10 UNK        -0.0876 
     60 S60        19.2693  -32.0609  -40.8992 S.3       10 UNK        -0.2414 
     61 C61        17.7472  -31.3707  -41.6454 C.3       10 UNK         0.0169 
     62 H62        17.8722  -23.8912  -40.7496 H         1 UNK         0.0903 
     63 H63        16.1209  -24.0959  -40.8235 H         1 UNK         0.0903 
     64 H64        17.1257  -25.3627  -40.1193 H         1 UNK         0.0903 
     65 H65        15.5034  -24.4666  -42.9201 H         1 UNK         0.3096 
     66 H66        15.2284  -25.2660  -44.9247 H         1 UNK         0.1121 
     67 H67        15.5223  -27.5328  -43.8084 H         1 UNK         0.0849 
     68 H68        17.1748  -27.5596  -44.3533 H         1 UNK         0.0849 
     69 H69        15.1412  -30.1615  -46.6468 H         1 UNK         0.0865 
     70 H70        14.5356  -29.6951  -45.0777 H         1 UNK         0.0865 
     71 H71        15.7500  -30.4123  -43.1641 H         1 UNK         0.1346 
     72 H72        19.8768  -31.5364  -43.4650 H         1 UNK         0.1412 
     73 H73        17.8064  -30.1046  -46.9155 H         1 UNK         0.1426 
     74 H74        19.9957  -31.4202  -47.0761 H         1 UNK         0.0716 
     75 H75        20.9103  -31.7511  -45.6277 H         1 UNK         0.0716 
     76 H76        22.5006  -29.6911  -44.3516 H         1 UNK         0.0695 
     77 H77        20.8459  -29.3790  -43.8939 H         1 UNK         0.0695 
     78 H78        22.8308  -27.3293  -44.9397 H         1 UNK         0.0983 
     79 H79        19.9868  -27.1866  -45.0142 H         1 UNK         0.3095 
     80 H80        19.8242  -23.6983  -45.6811 H         1 UNK         0.0454 
     81 H81        19.5743  -26.1537  -47.5241 H         1 UNK         0.0851 
     82 H82        20.7310  -24.8547  -47.7785 H         1 UNK         0.0851 
     83 H83        19.0187  -24.5182  -47.8763 H         1 UNK         0.0851 
     84 H84        18.6699  -25.7382  -44.2814 H         1 UNK         0.2976 
     85 H85        20.8137  -26.0723  -42.5658 H         1 UNK         0.3116 
     86 H86        21.6223  -27.1760  -40.1715 H         1 UNK         0.0646 
     87 H87        19.7214  -25.6849  -40.3060 H         1 UNK         0.0847 
     88 H88        20.7254  -24.3223  -40.8118 H         1 UNK         0.0847 
     89 H89        20.8503  -24.9667  -39.1799 H         1 UNK         0.0847 
     90 H90        23.6861  -25.2628  -42.1514 H         1 UNK         0.3040 
     91 H91        25.5468  -24.3506  -40.1459 H         1 UNK         0.1015 
     92 H92        27.0853  -24.1207  -42.1055 H         1 UNK         0.0786 
     93 H93        25.5156  -23.4149  -42.4518 H         1 UNK         0.0786 
     94 H94        25.9445  -24.9889  -43.1236 H         1 UNK         0.0786 
     95 H95        24.9646  -27.4467  -41.7112 H         1 UNK         0.3172 
     96 H96        27.2999  -28.7040  -40.3127 H         1 UNK         0.0595 
     97 H97        25.6616  -29.6883  -42.7144 H         1 UNK         0.0839 
     98 H98        26.9543  -30.5798  -41.9206 H         1 UNK         0.0839 
     99 H99        27.3148  -29.0824  -42.7639 H         1 UNK         0.0839 
    100 H100       23.8133  -28.9482  -41.0532 H         1 UNK         0.2998 
    101 H101       22.0499  -29.8369  -40.0923 H         1 UNK         0.0822 
    102 H102       22.7147  -28.3280  -38.1963 H         1 UNK         0.0787 
    103 H103       21.8323  -29.7395  -37.6428 H         1 UNK         0.0787 
    104 H104       23.5769  -29.6665  -37.4426 H         1 UNK         0.0787 
    105 H105       23.9746  -31.7113  -41.1859 H         1 UNK         0.3055 
    106 H106       24.0060  -34.1033  -39.5654 H         1 UNK         0.1106 
    107 H107       24.8571  -35.1749  -41.6568 H         1 UNK         0.0828 
    108 H108       25.7339  -33.7007  -41.2876 H         1 UNK         0.0828 
    109 H109       24.5212  -33.7081  -42.5663 H         1 UNK         0.0828 
    110 H110       22.0968  -33.0917  -42.4085 H         1 UNK         0.2931 
    111 H111       20.1724  -33.6872  -43.2941 H         1 UNK         0.0412 
    112 H112       22.1809  -35.9475  -43.2214 H         1 UNK         0.3472 
    113 H113       21.1850  -37.3408  -43.5621 H         1 UNK         0.3472 
    114 H114       18.2172  -34.0285  -41.8238 H         1 UNK         0.0970 
    115 H115       19.2494  -34.4267  -40.4794 H         1 UNK         0.0970 
    116 H116       17.5170  -30.4455  -41.1151 H         1 UNK         0.0612 
    117 H117       16.9156  -32.0486  -41.4477 H         1 UNK         0.0612 
@<TRIPOS>BOND
     1    1    2 1    
     2    1   62 1    
     3    1   63 1    
     4    1   64 1    
     5    2    3 2    
     6    2    4 am   BACKBONE|DICT|INTERRES
     7    4    5 1    
     8    4   65 1    
     9    5    6 1    
    10    5   25 1    
    11    5   66 1    
    12    6    7 1    
    13    6   67 1    
    14    6   68 1    
    15    7    8 1    
    16    8    9 1    
    17    8   69 1    
    18    8   70 1    
    19    9   10 ar   
    20    9   14 ar   
    21   10   11 ar   
    22   10   71 1    
    23   11   12 ar   
    24   11   61 1    
    25   12   13 ar   
    26   12   72 1    
    27   13   14 ar   
    28   13   15 1    
    29   14   73 1    
    30   15   16 1    
    31   15   74 1    
    32   15   75 1    
    33   16   17 1    
    34   17   18 1    
    35   17   76 1    
    36   17   77 1    
    37   18   19 1    
    38   18   27 1    
    39   18   78 1    
    40   19   20 am   BACKBONE|DICT|INTERRES
    41   19   79 1    
    42   20   21 2    
    43   20   22 1    
    44   22   23 1    
    45   22   24 1    
    46   22   80 1    
    47   23   81 1    
    48   23   82 1    
    49   23   83 1    
    50   24   25 am   BACKBONE|DICT|INTERRES
    51   24   84 1    
    52   25   26 2    
    53   27   28 2    
    54   27   29 am   BACKBONE|DICT|INTERRES
    55   29   30 1    
    56   29   85 1    
    57   30   31 1    
    58   30   32 1    
    59   30   86 1    
    60   31   87 1    
    61   31   88 1    
    62   31   89 1    
    63   32   33 2    
    64   32   34 am   BACKBONE|DICT|INTERRES
    65   34   35 1    
    66   34   90 1    
    67   35   36 1    
    68   35   37 1    
    69   35   91 1    
    70   36   92 1    
    71   36   93 1    
    72   36   94 1    
    73   37   38 2    
    74   37   39 am   BACKBONE|DICT|INTERRES
    75   39   40 1    
    76   39   95 1    
    77   40   41 1    
    78   40   42 1    
    79   40   96 1    
    80   41   97 1    
    81   41   98 1    
    82   41   99 1    
    83   42   43 2    
    84   42   44 am   BACKBONE|DICT|INTERRES
    85   44   45 1    
    86   44  100 1    
    87   45   46 1    
    88   45   47 1    
    89   45  101 1    
    90   46  102 1    
    91   46  103 1    
    92   46  104 1    
    93   47   48 2    
    94   47   49 am   BACKBONE|DICT|INTERRES
    95   49   50 1    
    96   49  105 1    
    97   50   51 1    
    98   50   52 1    
    99   50  106 1    
   100   51  107 1    
   101   51  108 1    
   102   51  109 1    
   103   52   53 2    
   104   52   54 am   BACKBONE|DICT|INTERRES
   105   54   55 1    
   106   54  110 1    
   107   55   56 1    
   108   55   59 1    
   109   55  111 1    
   110   56   57 am   BACKBONE|DICT|INTERRES
   111   56   58 2    
   112   57  112 1    
   113   57  113 1    
   114   59   60 1    
   115   59  114 1    
   116   59  115 1    
   117   60   61 1    
   118   61  116 1    
   119   61  117 1    
@<TRIPOS>SUBSTRUCTURE
     1 UNK         1 GROUP             0       ****    0 ROOT    
