@<TRIPOS>MOLECULE
3R8
117   119    1
SMALL
USER_CHARGES


@<TRIPOS>ATOM
      1 CA         18.1937  -25.5272  -50.0785 C.3       0 UNK        -0.2013 
      2 C          18.5804  -26.4418  -48.9258 C.2       0 UNK         0.4866 
      3 O          19.6640  -27.0255  -48.9460 O.2       0 UNK        -0.5176 
      4 N          17.6997  -26.5751  -47.9253 N.am      1 UNK        -0.4884 
      5 CA         17.9034  -27.4034  -46.7308 C.3       1 UNK         0.0853 
      6 C6         16.6137  -27.5067  -45.8779 C.3       10 UNK        -0.0849 
      7 S7         15.4360  -28.7552  -46.4862 S.3       10 UNK        -0.2776 
      8 C8         16.1227  -30.3151  -45.8103 C.3       10 UNK         0.0316 
      9 C9         16.4617  -30.3083  -44.3165 C.ar      10 UNK        -0.0863 
     10 C10        17.5547  -31.0585  -43.8670 C.ar      10 UNK        -0.1009 
     11 C11        17.8933  -31.0857  -42.5114 C.ar      10 UNK        -0.0712 
     12 C12        17.1351  -30.3490  -41.5993 C.ar      10 UNK        -0.0894 
     13 C13        16.0676  -29.5592  -42.0338 C.ar      10 UNK        -0.0745 
     14 C14        15.7109  -29.5763  -43.3859 C.ar      10 UNK        -0.0972 
     15 C15        15.3056  -28.6800  -41.0482 C.3       10 UNK         0.0209 
     16 S16        16.4030  -27.6330  -40.0263 S.3       10 UNK        -0.2568 
     17 C17        17.2154  -26.5547  -41.2596 C.3       10 UNK        -0.0983 
     18 CA         18.6763  -26.9831  -41.5718 C.3       3 UNK         0.0876 
     19 N          19.2006  -26.4026  -42.8102 N.am      3 UNK        -0.4424 
     20 C          19.3330  -25.1140  -43.1552 C.2       2 UNK         0.4918 
     21 O          19.0304  -24.1622  -42.4369 O.2       2 UNK        -0.4875 
     22 CA         19.8366  -24.8317  -44.5885 C.3       2 UNK         0.0481 
     23 CB         21.3577  -25.0433  -44.7099 C.3       2 UNK        -0.1831 
     24 N          19.0893  -25.5653  -45.6235 N.am      2 UNK        -0.4498 
     25 C          19.0358  -26.8915  -45.8236 C.2       1 UNK         0.5027 
     26 O          19.7529  -27.7062  -45.2424 O.2       1 UNK        -0.4969 
     27 C          19.6479  -26.7739  -40.3898 C.2       3 UNK         0.5005 
     28 O          19.8112  -25.6520  -39.9069 O.2       3 UNK        -0.5279 
     29 N          20.2749  -27.8754  -39.9472 N.am      4 UNK        -0.4463 
     30 CA         21.2070  -27.9845  -38.8149 C.3       4 UNK         0.0283 
     31 CB         20.5012  -27.6483  -37.4838 C.3       4 UNK        -0.1875 
     32 C          22.5304  -27.2123  -38.9958 C.2       4 UNK         0.4949 
     33 O          23.2006  -26.9110  -38.0075 O.2       4 UNK        -0.5039 
     34 N          22.9091  -26.9338  -40.2511 N.am      5 UNK        -0.4663 
     35 CA         24.1675  -26.2719  -40.6186 C.3       5 UNK         0.0242 
     36 CB         24.0249  -25.6959  -42.0365 C.3       5 UNK        -0.1982 
     37 C          25.3982  -27.1965  -40.5295 C.2       5 UNK         0.5017 
     38 O          26.5273  -26.7055  -40.5431 O.2       5 UNK        -0.5012 
     39 N          25.1572  -28.5076  -40.4460 N.am      6 UNK        -0.4439 
     40 CA         26.1189  -29.5970  -40.3310 C.3       6 UNK         0.0297 
     41 CB         26.8188  -29.8335  -41.6844 C.3       6 UNK        -0.2006 
     42 C          25.3341  -30.8375  -39.8829 C.2       6 UNK         0.4892 
     43 O          24.1012  -30.7870  -39.8352 O.2       6 UNK        -0.5089 
     44 N          26.0402  -31.9437  -39.6128 N.am      7 UNK        -0.4243 
     45 CA         25.4511  -33.2346  -39.2250 C.3       7 UNK         0.0196 
     46 CB         26.5750  -34.2274  -38.8871 C.3       7 UNK        -0.2007 
     47 C          24.5012  -33.8356  -40.2810 C.2       7 UNK         0.5020 
     48 O          23.5282  -34.4939  -39.9140 O.2       7 UNK        -0.5147 
     49 N          24.7877  -33.5740  -41.5630 N.am      8 UNK        -0.4734 
     50 CA         23.9417  -33.9251  -42.7100 C.3       8 UNK         0.0238 
     51 CB         24.8255  -34.5817  -43.7862 C.3       8 UNK        -0.1912 
     52 C          23.1935  -32.7016  -43.2790 C.2       8 UNK         0.5038 
     53 O          22.5882  -32.8130  -44.3453 O.2       8 UNK        -0.5046 
     54 N          23.2721  -31.5572  -42.5854 N.am      9 UNK        -0.4200 
     55 CA         22.7066  -30.2445  -42.9465 C.3       9 UNK         0.0839 
     56 C          23.3539  -29.5487  -44.1809 C.2       9 UNK         0.5513 
     57 N          24.3804  -30.1086  -44.8088 N.am      9 UNK        -0.7519 
     58 O          22.9538  -28.4475  -44.5423 O.2       9 UNK        -0.4960 
     59 C59        21.1532  -30.2337  -43.0003 C.3       10 UNK        -0.0876 
     60 S60        20.4212  -30.8165  -41.4323 S.3       10 UNK        -0.2414 
     61 C61        19.0820  -31.8979  -42.0206 C.3       10 UNK         0.0169 
     62 H62        18.1785  -26.0876  -51.0129 H         1 UNK         0.0903 
     63 H63        17.2094  -25.0819  -49.9346 H         1 UNK         0.0903 
     64 H64        18.9196  -24.7205  -50.1768 H         1 UNK         0.0903 
     65 H65        16.8123  -26.0947  -47.9813 H         1 UNK         0.3096 
     66 H66        18.1996  -28.4025  -47.0587 H         1 UNK         0.1121 
     67 H67        16.8381  -27.7257  -44.8341 H         1 UNK         0.0849 
     68 H68        16.0997  -26.5442  -45.8461 H         1 UNK         0.0849 
     69 H69        15.4064  -31.1162  -45.9962 H         1 UNK         0.0865 
     70 H70        17.0125  -30.5651  -46.3902 H         1 UNK         0.0865 
     71 H71        18.1445  -31.6263  -44.5738 H         1 UNK         0.1346 
     72 H72        17.4038  -30.3593  -40.5516 H         1 UNK         0.1412 
     73 H73        14.8665  -28.9894  -43.7206 H         1 UNK         0.1426 
     74 H74        14.7187  -29.3211  -40.3893 H         1 UNK         0.0716 
     75 H75        14.5936  -28.0373  -41.5684 H         1 UNK         0.0716 
     76 H76        17.1822  -25.5260  -40.8967 H         1 UNK         0.0695 
     77 H77        16.6206  -26.5674  -42.1743 H         1 UNK         0.0695 
     78 H78        18.6480  -28.0519  -41.7845 H         1 UNK         0.0983 
     79 H79        19.4846  -27.0744  -43.5197 H         1 UNK         0.3095 
     80 H80        19.6434  -23.7766  -44.7891 H         1 UNK         0.0454 
     81 H81        21.6568  -26.0585  -44.4493 H         1 UNK         0.0851 
     82 H82        21.8938  -24.3670  -44.0440 H         1 UNK         0.0851 
     83 H83        21.7065  -24.8430  -45.7227 H         1 UNK         0.0851 
     84 H84        18.4375  -25.0027  -46.1530 H         1 UNK         0.2976 
     85 H85        20.0875  -28.7535  -40.4174 H         1 UNK         0.3116 
     86 H86        21.4911  -29.0373  -38.7715 H         1 UNK         0.0646 
     87 H87        20.2506  -26.5894  -37.4143 H         1 UNK         0.0847 
     88 H88        21.1376  -27.8865  -36.6308 H         1 UNK         0.0847 
     89 H89        19.5803  -28.2195  -37.3671 H         1 UNK         0.0847 
     90 H90        22.2908  -27.1943  -41.0047 H         1 UNK         0.3040 
     91 H91        24.3383  -25.4426  -39.9282 H         1 UNK         0.1015 
     92 H92        23.8355  -26.4761  -42.7746 H         1 UNK         0.0786 
     93 H93        24.9330  -25.1735  -42.3406 H         1 UNK         0.0786 
     94 H94        23.2080  -24.9763  -42.0868 H         1 UNK         0.0786 
     95 H95        24.1976  -28.8208  -40.3590 H         1 UNK         0.3172 
     96 H96        26.8537  -29.3496  -39.5625 H         1 UNK         0.0595 
     97 H97        27.5517  -30.6382  -41.6201 H         1 UNK         0.0839 
     98 H98        27.3553  -28.9446  -42.0164 H         1 UNK         0.0839 
     99 H99        26.1065  -30.0995  -42.4656 H         1 UNK         0.0839 
    100 H100       27.0481  -31.9056  -39.6725 H         1 UNK         0.2998 
    101 H101       24.8615  -33.0660  -38.3211 H         1 UNK         0.0822 
    102 H102       26.1651  -35.1884  -38.5724 H         1 UNK         0.0787 
    103 H103       27.2213  -34.4147  -39.7456 H         1 UNK         0.0787 
    104 H104       27.1973  -33.8608  -38.0704 H         1 UNK         0.0787 
    105 H105       25.6234  -33.0429  -41.7634 H         1 UNK         0.3055 
    106 H106       23.1779  -34.6466  -42.4108 H         1 UNK         0.1106 
    107 H107       24.2297  -34.9115  -44.6385 H         1 UNK         0.0828 
    108 H108       25.5829  -33.8940  -44.1643 H         1 UNK         0.0828 
    109 H109       25.3369  -35.4613  -43.3950 H         1 UNK         0.0828 
    110 H110       23.7269  -31.5811  -41.6810 H         1 UNK         0.2931 
    111 H111       22.9877  -29.5981  -42.1151 H         1 UNK         0.0412 
    112 H112       24.7112  -31.0199  -44.5398 H         1 UNK         0.3472 
    113 H113       24.7954  -29.6298  -45.5923 H         1 UNK         0.3472 
    114 H114       20.7974  -30.8427  -43.8326 H         1 UNK         0.0970 
    115 H115       20.7792  -29.2262  -43.1873 H         1 UNK         0.0970 
    116 H116       19.4593  -32.5650  -42.7974 H         1 UNK         0.0612 
    117 H117       18.7605  -32.5367  -41.1969 H         1 UNK         0.0612 
@<TRIPOS>BOND
     1    1    2 1    
     2    1   62 1    
     3    1   63 1    
     4    1   64 1    
     5    2    3 2    
     6    2    4 am   BACKBONE|DICT|INTERRES
     7    4    5 1    
     8    4   65 1    
     9    5    6 1    
    10    5   25 1    
    11    5   66 1    
    12    6    7 1    
    13    6   67 1    
    14    6   68 1    
    15    7    8 1    
    16    8    9 1    
    17    8   69 1    
    18    8   70 1    
    19    9   10 ar   
    20    9   14 ar   
    21   10   11 ar   
    22   10   71 1    
    23   11   12 ar   
    24   11   61 1    
    25   12   13 ar   
    26   12   72 1    
    27   13   14 ar   
    28   13   15 1    
    29   14   73 1    
    30   15   16 1    
    31   15   74 1    
    32   15   75 1    
    33   16   17 1    
    34   17   18 1    
    35   17   76 1    
    36   17   77 1    
    37   18   19 1    
    38   18   27 1    
    39   18   78 1    
    40   19   20 am   BACKBONE|DICT|INTERRES
    41   19   79 1    
    42   20   21 2    
    43   20   22 1    
    44   22   23 1    
    45   22   24 1    
    46   22   80 1    
    47   23   81 1    
    48   23   82 1    
    49   23   83 1    
    50   24   25 am   BACKBONE|DICT|INTERRES
    51   24   84 1    
    52   25   26 2    
    53   27   28 2    
    54   27   29 am   BACKBONE|DICT|INTERRES
    55   29   30 1    
    56   29   85 1    
    57   30   31 1    
    58   30   32 1    
    59   30   86 1    
    60   31   87 1    
    61   31   88 1    
    62   31   89 1    
    63   32   33 2    
    64   32   34 am   BACKBONE|DICT|INTERRES
    65   34   35 1    
    66   34   90 1    
    67   35   36 1    
    68   35   37 1    
    69   35   91 1    
    70   36   92 1    
    71   36   93 1    
    72   36   94 1    
    73   37   38 2    
    74   37   39 am   BACKBONE|DICT|INTERRES
    75   39   40 1    
    76   39   95 1    
    77   40   41 1    
    78   40   42 1    
    79   40   96 1    
    80   41   97 1    
    81   41   98 1    
    82   41   99 1    
    83   42   43 2    
    84   42   44 am   BACKBONE|DICT|INTERRES
    85   44   45 1    
    86   44  100 1    
    87   45   46 1    
    88   45   47 1    
    89   45  101 1    
    90   46  102 1    
    91   46  103 1    
    92   46  104 1    
    93   47   48 2    
    94   47   49 am   BACKBONE|DICT|INTERRES
    95   49   50 1    
    96   49  105 1    
    97   50   51 1    
    98   50   52 1    
    99   50  106 1    
   100   51  107 1    
   101   51  108 1    
   102   51  109 1    
   103   52   53 2    
   104   52   54 am   BACKBONE|DICT|INTERRES
   105   54   55 1    
   106   54  110 1    
   107   55   56 1    
   108   55   59 1    
   109   55  111 1    
   110   56   57 am   BACKBONE|DICT|INTERRES
   111   56   58 2    
   112   57  112 1    
   113   57  113 1    
   114   59   60 1    
   115   59  114 1    
   116   59  115 1    
   117   60   61 1    
   118   61  116 1    
   119   61  117 1    
@<TRIPOS>SUBSTRUCTURE
     1 UNK         1 GROUP             0       ****    0 ROOT    
