@<TRIPOS>MOLECULE
3R8
117   119    1
SMALL
USER_CHARGES


@<TRIPOS>ATOM
      1 CA         15.3945  -22.5876  -41.1345 C.3       0 UNK        -0.2013 
      2 C          15.9674  -23.0060  -42.4803 C.2       0 UNK         0.4866 
      3 O          16.3537  -22.1489  -43.2757 O.2       0 UNK        -0.5176 
      4 N          16.0170  -24.3167  -42.7456 N.am      1 UNK        -0.4884 
      5 CA         16.6045  -24.9144  -43.9473 C.3       1 UNK         0.0853 
      6 C6         16.1478  -26.3835  -44.1569 C.3       10 UNK        -0.0849 
      7 S7         16.1692  -27.4222  -42.6485 S.3       10 UNK        -0.2776 
      8 C8         15.6372  -29.0433  -43.2893 C.3       10 UNK         0.0316 
      9 C9         16.7765  -29.7838  -43.9756 C.ar      10 UNK        -0.0863 
     10 C10        17.5598  -30.7019  -43.2684 C.ar      10 UNK        -0.1009 
     11 C11        18.6111  -31.3812  -43.8956 C.ar      10 UNK        -0.0712 
     12 C12        18.8791  -31.1212  -45.2466 C.ar      10 UNK        -0.0894 
     13 C13        18.1027  -30.2055  -45.9614 C.ar      10 UNK        -0.0745 
     14 C14        17.0401  -29.5605  -45.3272 C.ar      10 UNK        -0.0972 
     15 C15        18.3881  -29.9122  -47.4242 C.3       10 UNK         0.0209 
     16 S16        18.9427  -28.1938  -47.6571 S.3       10 UNK        -0.2568 
     17 C17        20.7338  -28.3030  -47.3110 C.3       10 UNK        -0.0983 
     18 CA         21.2364  -27.5011  -46.0763 C.3       3 UNK         0.0876 
     19 N          20.5358  -26.2244  -45.8934 N.am      3 UNK        -0.4424 
     20 C          21.0219  -25.1725  -45.2233 C.2       2 UNK         0.4918 
     21 O          22.1117  -25.1751  -44.6532 O.2       2 UNK        -0.4875 
     22 CA         20.1342  -23.9197  -45.1543 C.3       2 UNK         0.0481 
     23 CB         20.3645  -23.0319  -46.3873 C.3       2 UNK        -0.1831 
     24 N          18.7040  -24.2188  -45.0233 N.am      2 UNK        -0.4498 
     25 C          18.1420  -24.7708  -43.9376 C.2       1 UNK         0.5027 
     26 O          18.7866  -25.1531  -42.9589 O.2       1 UNK        -0.4969 
     27 C          21.3593  -28.3493  -44.7893 C.2       3 UNK         0.5005 
     28 O          22.1414  -29.3005  -44.7859 O.2       3 UNK        -0.5279 
     29 N          20.6671  -27.9657  -43.7040 N.am      4 UNK        -0.4463 
     30 CA         20.8448  -28.5436  -42.3681 C.3       4 UNK         0.0283 
     31 CB         19.6353  -28.1995  -41.4885 C.3       4 UNK        -0.1875 
     32 C          22.1411  -28.0930  -41.6699 C.2       4 UNK         0.4949 
     33 O          22.5196  -28.7116  -40.6728 O.2       4 UNK        -0.5039 
     34 N          22.8169  -27.0493  -42.1801 N.am      5 UNK        -0.4663 
     35 CA         24.0739  -26.4933  -41.6546 C.3       5 UNK         0.0242 
     36 CB         24.2728  -25.0741  -42.2171 C.3       5 UNK        -0.1982 
     37 C          25.3000  -27.4026  -41.8994 C.2       5 UNK         0.5017 
     38 O          26.3360  -26.9451  -42.3847 O.2       5 UNK        -0.5012 
     39 N          25.1493  -28.6791  -41.5462 N.am      6 UNK        -0.4439 
     40 CA         26.1320  -29.7511  -41.6133 C.3       6 UNK         0.0297 
     41 CB         26.1411  -30.3706  -43.0249 C.3       6 UNK        -0.2006 
     42 C          25.7839  -30.7573  -40.5081 C.2       6 UNK         0.4892 
     43 O          25.5244  -31.9259  -40.7966 O.2       6 UNK        -0.5089 
     44 N          25.7181  -30.2544  -39.2643 N.am      7 UNK        -0.4243 
     45 CA         25.3695  -30.9729  -38.0294 C.3       7 UNK         0.0196 
     46 CB         26.5003  -31.9497  -37.6409 C.3       7 UNK        -0.2007 
     47 C          23.9878  -31.6561  -38.0936 C.2       7 UNK         0.5020 
     48 O          23.8555  -32.8165  -37.7001 O.2       7 UNK        -0.5147 
     49 N          22.9910  -30.9378  -38.6371 N.am      8 UNK        -0.4734 
     50 CA         21.6142  -31.3916  -38.8932 C.3       8 UNK         0.0238 
     51 CB         20.8570  -31.6187  -37.5673 C.3       8 UNK        -0.1912 
     52 C          21.5356  -32.6075  -39.8403 C.2       8 UNK         0.5038 
     53 O          20.5957  -33.3981  -39.7419 O.2       8 UNK        -0.5046 
     54 N          22.5331  -32.7339  -40.7262 N.am      9 UNK        -0.4200 
     55 CA         22.7642  -33.8625  -41.6399 C.3       9 UNK         0.0839 
     56 C          23.2250  -35.1717  -40.9284 C.2       9 UNK         0.5513 
     57 N          23.6288  -35.1424  -39.6628 N.am      9 UNK        -0.7519 
     58 O          23.2447  -36.2359  -41.5422 O.2       9 UNK        -0.4960 
     59 C59        21.6044  -34.1055  -42.6488 C.3       10 UNK        -0.0876 
     60 S60        21.1405  -32.6144  -43.5971 S.3       10 UNK        -0.2414 
     61 C61        19.3927  -32.4297  -43.1049 C.3       10 UNK         0.0169 
     62 H62        16.1404  -22.0331  -40.5656 H         1 UNK         0.0903 
     63 H63        14.5276  -21.9434  -41.2794 H         1 UNK         0.0903 
     64 H64        15.0834  -23.4460  -40.5393 H         1 UNK         0.0903 
     65 H65        15.7210  -24.9851  -42.0471 H         1 UNK         0.3096 
     66 H66        16.2301  -24.3427  -44.7999 H         1 UNK         0.1121 
     67 H67        15.1253  -26.3858  -44.5378 H         1 UNK         0.0849 
     68 H68        16.7519  -26.8530  -44.9331 H         1 UNK         0.0849 
     69 H69        15.2576  -29.6394  -42.4581 H         1 UNK         0.0865 
     70 H70        14.7976  -28.9145  -43.9743 H         1 UNK         0.0865 
     71 H71        17.3448  -30.8930  -42.2257 H         1 UNK         0.1346 
     72 H72        19.6854  -31.6368  -45.7487 H         1 UNK         0.1412 
     73 H73        16.4274  -28.8706  -45.8905 H         1 UNK         0.1426 
     74 H74        17.4729  -30.0641  -47.9982 H         1 UNK         0.0716 
     75 H75        19.1234  -30.6049  -47.8362 H         1 UNK         0.0716 
     76 H76        21.0433  -29.3486  -47.2606 H         1 UNK         0.0695 
     77 H77        21.2313  -27.9107  -48.1993 H         1 UNK         0.0695 
     78 H78        22.2733  -27.2404  -46.3031 H         1 UNK         0.0983 
     79 H79        19.6282  -26.1574  -46.3317 H         1 UNK         0.3095 
     80 H80        20.4371  -23.3523  -44.2716 H         1 UNK         0.0454 
     81 H81        21.4203  -22.7780  -46.4928 H         1 UNK         0.0851 
     82 H82        20.0557  -23.5270  -47.3088 H         1 UNK         0.0851 
     83 H83        19.8155  -22.0934  -46.3092 H         1 UNK         0.0851 
     84 H84        18.1103  -23.9206  -45.7845 H         1 UNK         0.2976 
     85 H85        20.0514  -27.1666  -43.7739 H         1 UNK         0.3116 
     86 H86        20.8897  -29.6303  -42.4677 H         1 UNK         0.0646 
     87 H87        19.7211  -28.6595  -40.5035 H         1 UNK         0.0847 
     88 H88        18.7120  -28.5643  -41.9316 H         1 UNK         0.0847 
     89 H89        19.5345  -27.1246  -41.3375 H         1 UNK         0.0847 
     90 H90        22.4531  -26.6027  -43.0137 H         1 UNK         0.3040 
     91 H91        23.9689  -26.4016  -40.5713 H         1 UNK         0.1015 
     92 H92        25.1370  -24.5891  -41.7612 H         1 UNK         0.0786 
     93 H93        23.4068  -24.4417  -42.0204 H         1 UNK         0.0786 
     94 H94        24.4392  -25.0891  -43.2949 H         1 UNK         0.0786 
     95 H95        24.2411  -28.9305  -41.1580 H         1 UNK         0.3172 
     96 H96        27.1246  -29.3520  -41.3946 H         1 UNK         0.0595 
     97 H97        26.4211  -29.6352  -43.7792 H         1 UNK         0.0839 
     98 H98        25.1622  -30.7695  -43.2951 H         1 UNK         0.0839 
     99 H99        26.8587  -31.1894  -43.0880 H         1 UNK         0.0839 
    100 H100       25.9245  -29.2712  -39.1499 H         1 UNK         0.2998 
    101 H101       25.2980  -30.2216  -37.2414 H         1 UNK         0.0822 
    102 H102       27.4599  -31.4379  -37.5689 H         1 UNK         0.0787 
    103 H103       26.3058  -32.4087  -36.6707 H         1 UNK         0.0787 
    104 H104       26.6042  -32.7567  -38.3674 H         1 UNK         0.0787 
    105 H105       23.1962  -30.0046  -38.9751 H         1 UNK         0.3055 
    106 H106       21.1125  -30.5783  -39.4191 H         1 UNK         0.1106 
    107 H107       21.2544  -32.4704  -37.0144 H         1 UNK         0.0828 
    108 H108       20.9148  -30.7423  -36.9221 H         1 UNK         0.0828 
    109 H109       19.7996  -31.8153  -37.7487 H         1 UNK         0.0828 
    110 H110       23.2934  -32.0683  -40.6853 H         1 UNK         0.2931 
    111 H111       23.6304  -33.5597  -42.2293 H         1 UNK         0.0412 
    112 H112       23.6383  -34.2770  -39.1344 H         1 UNK         0.3472 
    113 H113       23.9327  -35.9974  -39.2251 H         1 UNK         0.3472 
    114 H114       20.7320  -34.5100  -42.1338 H         1 UNK         0.0970 
    115 H115       21.8940  -34.8667  -43.3752 H         1 UNK         0.0970 
    116 H116       18.8867  -33.3879  -43.2282 H         1 UNK         0.0612 
    117 H117       19.3634  -32.1929  -42.0404 H         1 UNK         0.0612 
@<TRIPOS>BOND
     1    1    2 1    
     2    1   62 1    
     3    1   63 1    
     4    1   64 1    
     5    2    3 2    
     6    2    4 am   BACKBONE|DICT|INTERRES
     7    4    5 1    
     8    4   65 1    
     9    5    6 1    
    10    5   25 1    
    11    5   66 1    
    12    6    7 1    
    13    6   67 1    
    14    6   68 1    
    15    7    8 1    
    16    8    9 1    
    17    8   69 1    
    18    8   70 1    
    19    9   10 ar   
    20    9   14 ar   
    21   10   11 ar   
    22   10   71 1    
    23   11   12 ar   
    24   11   61 1    
    25   12   13 ar   
    26   12   72 1    
    27   13   14 ar   
    28   13   15 1    
    29   14   73 1    
    30   15   16 1    
    31   15   74 1    
    32   15   75 1    
    33   16   17 1    
    34   17   18 1    
    35   17   76 1    
    36   17   77 1    
    37   18   19 1    
    38   18   27 1    
    39   18   78 1    
    40   19   20 am   BACKBONE|DICT|INTERRES
    41   19   79 1    
    42   20   21 2    
    43   20   22 1    
    44   22   23 1    
    45   22   24 1    
    46   22   80 1    
    47   23   81 1    
    48   23   82 1    
    49   23   83 1    
    50   24   25 am   BACKBONE|DICT|INTERRES
    51   24   84 1    
    52   25   26 2    
    53   27   28 2    
    54   27   29 am   BACKBONE|DICT|INTERRES
    55   29   30 1    
    56   29   85 1    
    57   30   31 1    
    58   30   32 1    
    59   30   86 1    
    60   31   87 1    
    61   31   88 1    
    62   31   89 1    
    63   32   33 2    
    64   32   34 am   BACKBONE|DICT|INTERRES
    65   34   35 1    
    66   34   90 1    
    67   35   36 1    
    68   35   37 1    
    69   35   91 1    
    70   36   92 1    
    71   36   93 1    
    72   36   94 1    
    73   37   38 2    
    74   37   39 am   BACKBONE|DICT|INTERRES
    75   39   40 1    
    76   39   95 1    
    77   40   41 1    
    78   40   42 1    
    79   40   96 1    
    80   41   97 1    
    81   41   98 1    
    82   41   99 1    
    83   42   43 2    
    84   42   44 am   BACKBONE|DICT|INTERRES
    85   44   45 1    
    86   44  100 1    
    87   45   46 1    
    88   45   47 1    
    89   45  101 1    
    90   46  102 1    
    91   46  103 1    
    92   46  104 1    
    93   47   48 2    
    94   47   49 am   BACKBONE|DICT|INTERRES
    95   49   50 1    
    96   49  105 1    
    97   50   51 1    
    98   50   52 1    
    99   50  106 1    
   100   51  107 1    
   101   51  108 1    
   102   51  109 1    
   103   52   53 2    
   104   52   54 am   BACKBONE|DICT|INTERRES
   105   54   55 1    
   106   54  110 1    
   107   55   56 1    
   108   55   59 1    
   109   55  111 1    
   110   56   57 am   BACKBONE|DICT|INTERRES
   111   56   58 2    
   112   57  112 1    
   113   57  113 1    
   114   59   60 1    
   115   59  114 1    
   116   59  115 1    
   117   60   61 1    
   118   61  116 1    
   119   61  117 1    
@<TRIPOS>SUBSTRUCTURE
     1 UNK         1 GROUP             0       ****    0 ROOT    
