@<TRIPOS>MOLECULE
3R8
117   119    1
SMALL
USER_CHARGES


@<TRIPOS>ATOM
      1 CA         13.8286  -27.3013  -43.4125 C.3       0 UNK        -0.2013 
      2 C          15.1903  -26.7844  -42.9728 C.2       0 UNK         0.4866 
      3 O          15.2736  -25.6941  -42.4077 O.2       0 UNK        -0.5176 
      4 N          16.2513  -27.5625  -43.2302 N.am      1 UNK        -0.4884 
      5 CA         17.6519  -27.2587  -42.9073 C.3       1 UNK         0.0853 
      6 C6         17.9282  -27.2284  -41.3779 C.3       10 UNK        -0.0849 
      7 S7         19.6865  -27.4971  -40.9546 S.3       10 UNK        -0.2776 
      8 C8         19.7685  -29.3077  -40.7720 C.3       10 UNK         0.0316 
      9 C9         19.6471  -30.0109  -42.1160 C.ar      10 UNK        -0.0863 
     10 C10        18.4930  -30.7258  -42.4473 C.ar      10 UNK        -0.1009 
     11 C11        18.3853  -31.3574  -43.6906 C.ar      10 UNK        -0.0712 
     12 C12        19.4273  -31.2410  -44.6166 C.ar      10 UNK        -0.0894 
     13 C13        20.5924  -30.5395  -44.2917 C.ar      10 UNK        -0.0745 
     14 C14        20.6988  -29.9419  -43.0326 C.ar      10 UNK        -0.0972 
     15 C15        21.7474  -30.4718  -45.2839 C.3       10 UNK         0.0209 
     16 S16        21.6740  -28.9922  -46.3480 S.3       10 UNK        -0.2568 
     17 C17        22.4708  -27.7390  -45.2869 C.3       10 UNK        -0.0983 
     18 CA         22.0726  -26.2784  -45.6160 C.3       3 UNK         0.0876 
     19 N          20.6190  -26.1127  -45.6965 N.am      3 UNK        -0.4424 
     20 C          19.9679  -25.0029  -46.0732 C.2       2 UNK         0.4918 
     21 O          20.5250  -23.9858  -46.4860 O.2       2 UNK        -0.4875 
     22 CA         18.4301  -25.0249  -45.9520 C.3       2 UNK         0.0481 
     23 CB         17.7872  -25.2659  -47.3268 C.3       2 UNK        -0.1831 
     24 N          17.9257  -26.0242  -45.0013 N.am      2 UNK        -0.4498 
     25 C          18.1766  -26.0302  -43.6824 C.2       1 UNK         0.5027 
     26 O          18.8155  -25.1448  -43.1108 O.2       1 UNK        -0.4969 
     27 C          22.7133  -25.3346  -44.5742 C.2       3 UNK         0.5005 
     28 O          23.8265  -24.8553  -44.7972 O.2       3 UNK        -0.5279 
     29 N          22.0006  -25.1041  -43.4580 N.am      4 UNK        -0.4463 
     30 CA         22.3513  -24.3025  -42.2791 C.3       4 UNK         0.0283 
     31 CB         22.5063  -22.8113  -42.6382 C.3       4 UNK        -0.1875 
     32 C          23.5678  -24.8260  -41.4933 C.2       4 UNK         0.4949 
     33 O          23.4264  -25.1856  -40.3248 O.2       4 UNK        -0.5039 
     34 N          24.7379  -24.8545  -42.1377 N.am      5 UNK        -0.4663 
     35 CA         26.0153  -25.2830  -41.5715 C.3       5 UNK         0.0242 
     36 CB         27.1142  -24.3160  -42.0512 C.3       5 UNK        -0.1982 
     37 C          26.2925  -26.7398  -41.9725 C.2       5 UNK         0.5017 
     38 O          27.1826  -26.9996  -42.7849 O.2       5 UNK        -0.5012 
     39 N          25.5039  -27.6642  -41.4162 N.am      6 UNK        -0.4439 
     40 CA         25.5827  -29.1034  -41.6541 C.3       6 UNK         0.0297 
     41 CB         24.9211  -29.4474  -43.0029 C.3       6 UNK        -0.2006 
     42 C          24.9074  -29.8470  -40.4936 C.2       6 UNK         0.4892 
     43 O          24.2995  -29.2121  -39.6267 O.2       6 UNK        -0.5089 
     44 N          25.0238  -31.1815  -40.5083 N.am      7 UNK        -0.4243 
     45 CA         24.3406  -32.0998  -39.5921 C.3       7 UNK         0.0196 
     46 CB         24.9194  -33.5117  -39.7863 C.3       7 UNK        -0.2007 
     47 C          22.8162  -32.1091  -39.8099 C.2       7 UNK         0.5020 
     48 O          22.3419  -31.6827  -40.8641 O.2       7 UNK        -0.5147 
     49 N          22.0768  -32.6150  -38.8144 N.am      8 UNK        -0.4734 
     50 CA         20.6103  -32.6736  -38.7689 C.3       8 UNK         0.0238 
     51 CB         20.1724  -32.9249  -37.3134 C.3       8 UNK        -0.1912 
     52 C          19.9934  -33.6906  -39.7544 C.2       8 UNK         0.5038 
     53 O          19.3531  -34.6542  -39.3283 O.2       8 UNK        -0.5046 
     54 N          20.1825  -33.4370  -41.0527 N.am      9 UNK        -0.4200 
     55 CA         19.6848  -34.2180  -42.1919 C.3       9 UNK         0.0839 
     56 C          20.3284  -35.6313  -42.3185 C.2       9 UNK         0.5513 
     57 N          19.7888  -36.4914  -43.1718 N.am      9 UNK        -0.7519 
     58 O          21.3381  -35.9461  -41.6910 O.2       9 UNK        -0.4960 
     59 C59        18.1250  -34.2099  -42.2742 C.3       10 UNK        -0.0876 
     60 S60        17.5227  -33.9825  -43.9840 S.3       10 UNK        -0.2414 
     61 C61        17.1575  -32.1946  -44.0213 C.3       10 UNK         0.0169 
     62 H62        13.8959  -28.2785  -43.8905 H         1 UNK         0.0903 
     63 H63        13.1660  -27.3906  -42.5520 H         1 UNK         0.0903 
     64 H64        13.3753  -26.6082  -44.1208 H         1 UNK         0.0903 
     65 H65        16.1015  -28.4471  -43.6965 H         1 UNK         0.3096 
     66 H66        18.2136  -28.0940  -43.3230 H         1 UNK         0.1121 
     67 H67        17.6023  -26.2806  -40.9455 H         1 UNK         0.0849 
     68 H68        17.3378  -27.9969  -40.8769 H         1 UNK         0.0849 
     69 H69        18.9980  -29.6448  -40.0771 H         1 UNK         0.0865 
     70 H70        20.7262  -29.5662  -40.3179 H         1 UNK         0.0865 
     71 H71        17.6843  -30.8012  -41.7334 H         1 UNK         0.1346 
     72 H72        19.3428  -31.7278  -45.5787 H         1 UNK         0.1412 
     73 H73        21.6006  -29.4216  -42.7488 H         1 UNK         0.1426 
     74 H74        21.7310  -31.3558  -45.9232 H         1 UNK         0.0716 
     75 H75        22.7024  -30.5044  -44.7584 H         1 UNK         0.0716 
     76 H76        23.5518  -27.8642  -45.3745 H         1 UNK         0.0695 
     77 H77        22.2227  -27.9577  -44.2501 H         1 UNK         0.0695 
     78 H78        22.4851  -26.0185  -46.5932 H         1 UNK         0.0983 
     79 H79        20.0731  -26.9187  -45.4323 H         1 UNK         0.3095 
     80 H80        18.1171  -24.0413  -45.5958 H         1 UNK         0.0454 
     81 H81        18.0488  -26.2451  -47.7301 H         1 UNK         0.0851 
     82 H82        18.1187  -24.5182  -48.0488 H         1 UNK         0.0851 
     83 H83        16.7003  -25.2017  -47.2749 H         1 UNK         0.0851 
     84 H84        17.3705  -26.7752  -45.3864 H         1 UNK         0.2976 
     85 H85        21.0849  -25.5329  -43.4011 H         1 UNK         0.3116 
     86 H86        21.4919  -24.3840  -41.6110 H         1 UNK         0.0646 
     87 H87        22.6994  -22.2148  -41.7457 H         1 UNK         0.0847 
     88 H88        21.5981  -22.4215  -43.0979 H         1 UNK         0.0847 
     89 H89        23.3309  -22.6355  -43.3293 H         1 UNK         0.0847 
     90 H90        24.7197  -24.6515  -43.1348 H         1 UNK         0.3040 
     91 H91        25.9839  -25.2382  -40.4803 H         1 UNK         0.1015 
     92 H92        26.9184  -23.2979  -41.7142 H         1 UNK         0.0786 
     93 H93        27.1927  -24.2979  -43.1391 H         1 UNK         0.0786 
     94 H94        28.0891  -24.6055  -41.6566 H         1 UNK         0.0786 
     95 H95        24.8113  -27.3905  -40.7268 H         1 UNK         0.3172 
     96 H96        26.6326  -29.4034  -41.6751 H         1 UNK         0.0595 
     97 H97        23.8710  -29.1621  -43.0052 H         1 UNK         0.0839 
     98 H98        24.9698  -30.5157  -43.2152 H         1 UNK         0.0839 
     99 H99        25.4089  -28.9354  -43.8324 H         1 UNK         0.0839 
    100 H100       25.5232  -31.6094  -41.2738 H         1 UNK         0.2998 
    101 H101       24.5397  -31.7697  -38.5702 H         1 UNK         0.0822 
    102 H102       25.9959  -33.5274  -39.6144 H         1 UNK         0.0787 
    103 H103       24.4733  -34.2216  -39.0886 H         1 UNK         0.0787 
    104 H104       24.7338  -33.8876  -40.7936 H         1 UNK         0.0787 
    105 H105       22.5569  -32.9830  -38.0054 H         1 UNK         0.3055 
    106 H106       20.2267  -31.6932  -39.0568 H         1 UNK         0.1106 
    107 H107       19.0848  -32.9348  -37.2280 H         1 UNK         0.0828 
    108 H108       20.5370  -33.8831  -36.9410 H         1 UNK         0.0828 
    109 H109       20.5381  -32.1434  -36.6469 H         1 UNK         0.0828 
    110 H110       20.8055  -32.6668  -41.2844 H         1 UNK         0.2931 
    111 H111       20.0782  -33.6685  -43.0474 H         1 UNK         0.0412 
    112 H112       18.9787  -36.2313  -43.7146 H         1 UNK         0.3472 
    113 H113       20.2008  -37.4049  -43.2822 H         1 UNK         0.3472 
    114 H114       17.7066  -33.4099  -41.6625 H         1 UNK         0.0970 
    115 H115       17.7007  -35.1259  -41.8590 H         1 UNK         0.0970 
    116 H116       16.3429  -31.9809  -43.3275 H         1 UNK         0.0612 
    117 H117       16.7932  -31.9281  -45.0144 H         1 UNK         0.0612 
@<TRIPOS>BOND
     1    1    2 1    
     2    1   62 1    
     3    1   63 1    
     4    1   64 1    
     5    2    3 2    
     6    2    4 am   BACKBONE|DICT|INTERRES
     7    4    5 1    
     8    4   65 1    
     9    5    6 1    
    10    5   25 1    
    11    5   66 1    
    12    6    7 1    
    13    6   67 1    
    14    6   68 1    
    15    7    8 1    
    16    8    9 1    
    17    8   69 1    
    18    8   70 1    
    19    9   10 ar   
    20    9   14 ar   
    21   10   11 ar   
    22   10   71 1    
    23   11   12 ar   
    24   11   61 1    
    25   12   13 ar   
    26   12   72 1    
    27   13   14 ar   
    28   13   15 1    
    29   14   73 1    
    30   15   16 1    
    31   15   74 1    
    32   15   75 1    
    33   16   17 1    
    34   17   18 1    
    35   17   76 1    
    36   17   77 1    
    37   18   19 1    
    38   18   27 1    
    39   18   78 1    
    40   19   20 am   BACKBONE|DICT|INTERRES
    41   19   79 1    
    42   20   21 2    
    43   20   22 1    
    44   22   23 1    
    45   22   24 1    
    46   22   80 1    
    47   23   81 1    
    48   23   82 1    
    49   23   83 1    
    50   24   25 am   BACKBONE|DICT|INTERRES
    51   24   84 1    
    52   25   26 2    
    53   27   28 2    
    54   27   29 am   BACKBONE|DICT|INTERRES
    55   29   30 1    
    56   29   85 1    
    57   30   31 1    
    58   30   32 1    
    59   30   86 1    
    60   31   87 1    
    61   31   88 1    
    62   31   89 1    
    63   32   33 2    
    64   32   34 am   BACKBONE|DICT|INTERRES
    65   34   35 1    
    66   34   90 1    
    67   35   36 1    
    68   35   37 1    
    69   35   91 1    
    70   36   92 1    
    71   36   93 1    
    72   36   94 1    
    73   37   38 2    
    74   37   39 am   BACKBONE|DICT|INTERRES
    75   39   40 1    
    76   39   95 1    
    77   40   41 1    
    78   40   42 1    
    79   40   96 1    
    80   41   97 1    
    81   41   98 1    
    82   41   99 1    
    83   42   43 2    
    84   42   44 am   BACKBONE|DICT|INTERRES
    85   44   45 1    
    86   44  100 1    
    87   45   46 1    
    88   45   47 1    
    89   45  101 1    
    90   46  102 1    
    91   46  103 1    
    92   46  104 1    
    93   47   48 2    
    94   47   49 am   BACKBONE|DICT|INTERRES
    95   49   50 1    
    96   49  105 1    
    97   50   51 1    
    98   50   52 1    
    99   50  106 1    
   100   51  107 1    
   101   51  108 1    
   102   51  109 1    
   103   52   53 2    
   104   52   54 am   BACKBONE|DICT|INTERRES
   105   54   55 1    
   106   54  110 1    
   107   55   56 1    
   108   55   59 1    
   109   55  111 1    
   110   56   57 am   BACKBONE|DICT|INTERRES
   111   56   58 2    
   112   57  112 1    
   113   57  113 1    
   114   59   60 1    
   115   59  114 1    
   116   59  115 1    
   117   60   61 1    
   118   61  116 1    
   119   61  117 1    
@<TRIPOS>SUBSTRUCTURE
     1 UNK         1 GROUP             0       ****    0 ROOT    
