@<TRIPOS>MOLECULE
3R8
117   119    1
SMALL
USER_CHARGES


@<TRIPOS>ATOM
      1 CA         17.7802  -26.4089  -41.0307 C.3       0 UNK        -0.2013 
      2 C          16.9648  -25.7979  -42.1583 C.2       0 UNK         0.4866 
      3 O          16.2190  -24.8457  -41.9259 O.2       0 UNK        -0.5176 
      4 N          17.1015  -26.3474  -43.3710 N.am      1 UNK        -0.4884 
      5 CA         16.4413  -25.8737  -44.5917 C.3       1 UNK         0.0853 
      6 C6         15.9491  -27.0523  -45.4788 C.3       10 UNK        -0.0849 
      7 S7         14.8408  -28.1806  -44.5614 S.3       10 UNK        -0.2776 
      8 C8         15.5360  -29.8274  -44.9273 C.3       10 UNK         0.0316 
      9 C9         16.9864  -29.9847  -44.4847 C.ar      10 UNK        -0.0863 
     10 C10        17.3187  -30.0164  -43.1257 C.ar      10 UNK        -0.1009 
     11 C11        18.6469  -30.1966  -42.7226 C.ar      10 UNK        -0.0712 
     12 C12        19.6451  -30.3299  -43.6922 C.ar      10 UNK        -0.0894 
     13 C13        19.3262  -30.3024  -45.0523 C.ar      10 UNK        -0.0745 
     14 C14        17.9954  -30.1334  -45.4420 C.ar      10 UNK        -0.0972 
     15 C15        20.4175  -30.4724  -46.1010 C.3       10 UNK         0.0209 
     16 S16        20.8095  -28.9113  -46.9529 S.3       10 UNK        -0.2568 
     17 C17        21.5144  -27.9224  -45.5916 C.3       10 UNK        -0.0983 
     18 CA         21.6338  -26.4156  -45.9353 C.3       3 UNK         0.0876 
     19 N          20.3452  -25.8735  -46.3696 N.am      3 UNK        -0.4424 
     20 C          20.1444  -24.7070  -46.9939 C.2       2 UNK         0.4918 
     21 O          21.0480  -23.9297  -47.3041 O.2       2 UNK        -0.4875 
     22 CA         18.6867  -24.3612  -47.3641 C.3       2 UNK         0.0481 
     23 CB         18.4471  -24.6019  -48.8635 C.3       2 UNK        -0.1831 
     24 N          17.6970  -25.1253  -46.5928 N.am      2 UNK        -0.4498 
     25 C          17.3909  -24.8855  -45.3084 C.2       1 UNK         0.5027 
     26 O          17.8462  -23.9248  -44.6843 O.2       1 UNK        -0.4969 
     27 C          22.1930  -25.6507  -44.7168 C.2       3 UNK         0.5005 
     28 O          21.4356  -25.0095  -43.9838 O.2       3 UNK        -0.5279 
     29 N          23.5056  -25.7968  -44.4789 N.am      4 UNK        -0.4463 
     30 CA         24.1964  -25.2915  -43.2843 C.3       4 UNK         0.0283 
     31 CB         25.7164  -25.3806  -43.4988 C.3       4 UNK        -0.1875 
     32 C          23.7958  -26.0238  -41.9874 C.2       4 UNK         0.4949 
     33 O          23.9300  -25.4484  -40.9084 O.2       4 UNK        -0.5039 
     34 N          23.3219  -27.2738  -42.1221 N.am      5 UNK        -0.4663 
     35 CA         22.7608  -28.1504  -41.0816 C.3       5 UNK         0.0242 
     36 CB         21.5176  -27.5073  -40.4344 C.3       5 UNK        -0.1982 
     37 C          23.7658  -28.6501  -40.0253 C.2       5 UNK         0.5017 
     38 O          23.3470  -29.2782  -39.0519 O.2       5 UNK        -0.5012 
     39 N          25.0694  -28.4297  -40.2509 N.am      6 UNK        -0.4439 
     40 CA         26.1718  -28.8518  -39.3756 C.3       6 UNK         0.0297 
     41 CB         27.4902  -28.2681  -39.9087 C.3       6 UNK        -0.2006 
     42 C          26.2903  -30.3789  -39.2005 C.2       6 UNK         0.4892 
     43 O          26.8067  -30.8330  -38.1795 O.2       6 UNK        -0.5089 
     44 N          25.7849  -31.1370  -40.1826 N.am      7 UNK        -0.4243 
     45 CA         25.6850  -32.5978  -40.1681 C.3       7 UNK         0.0196 
     46 CB         25.6765  -33.0974  -41.6244 C.3       7 UNK        -0.2007 
     47 C          24.4524  -33.1259  -39.4040 C.2       7 UNK         0.5020 
     48 O          24.2164  -34.3339  -39.4351 O.2       7 UNK        -0.5147 
     49 N          23.6587  -32.2381  -38.7796 N.am      8 UNK        -0.4734 
     50 CA         22.4025  -32.5219  -38.0649 C.3       8 UNK         0.0238 
     51 CB         22.6689  -33.3435  -36.7854 C.3       8 UNK        -0.1912 
     52 C          21.3349  -33.1562  -38.9795 C.2       8 UNK         0.5038 
     53 O          20.6243  -34.0749  -38.5674 O.2       8 UNK        -0.5046 
     54 N          21.2828  -32.6566  -40.2207 N.am      9 UNK        -0.4200 
     55 CA         20.4693  -33.1453  -41.3455 C.3       9 UNK         0.0839 
     56 C          20.9343  -34.5119  -41.9363 C.2       9 UNK         0.5513 
     57 N          22.0688  -35.0726  -41.5318 N.am      9 UNK        -0.7519 
     58 O          20.2682  -35.0636  -42.8084 O.2       9 UNK        -0.4960 
     59 C59        18.9314  -33.1145  -41.0896 C.3       10 UNK        -0.0876 
     60 S60        18.2395  -31.5981  -40.3328 S.3       10 UNK        -0.2414 
     61 C61        19.0142  -30.2240  -41.2440 C.3       10 UNK         0.0169 
     62 H62        17.1288  -26.9393  -40.3367 H         1 UNK         0.0903 
     63 H63        18.5179  -27.1096  -41.4150 H         1 UNK         0.0903 
     64 H64        18.3093  -25.6307  -40.4811 H         1 UNK         0.0903 
     65 H65        17.7169  -27.1392  -43.4903 H         1 UNK         0.3096 
     66 H66        15.5583  -25.2907  -44.3201 H         1 UNK         0.1121 
     67 H67        16.7920  -27.6159  -45.8795 H         1 UNK         0.0849 
     68 H68        15.3902  -26.6767  -46.3380 H         1 UNK         0.0849 
     69 H69        14.9297  -30.5824  -44.4249 H         1 UNK         0.0865 
     70 H70        15.4332  -30.0226  -45.9960 H         1 UNK         0.0865 
     71 H71        16.5418  -29.9080  -42.3809 H         1 UNK         0.1346 
     72 H72        20.6758  -30.4540  -43.3913 H         1 UNK         0.1412 
     73 H73        17.7494  -30.1182  -46.4953 H         1 UNK         0.1426 
     74 H74        20.0924  -31.2046  -46.8415 H         1 UNK         0.0716 
     75 H75        21.3277  -30.8757  -45.6544 H         1 UNK         0.0716 
     76 H76        22.4906  -28.3453  -45.3480 H         1 UNK         0.0695 
     77 H77        20.8919  -28.0498  -44.7045 H         1 UNK         0.0695 
     78 H78        22.3385  -26.2970  -46.7615 H         1 UNK         0.0983 
     79 H79        19.5419  -26.4429  -46.1580 H         1 UNK         0.3095 
     80 H80        18.5396  -23.2975  -47.1652 H         1 UNK         0.0454 
     81 H81        18.5807  -25.6505  -49.1323 H         1 UNK         0.0851 
     82 H82        19.1447  -24.0205  -49.4681 H         1 UNK         0.0851 
     83 H83        17.4410  -24.3035  -49.1586 H         1 UNK         0.0851 
     84 H84        17.2702  -25.9112  -47.0616 H         1 UNK         0.2976 
     85 H85        24.0652  -26.3261  -45.1335 H         1 UNK         0.3116 
     86 H86        23.9306  -24.2395  -43.1599 H         1 UNK         0.0646 
     87 H87        26.0304  -24.7960  -44.3637 H         1 UNK         0.0847 
     88 H88        26.0473  -26.4088  -43.6495 H         1 UNK         0.0847 
     89 H89        26.2558  -24.9888  -42.6350 H         1 UNK         0.0847 
     90 H90        23.2978  -27.6491  -43.0592 H         1 UNK         0.3040 
     91 H91        22.4231  -29.0467  -41.6038 H         1 UNK         0.1015 
     92 H92        21.7810  -26.6517  -39.8119 H         1 UNK         0.0786 
     93 H93        20.9888  -28.2179  -39.7981 H         1 UNK         0.0786 
     94 H94        20.8178  -27.1633  -41.1945 H         1 UNK         0.0786 
     95 H95        25.3161  -27.8974  -41.0722 H         1 UNK         0.3172 
     96 H96        25.9854  -28.4269  -38.3871 H         1 UNK         0.0595 
     97 H97        27.7214  -28.6366  -40.9090 H         1 UNK         0.0839 
     98 H98        28.3262  -28.5380  -39.2616 H         1 UNK         0.0839 
     99 H99        27.4555  -27.1791  -39.9502 H         1 UNK         0.0839 
    100 H100       25.3937  -30.6666  -40.9853 H         1 UNK         0.2998 
    101 H101       26.5680  -33.0070  -39.6724 H         1 UNK         0.0822 
    102 H102       25.6789  -34.1876  -41.6672 H         1 UNK         0.0787 
    103 H103       24.7940  -32.7534  -42.1653 H         1 UNK         0.0787 
    104 H104       26.5585  -32.7558  -42.1667 H         1 UNK         0.0787 
    105 H105       23.9052  -31.2545  -38.8301 H         1 UNK         0.3055 
    106 H106       21.9978  -31.5558  -37.7571 H         1 UNK         0.1106 
    107 H107       23.0203  -34.3501  -37.0142 H         1 UNK         0.0828 
    108 H108       21.7603  -33.4454  -36.1908 H         1 UNK         0.0828 
    109 H109       23.4157  -32.8626  -36.1539 H         1 UNK         0.0828 
    110 H110       21.9366  -31.9234  -40.4472 H         1 UNK         0.2931 
    111 H111       20.6721  -32.4400  -42.1486 H         1 UNK         0.0412 
    112 H112       22.6308  -34.6627  -40.7963 H         1 UNK         0.3472 
    113 H113       22.3499  -35.9498  -41.9403 H         1 UNK         0.3472 
    114 H114       18.6473  -33.9506  -40.4484 H         1 UNK         0.0970 
    115 H115       18.4003  -33.2733  -42.0300 H         1 UNK         0.0970 
    116 H116       20.0946  -30.2594  -41.1056 H         1 UNK         0.0612 
    117 H117       18.6847  -29.2950  -40.7814 H         1 UNK         0.0612 
@<TRIPOS>BOND
     1    1    2 1    
     2    1   62 1    
     3    1   63 1    
     4    1   64 1    
     5    2    3 2    
     6    2    4 am   BACKBONE|DICT|INTERRES
     7    4    5 1    
     8    4   65 1    
     9    5    6 1    
    10    5   25 1    
    11    5   66 1    
    12    6    7 1    
    13    6   67 1    
    14    6   68 1    
    15    7    8 1    
    16    8    9 1    
    17    8   69 1    
    18    8   70 1    
    19    9   10 ar   
    20    9   14 ar   
    21   10   11 ar   
    22   10   71 1    
    23   11   12 ar   
    24   11   61 1    
    25   12   13 ar   
    26   12   72 1    
    27   13   14 ar   
    28   13   15 1    
    29   14   73 1    
    30   15   16 1    
    31   15   74 1    
    32   15   75 1    
    33   16   17 1    
    34   17   18 1    
    35   17   76 1    
    36   17   77 1    
    37   18   19 1    
    38   18   27 1    
    39   18   78 1    
    40   19   20 am   BACKBONE|DICT|INTERRES
    41   19   79 1    
    42   20   21 2    
    43   20   22 1    
    44   22   23 1    
    45   22   24 1    
    46   22   80 1    
    47   23   81 1    
    48   23   82 1    
    49   23   83 1    
    50   24   25 am   BACKBONE|DICT|INTERRES
    51   24   84 1    
    52   25   26 2    
    53   27   28 2    
    54   27   29 am   BACKBONE|DICT|INTERRES
    55   29   30 1    
    56   29   85 1    
    57   30   31 1    
    58   30   32 1    
    59   30   86 1    
    60   31   87 1    
    61   31   88 1    
    62   31   89 1    
    63   32   33 2    
    64   32   34 am   BACKBONE|DICT|INTERRES
    65   34   35 1    
    66   34   90 1    
    67   35   36 1    
    68   35   37 1    
    69   35   91 1    
    70   36   92 1    
    71   36   93 1    
    72   36   94 1    
    73   37   38 2    
    74   37   39 am   BACKBONE|DICT|INTERRES
    75   39   40 1    
    76   39   95 1    
    77   40   41 1    
    78   40   42 1    
    79   40   96 1    
    80   41   97 1    
    81   41   98 1    
    82   41   99 1    
    83   42   43 2    
    84   42   44 am   BACKBONE|DICT|INTERRES
    85   44   45 1    
    86   44  100 1    
    87   45   46 1    
    88   45   47 1    
    89   45  101 1    
    90   46  102 1    
    91   46  103 1    
    92   46  104 1    
    93   47   48 2    
    94   47   49 am   BACKBONE|DICT|INTERRES
    95   49   50 1    
    96   49  105 1    
    97   50   51 1    
    98   50   52 1    
    99   50  106 1    
   100   51  107 1    
   101   51  108 1    
   102   51  109 1    
   103   52   53 2    
   104   52   54 am   BACKBONE|DICT|INTERRES
   105   54   55 1    
   106   54  110 1    
   107   55   56 1    
   108   55   59 1    
   109   55  111 1    
   110   56   57 am   BACKBONE|DICT|INTERRES
   111   56   58 2    
   112   57  112 1    
   113   57  113 1    
   114   59   60 1    
   115   59  114 1    
   116   59  115 1    
   117   60   61 1    
   118   61  116 1    
   119   61  117 1    
@<TRIPOS>SUBSTRUCTURE
     1 UNK         1 GROUP             0       ****    0 ROOT    
