@<TRIPOS>MOLECULE
3R8
117   119    1
SMALL
USER_CHARGES


@<TRIPOS>ATOM
      1 CA         16.9604  -25.9638  -49.1886 C.3       0 UNK        -0.2013 
      2 C          17.2914  -26.8577  -48.0025 C.2       0 UNK         0.4866 
      3 O          18.0609  -27.8068  -48.1523 O.2       0 UNK        -0.5176 
      4 N          16.7200  -26.5532  -46.8327 N.am      1 UNK        -0.4884 
      5 CA         16.9491  -27.2456  -45.5622 C.3       1 UNK         0.0853 
      6 C6         15.7973  -28.2293  -45.2132 C.3       10 UNK        -0.0849 
      7 S7         16.0127  -29.8261  -46.0654 S.3       10 UNK        -0.2776 
      8 C8         16.6499  -30.8910  -44.7241 C.3       10 UNK         0.0316 
      9 C9         17.8956  -30.3336  -44.0391 C.ar      10 UNK        -0.0863 
     10 C10        17.9178  -30.1697  -42.6510 C.ar      10 UNK        -0.1009 
     11 C11        19.0621  -29.6881  -42.0075 C.ar      10 UNK        -0.0712 
     12 C12        20.1903  -29.3562  -42.7644 C.ar      10 UNK        -0.0894 
     13 C13        20.1773  -29.5048  -44.1547 C.ar      10 UNK        -0.0745 
     14 C14        19.0324  -30.0039  -44.7830 C.ar      10 UNK        -0.0972 
     15 C15        21.3962  -29.1443  -44.9891 C.3       10 UNK         0.0209 
     16 S16        21.4071  -27.3790  -45.4373 S.3       10 UNK        -0.2568 
     17 C17        22.3513  -26.6384  -44.0609 C.3       10 UNK        -0.0983 
     18 CA         21.5978  -25.4918  -43.3372 C.3       3 UNK         0.0876 
     19 N          20.2915  -25.9439  -42.8448 N.am      3 UNK        -0.4424 
     20 C          19.3029  -25.1704  -42.3776 C.2       2 UNK         0.4918 
     21 O          19.3983  -23.9557  -42.2010 O.2       2 UNK        -0.4875 
     22 CA         17.9838  -25.9107  -42.0905 C.3       2 UNK         0.0481 
     23 CB         16.8621  -24.9918  -41.5614 C.3       2 UNK        -0.1831 
     24 N          17.5535  -26.6847  -43.2625 N.am      2 UNK        -0.4498 
     25 C          17.1741  -26.2003  -44.4565 C.2       1 UNK         0.5027 
     26 O          17.0170  -25.0008  -44.7028 O.2       1 UNK        -0.4969 
     27 C          22.5191  -24.8765  -42.2585 C.2       3 UNK         0.5005 
     28 O          23.5634  -24.3308  -42.6166 O.2       3 UNK        -0.5279 
     29 N          22.1797  -25.0335  -40.9683 N.am      4 UNK        -0.4463 
     30 CA         22.9249  -24.6353  -39.7591 C.3       4 UNK         0.0283 
     31 CB         23.2235  -23.1235  -39.7331 C.3       4 UNK        -0.1875 
     32 C          24.1997  -25.4626  -39.5021 C.2       4 UNK         0.4949 
     33 O          24.4929  -25.7707  -38.3475 O.2       4 UNK        -0.5039 
     34 N          24.8997  -25.8598  -40.5728 N.am      5 UNK        -0.4663 
     35 CA         26.0133  -26.8158  -40.5645 C.3       5 UNK         0.0242 
     36 CB         26.7397  -26.7404  -41.9176 C.3       5 UNK        -0.1982 
     37 C          25.5717  -28.2648  -40.2742 C.2       5 UNK         0.5017 
     38 O          26.4155  -29.0907  -39.9262 O.2       5 UNK        -0.5012 
     39 N          24.2652  -28.5350  -40.4258 N.am      6 UNK        -0.4439 
     40 CA         23.5642  -29.7944  -40.1511 C.3       6 UNK         0.0297 
     41 CB         23.5837  -30.1142  -38.6411 C.3       6 UNK        -0.2006 
     42 C          24.0355  -30.9761  -41.0198 C.2       6 UNK         0.4892 
     43 O          24.0882  -32.1091  -40.5401 O.2       6 UNK        -0.5089 
     44 N          24.3598  -30.6906  -42.2896 N.am      7 UNK        -0.4243 
     45 CA         24.9178  -31.6484  -43.2500 C.3       7 UNK         0.0196 
     46 CB         25.2797  -30.9148  -44.5521 C.3       7 UNK        -0.2007 
     47 C          24.0183  -32.8631  -43.5443 C.2       7 UNK         0.5020 
     48 O          24.5448  -33.9594  -43.7378 O.2       7 UNK        -0.5147 
     49 N          22.6946  -32.6540  -43.5722 N.am      8 UNK        -0.4734 
     50 CA         21.7077  -33.7160  -43.7897 C.3       8 UNK         0.0238 
     51 CB         20.6217  -33.2284  -44.7611 C.3       8 UNK        -0.1912 
     52 C          21.0724  -34.1835  -42.4727 C.2       8 UNK         0.5038 
     53 O          20.9333  -35.3909  -42.2732 O.2       8 UNK        -0.5046 
     54 N          20.6750  -33.2322  -41.6153 N.am      9 UNK        -0.4200 
     55 CA         19.9752  -33.5010  -40.3491 C.3       9 UNK         0.0839 
     56 C          20.8618  -34.0630  -39.2000 C.2       9 UNK         0.5513 
     57 N          22.1835  -33.9580  -39.2548 N.am      9 UNK        -0.7519 
     58 O          20.3338  -34.6248  -38.2436 O.2       9 UNK        -0.4960 
     59 C59        19.1112  -32.2952  -39.8924 C.3       10 UNK        -0.0876 
     60 S60        20.0688  -30.7608  -39.6406 S.3       10 UNK        -0.2414 
     61 C61        19.0674  -29.5049  -40.4960 C.3       10 UNK         0.0169 
     62 H62        17.8692  -25.5063  -49.5787 H         1 UNK         0.0903 
     63 H63        16.5056  -26.5519  -49.9854 H         1 UNK         0.0903 
     64 H64        16.2680  -25.1664  -48.9189 H         1 UNK         0.0903 
     65 H65        16.1678  -25.7094  -46.7472 H         1 UNK         0.3096 
     66 H66        17.8931  -27.7868  -45.6282 H         1 UNK         0.1121 
     67 H67        14.8315  -27.8063  -45.4949 H         1 UNK         0.0849 
     68 H68        15.7244  -28.4262  -44.1422 H         1 UNK         0.0849 
     69 H69        15.8497  -31.0535  -44.0003 H         1 UNK         0.0865 
     70 H70        16.8882  -31.8717  -45.1381 H         1 UNK         0.0865 
     71 H71        17.0444  -30.4261  -42.0665 H         1 UNK         0.1346 
     72 H72        21.0750  -28.9836  -42.2687 H         1 UNK         0.1412 
     73 H73        19.0203  -30.1290  -45.8579 H         1 UNK         0.1426 
     74 H74        21.4003  -29.7322  -45.9084 H         1 UNK         0.0716 
     75 H75        22.3129  -29.4113  -44.4636 H         1 UNK         0.0716 
     76 H76        22.6353  -27.4137  -43.3480 H         1 UNK         0.0695 
     77 H77        23.2870  -26.2697  -44.4863 H         1 UNK         0.0695 
     78 H78        21.4085  -24.6988  -44.0642 H         1 UNK         0.0983 
     79 H79        20.0899  -26.9201  -43.0025 H         1 UNK         0.3095 
     80 H80        18.2002  -26.6372  -41.3065 H         1 UNK         0.0454 
     81 H81        15.9459  -25.5514  -41.3743 H         1 UNK         0.0851 
     82 H82        17.1560  -24.5271  -40.6196 H         1 UNK         0.0851 
     83 H83        16.6268  -24.1849  -42.2556 H         1 UNK         0.0851 
     84 H84        17.6459  -27.6882  -43.1715 H         1 UNK         0.2976 
     85 H85        21.3071  -25.5099  -40.7892 H         1 UNK         0.3116 
     86 H86        22.2519  -24.8436  -38.9257 H         1 UNK         0.0646 
     87 H87        23.6502  -22.8306  -38.7729 H         1 UNK         0.0847 
     88 H88        22.3159  -22.5373  -39.8766 H         1 UNK         0.0847 
     89 H89        23.9378  -22.8309  -40.5029 H         1 UNK         0.0847 
     90 H90        24.6172  -25.4782  -41.4717 H         1 UNK         0.3040 
     91 H91        26.7110  -26.5239  -39.7763 H         1 UNK         0.1015 
     92 H92        27.1226  -25.7372  -42.1063 H         1 UNK         0.0786 
     93 H93        26.0826  -27.0097  -42.7456 H         1 UNK         0.0786 
     94 H94        27.5925  -27.4206  -41.9429 H         1 UNK         0.0786 
     95 H95        23.6830  -27.7611  -40.7092 H         1 UNK         0.3172 
     96 H96        22.5293  -29.6141  -40.4347 H         1 UNK         0.0595 
     97 H97        23.2052  -29.2779  -38.0536 H         1 UNK         0.0839 
     98 H98        24.5894  -30.3455  -38.2894 H         1 UNK         0.0839 
     99 H99        22.9552  -30.9766  -38.4146 H         1 UNK         0.0839 
    100 H100       24.3094  -29.7284  -42.5875 H         1 UNK         0.2998 
    101 H101       25.8417  -32.0341  -42.8133 H         1 UNK         0.0822 
    102 H102       25.7438  -31.5971  -45.2657 H         1 UNK         0.0787 
    103 H103       24.4019  -30.4879  -45.0375 H         1 UNK         0.0787 
    104 H104       25.9907  -30.1084  -44.3706 H         1 UNK         0.0787 
    105 H105       22.3503  -31.7212  -43.4057 H         1 UNK         0.3055 
    106 H106       22.1880  -34.5836  -44.2486 H         1 UNK         0.1106 
    107 H107       21.0520  -32.8330  -45.6812 H         1 UNK         0.0828 
    108 H108       19.9560  -34.0466  -45.0388 H         1 UNK         0.0828 
    109 H109       20.0033  -32.4526  -44.3142 H         1 UNK         0.0828 
    110 H110       20.8244  -32.2605  -41.8356 H         1 UNK         0.2931 
    111 H111       19.2635  -34.3017  -40.5615 H         1 UNK         0.0412 
    112 H112       22.7333  -34.3395  -38.5022 H         1 UNK         0.3472 
    113 H113       22.6457  -33.4371  -39.9909 H         1 UNK         0.3472 
    114 H114       18.5830  -32.5287  -38.9661 H         1 UNK         0.0970 
    115 H115       18.3288  -32.1188  -40.6303 H         1 UNK         0.0970 
    116 H116       18.0524  -29.5223  -40.0960 H         1 UNK         0.0612 
    117 H117       19.4722  -28.5210  -40.2558 H         1 UNK         0.0612 
@<TRIPOS>BOND
     1    1    2 1    
     2    1   62 1    
     3    1   63 1    
     4    1   64 1    
     5    2    3 2    
     6    2    4 am   BACKBONE|DICT|INTERRES
     7    4    5 1    
     8    4   65 1    
     9    5    6 1    
    10    5   25 1    
    11    5   66 1    
    12    6    7 1    
    13    6   67 1    
    14    6   68 1    
    15    7    8 1    
    16    8    9 1    
    17    8   69 1    
    18    8   70 1    
    19    9   10 ar   
    20    9   14 ar   
    21   10   11 ar   
    22   10   71 1    
    23   11   12 ar   
    24   11   61 1    
    25   12   13 ar   
    26   12   72 1    
    27   13   14 ar   
    28   13   15 1    
    29   14   73 1    
    30   15   16 1    
    31   15   74 1    
    32   15   75 1    
    33   16   17 1    
    34   17   18 1    
    35   17   76 1    
    36   17   77 1    
    37   18   19 1    
    38   18   27 1    
    39   18   78 1    
    40   19   20 am   BACKBONE|DICT|INTERRES
    41   19   79 1    
    42   20   21 2    
    43   20   22 1    
    44   22   23 1    
    45   22   24 1    
    46   22   80 1    
    47   23   81 1    
    48   23   82 1    
    49   23   83 1    
    50   24   25 am   BACKBONE|DICT|INTERRES
    51   24   84 1    
    52   25   26 2    
    53   27   28 2    
    54   27   29 am   BACKBONE|DICT|INTERRES
    55   29   30 1    
    56   29   85 1    
    57   30   31 1    
    58   30   32 1    
    59   30   86 1    
    60   31   87 1    
    61   31   88 1    
    62   31   89 1    
    63   32   33 2    
    64   32   34 am   BACKBONE|DICT|INTERRES
    65   34   35 1    
    66   34   90 1    
    67   35   36 1    
    68   35   37 1    
    69   35   91 1    
    70   36   92 1    
    71   36   93 1    
    72   36   94 1    
    73   37   38 2    
    74   37   39 am   BACKBONE|DICT|INTERRES
    75   39   40 1    
    76   39   95 1    
    77   40   41 1    
    78   40   42 1    
    79   40   96 1    
    80   41   97 1    
    81   41   98 1    
    82   41   99 1    
    83   42   43 2    
    84   42   44 am   BACKBONE|DICT|INTERRES
    85   44   45 1    
    86   44  100 1    
    87   45   46 1    
    88   45   47 1    
    89   45  101 1    
    90   46  102 1    
    91   46  103 1    
    92   46  104 1    
    93   47   48 2    
    94   47   49 am   BACKBONE|DICT|INTERRES
    95   49   50 1    
    96   49  105 1    
    97   50   51 1    
    98   50   52 1    
    99   50  106 1    
   100   51  107 1    
   101   51  108 1    
   102   51  109 1    
   103   52   53 2    
   104   52   54 am   BACKBONE|DICT|INTERRES
   105   54   55 1    
   106   54  110 1    
   107   55   56 1    
   108   55   59 1    
   109   55  111 1    
   110   56   57 am   BACKBONE|DICT|INTERRES
   111   56   58 2    
   112   57  112 1    
   113   57  113 1    
   114   59   60 1    
   115   59  114 1    
   116   59  115 1    
   117   60   61 1    
   118   61  116 1    
   119   61  117 1    
@<TRIPOS>SUBSTRUCTURE
     1 UNK         1 GROUP             0       ****    0 ROOT    
