@<TRIPOS>MOLECULE
3R8
117   119    1
SMALL
USER_CHARGES


@<TRIPOS>ATOM
      1 CA         17.5448  -22.1755  -46.0125 C.3       0 UNK        -0.2013 
      2 C          17.8691  -23.2631  -44.9993 C.2       0 UNK         0.4866 
      3 O          18.0778  -22.9568  -43.8255 O.2       0 UNK        -0.5176 
      4 N          17.9145  -24.5250  -45.4511 N.am      1 UNK        -0.4884 
      5 CA         18.1935  -25.7313  -44.6562 C.3       1 UNK         0.0853 
      6 C6         17.0833  -26.0724  -43.6218 C.3       10 UNK        -0.0849 
      7 S7         15.4958  -26.4694  -44.4306 S.3       10 UNK        -0.2776 
      8 C8         15.0887  -28.1025  -43.7071 C.3       10 UNK         0.0316 
      9 C9         16.0545  -29.2410  -44.0484 C.ar      10 UNK        -0.0863 
     10 C10        16.1825  -30.3132  -43.1577 C.ar      10 UNK        -0.1009 
     11 C11        17.0422  -31.3822  -43.4359 C.ar      10 UNK        -0.0712 
     12 C12        17.7819  -31.3772  -44.6206 C.ar      10 UNK        -0.0894 
     13 C13        17.6595  -30.3193  -45.5239 C.ar      10 UNK        -0.0745 
     14 C14        16.7874  -29.2640  -45.2407 C.ar      10 UNK        -0.0972 
     15 C15        18.4523  -30.3164  -46.8188 C.3       10 UNK         0.0209 
     16 S16        19.8135  -29.1145  -46.7563 S.3       10 UNK        -0.2568 
     17 C17        21.1321  -30.0382  -45.8787 C.3       10 UNK        -0.0983 
     18 CA         21.8623  -29.2522  -44.7475 C.3       3 UNK         0.0876 
     19 N          21.8122  -27.8050  -44.9445 N.am      3 UNK        -0.4424 
     20 C          22.4852  -26.8767  -44.2572 C.2       2 UNK         0.4918 
     21 O          23.3494  -27.1360  -43.4198 O.2       2 UNK        -0.4875 
     22 CA         22.0435  -25.4187  -44.4939 C.3       2 UNK         0.0481 
     23 CB         22.8924  -24.7732  -45.5986 C.3       2 UNK        -0.1831 
     24 N          20.6145  -25.3039  -44.8320 N.am      2 UNK        -0.4498 
     25 C          19.6100  -25.7167  -44.0402 C.2       1 UNK         0.5027 
     26 O          19.7928  -26.1367  -42.8963 O.2       1 UNK        -0.4969 
     27 C          21.4422  -29.6995  -43.3268 C.2       3 UNK         0.5005 
     28 O          21.9337  -30.7282  -42.8657 O.2       3 UNK        -0.5279 
     29 N          20.6032  -28.9208  -42.6300 N.am      4 UNK        -0.4463 
     30 CA         20.2898  -29.1263  -41.2155 C.3       4 UNK         0.0283 
     31 CB         18.8200  -28.7714  -40.9415 C.3       4 UNK        -0.1875 
     32 C          21.2136  -28.2901  -40.3233 C.2       4 UNK         0.4949 
     33 O          21.7710  -28.8241  -39.3659 O.2       4 UNK        -0.5039 
     34 N          21.3432  -26.9941  -40.6390 N.am      5 UNK        -0.4663 
     35 CA         22.0242  -26.0050  -39.8008 C.3       5 UNK         0.0242 
     36 CB         21.7015  -24.5927  -40.3141 C.3       5 UNK        -0.1982 
     37 C          23.5439  -26.2038  -39.6831 C.2       5 UNK         0.5017 
     38 O          24.0872  -25.9777  -38.6008 O.2       5 UNK        -0.5012 
     39 N          24.1982  -26.5992  -40.7827 N.am      6 UNK        -0.4439 
     40 CA         25.6478  -26.7808  -40.8604 C.3       6 UNK         0.0297 
     41 CB         26.2148  -25.9523  -42.0268 C.3       6 UNK        -0.2006 
     42 C          26.0242  -28.2597  -41.0077 C.2       6 UNK         0.4892 
     43 O          26.8809  -28.7308  -40.2587 O.2       6 UNK        -0.5089 
     44 N          25.4075  -28.9645  -41.9698 N.am      7 UNK        -0.4243 
     45 CA         25.7767  -30.3486  -42.3027 C.3       7 UNK         0.0196 
     46 CB         25.3804  -30.6712  -43.7518 C.3       7 UNK        -0.2007 
     47 C          25.2079  -31.4026  -41.3343 C.2       7 UNK         0.5020 
     48 O          25.7422  -32.5112  -41.2983 O.2       7 UNK        -0.5147 
     49 N          24.1629  -31.0446  -40.5718 N.am      8 UNK        -0.4734 
     50 CA         23.4739  -31.8600  -39.5628 C.3       8 UNK         0.0238 
     51 CB         24.4007  -32.1243  -38.3562 C.3       8 UNK        -0.1912 
     52 C          22.8613  -33.1498  -40.1440 C.2       8 UNK         0.5038 
     53 O          23.3090  -34.2491  -39.8089 O.2       8 UNK        -0.5046 
     54 N          21.8548  -32.9755  -41.0117 N.am      9 UNK        -0.4200 
     55 CA         21.0342  -34.0222  -41.6461 C.3       9 UNK         0.0839 
     56 C          20.5127  -35.1375  -40.6901 C.2       9 UNK         0.5513 
     57 N          20.3698  -36.3582  -41.1898 N.am      9 UNK        -0.7519 
     58 O          20.1992  -34.9031  -39.5243 O.2       9 UNK        -0.4960 
     59 C59        19.8713  -33.3968  -42.4689 C.3       10 UNK        -0.0876 
     60 S60        18.6664  -32.4563  -41.4594 S.3       10 UNK        -0.2414 
     61 C61        17.1537  -32.5507  -42.4665 C.3       10 UNK         0.0169 
     62 H62        17.3818  -22.5811  -47.0109 H         1 UNK         0.0903 
     63 H63        16.6431  -21.6419  -45.7130 H         1 UNK         0.0903 
     64 H64        18.3629  -21.4578  -46.0675 H         1 UNK         0.0903 
     65 H65        17.7191  -24.6954  -46.4285 H         1 UNK         0.3096 
     66 H66        18.2223  -26.5562  -45.3699 H         1 UNK         0.1121 
     67 H67        16.9325  -25.2483  -42.9229 H         1 UNK         0.0849 
     68 H68        17.3740  -26.9307  -43.0146 H         1 UNK         0.0849 
     69 H69        15.0196  -27.9859  -42.6242 H         1 UNK         0.0865 
     70 H70        14.0927  -28.3889  -44.0469 H         1 UNK         0.0865 
     71 H71        15.6094  -30.3174  -42.2404 H         1 UNK         0.1346 
     72 H72        18.4461  -32.2008  -44.8415 H         1 UNK         0.1412 
     73 H73        16.6864  -28.4608  -45.9568 H         1 UNK         0.1426 
     74 H74        18.8416  -31.3091  -47.0504 H         1 UNK         0.0716 
     75 H75        17.7886  -30.0509  -47.6431 H         1 UNK         0.0716 
     76 H76        21.8643  -30.3132  -46.6394 H         1 UNK         0.0695 
     77 H77        20.7391  -30.9898  -45.5153 H         1 UNK         0.0695 
     78 H78        22.9184  -29.5084  -44.8251 H         1 UNK         0.0983 
     79 H79        21.1333  -27.5003  -45.6275 H         1 UNK         0.3095 
     80 H80        22.2138  -24.8670  -43.5691 H         1 UNK         0.0454 
     81 H81        22.6466  -23.7185  -45.7229 H         1 UNK         0.0851 
     82 H82        22.7522  -25.2675  -46.5606 H         1 UNK         0.0851 
     83 H83        23.9546  -24.8290  -45.3554 H         1 UNK         0.0851 
     84 H84        20.3871  -24.9460  -45.7490 H         1 UNK         0.2976 
     85 H85        20.2692  -28.0573  -43.0408 H         1 UNK         0.3116 
     86 H86        20.4297  -30.1748  -40.9487 H         1 UNK         0.0646 
     87 H87        18.5518  -29.0060  -39.9108 H         1 UNK         0.0847 
     88 H88        18.6111  -27.7135  -41.0978 H         1 UNK         0.0847 
     89 H89        18.1549  -29.3426  -41.5845 H         1 UNK         0.0847 
     90 H90        20.8283  -26.6365  -41.4404 H         1 UNK         0.3040 
     91 H91        21.6113  -26.0960  -38.7934 H         1 UNK         0.1015 
     92 H92        22.1002  -24.4249  -41.3138 H         1 UNK         0.0786 
     93 H93        22.1329  -23.8330  -39.6608 H         1 UNK         0.0786 
     94 H94        20.6259  -24.4175  -40.3488 H         1 UNK         0.0786 
     95 H95        23.6736  -26.7711  -41.6371 H         1 UNK         0.3172 
     96 H96        26.1250  -26.4166  -39.9481 H         1 UNK         0.0595 
     97 H97        25.8104  -26.2627  -42.9904 H         1 UNK         0.0839 
     98 H98        27.2995  -26.0532  -42.0834 H         1 UNK         0.0839 
     99 H99        25.9954  -24.8921  -41.9002 H         1 UNK         0.0839 
    100 H100       24.7184  -28.5054  -42.5543 H         1 UNK         0.2998 
    101 H101       26.8656  -30.4213  -42.2476 H         1 UNK         0.0822 
    102 H102       25.9211  -31.5497  -44.1057 H         1 UNK         0.0787 
    103 H103       24.3221  -30.9060  -43.8362 H         1 UNK         0.0787 
    104 H104       25.6117  -29.8519  -44.4329 H         1 UNK         0.0787 
    105 H105       23.7860  -30.1173  -40.7104 H         1 UNK         0.3055 
    106 H106       22.6359  -31.2664  -39.1959 H         1 UNK         0.1106 
    107 H107       24.7604  -31.1912  -37.9226 H         1 UNK         0.0828 
    108 H108       23.8708  -32.6639  -37.5704 H         1 UNK         0.0828 
    109 H109       25.2696  -32.7231  -38.6306 H         1 UNK         0.0828 
    110 H110       21.6486  -32.0321  -41.3199 H         1 UNK         0.2931 
    111 H111       21.7053  -34.5074  -42.3572 H         1 UNK         0.0412 
    112 H112       20.6145  -36.5640  -42.1462 H         1 UNK         0.3472 
    113 H113       20.0194  -37.0927  -40.5944 H         1 UNK         0.3472 
    114 H114       20.2741  -32.7292  -43.2308 H         1 UNK         0.0970 
    115 H115       19.3478  -34.1802  -43.0192 H         1 UNK         0.0970 
    116 H116       17.1141  -33.4958  -43.0095 H         1 UNK         0.0612 
    117 H117       16.2963  -32.5578  -41.7920 H         1 UNK         0.0612 
@<TRIPOS>BOND
     1    1    2 1    
     2    1   62 1    
     3    1   63 1    
     4    1   64 1    
     5    2    3 2    
     6    2    4 am   BACKBONE|DICT|INTERRES
     7    4    5 1    
     8    4   65 1    
     9    5    6 1    
    10    5   25 1    
    11    5   66 1    
    12    6    7 1    
    13    6   67 1    
    14    6   68 1    
    15    7    8 1    
    16    8    9 1    
    17    8   69 1    
    18    8   70 1    
    19    9   10 ar   
    20    9   14 ar   
    21   10   11 ar   
    22   10   71 1    
    23   11   12 ar   
    24   11   61 1    
    25   12   13 ar   
    26   12   72 1    
    27   13   14 ar   
    28   13   15 1    
    29   14   73 1    
    30   15   16 1    
    31   15   74 1    
    32   15   75 1    
    33   16   17 1    
    34   17   18 1    
    35   17   76 1    
    36   17   77 1    
    37   18   19 1    
    38   18   27 1    
    39   18   78 1    
    40   19   20 am   BACKBONE|DICT|INTERRES
    41   19   79 1    
    42   20   21 2    
    43   20   22 1    
    44   22   23 1    
    45   22   24 1    
    46   22   80 1    
    47   23   81 1    
    48   23   82 1    
    49   23   83 1    
    50   24   25 am   BACKBONE|DICT|INTERRES
    51   24   84 1    
    52   25   26 2    
    53   27   28 2    
    54   27   29 am   BACKBONE|DICT|INTERRES
    55   29   30 1    
    56   29   85 1    
    57   30   31 1    
    58   30   32 1    
    59   30   86 1    
    60   31   87 1    
    61   31   88 1    
    62   31   89 1    
    63   32   33 2    
    64   32   34 am   BACKBONE|DICT|INTERRES
    65   34   35 1    
    66   34   90 1    
    67   35   36 1    
    68   35   37 1    
    69   35   91 1    
    70   36   92 1    
    71   36   93 1    
    72   36   94 1    
    73   37   38 2    
    74   37   39 am   BACKBONE|DICT|INTERRES
    75   39   40 1    
    76   39   95 1    
    77   40   41 1    
    78   40   42 1    
    79   40   96 1    
    80   41   97 1    
    81   41   98 1    
    82   41   99 1    
    83   42   43 2    
    84   42   44 am   BACKBONE|DICT|INTERRES
    85   44   45 1    
    86   44  100 1    
    87   45   46 1    
    88   45   47 1    
    89   45  101 1    
    90   46  102 1    
    91   46  103 1    
    92   46  104 1    
    93   47   48 2    
    94   47   49 am   BACKBONE|DICT|INTERRES
    95   49   50 1    
    96   49  105 1    
    97   50   51 1    
    98   50   52 1    
    99   50  106 1    
   100   51  107 1    
   101   51  108 1    
   102   51  109 1    
   103   52   53 2    
   104   52   54 am   BACKBONE|DICT|INTERRES
   105   54   55 1    
   106   54  110 1    
   107   55   56 1    
   108   55   59 1    
   109   55  111 1    
   110   56   57 am   BACKBONE|DICT|INTERRES
   111   56   58 2    
   112   57  112 1    
   113   57  113 1    
   114   59   60 1    
   115   59  114 1    
   116   59  115 1    
   117   60   61 1    
   118   61  116 1    
   119   61  117 1    
@<TRIPOS>SUBSTRUCTURE
     1 UNK         1 GROUP             0       ****    0 ROOT    
