@<TRIPOS>MOLECULE
3R8
117   119    1
SMALL
USER_CHARGES


@<TRIPOS>ATOM
      1 CA         17.8637  -22.0273  -42.3547 C.3       0 UNK        -0.2013 
      2 C          18.4138  -22.9704  -43.4142 C.2       0 UNK         0.4866 
      3 O          19.3934  -22.6355  -44.0812 O.2       0 UNK        -0.5176 
      4 N          17.7891  -24.1446  -43.5744 N.am      1 UNK        -0.4884 
      5 CA         18.2472  -25.2194  -44.4628 C.3       1 UNK         0.0853 
      6 C6         17.0669  -26.1192  -44.9122 C.3       10 UNK        -0.0849 
      7 S7         17.3648  -26.8772  -46.5466 S.3       10 UNK        -0.2776 
      8 C8         16.2275  -28.2946  -46.5056 C.3       10 UNK         0.0316 
      9 C9         16.7983  -29.4809  -45.7399 C.ar      10 UNK        -0.0863 
     10 C10        17.6541  -30.3832  -46.3833 C.ar      10 UNK        -0.1009 
     11 C11        18.0975  -31.5363  -45.7263 C.ar      10 UNK        -0.0712 
     12 C12        17.6751  -31.7763  -44.4175 C.ar      10 UNK        -0.0894 
     13 C13        16.8627  -30.8607  -43.7450 C.ar      10 UNK        -0.0745 
     14 C14        16.4215  -29.7150  -44.4128 C.ar      10 UNK        -0.0972 
     15 C15        16.4212  -31.1541  -42.3188 C.3       10 UNK         0.0209 
     16 S16        17.8381  -31.4049  -41.1994 S.3       10 UNK        -0.2568 
     17 C17        18.1889  -29.7184  -40.6102 C.3       10 UNK        -0.0983 
     18 CA         19.6602  -29.3002  -40.8636 C.3       3 UNK         0.0876 
     19 N          19.8757  -28.8532  -42.2471 N.am      3 UNK        -0.4424 
     20 C          21.0482  -28.4555  -42.7639 C.2       2 UNK         0.4918 
     21 O          22.1118  -28.4553  -42.1444 O.2       2 UNK        -0.4875 
     22 CA         21.0340  -27.8951  -44.1953 C.3       2 UNK         0.0481 
     23 CB         21.1390  -29.0365  -45.2134 C.3       2 UNK        -0.1831 
     24 N          19.8822  -27.0491  -44.5293 N.am      2 UNK        -0.4498 
     25 C          19.3931  -26.0273  -43.8122 C.2       1 UNK         0.5027 
     26 O          19.7980  -25.7326  -42.6845 O.2       1 UNK        -0.4969 
     27 C          20.0996  -28.2630  -39.8056 C.2       3 UNK         0.5005 
     28 O          20.6228  -28.6582  -38.7629 O.2       3 UNK        -0.5279 
     29 N          19.8825  -26.9711  -40.0844 N.am      4 UNK        -0.4463 
     30 CA         20.2694  -25.8621  -39.2126 C.3       4 UNK         0.0283 
     31 CB         19.2117  -24.7494  -39.3098 C.3       4 UNK        -0.1875 
     32 C          21.6541  -25.3119  -39.5821 C.2       4 UNK         0.4949 
     33 O          22.4187  -24.9504  -38.6879 O.2       4 UNK        -0.5039 
     34 N          21.9403  -25.2323  -40.8887 N.am      5 UNK        -0.4663 
     35 CA         23.1396  -24.6015  -41.4397 C.3       5 UNK         0.0242 
     36 CB         22.9311  -24.3468  -42.9410 C.3       5 UNK        -0.1982 
     37 C          24.4380  -25.3892  -41.2026 C.2       5 UNK         0.5017 
     38 O          25.4867  -24.7604  -41.0516 O.2       5 UNK        -0.5012 
     39 N          24.3637  -26.7277  -41.1938 N.am      6 UNK        -0.4439 
     40 CA         25.5384  -27.6002  -41.0712 C.3       6 UNK         0.0297 
     41 CB         26.1467  -27.8433  -42.4658 C.3       6 UNK        -0.2006 
     42 C          25.2629  -28.9390  -40.3712 C.2       6 UNK         0.4892 
     43 O          26.2008  -29.5138  -39.8186 O.2       6 UNK        -0.5089 
     44 N          24.0180  -29.4348  -40.4416 N.am      7 UNK        -0.4243 
     45 CA         23.5657  -30.7722  -40.0317 C.3       7 UNK         0.0196 
     46 CB         23.7736  -31.0158  -38.5221 C.3       7 UNK        -0.2007 
     47 C          24.1407  -31.9006  -40.9133 C.2       7 UNK         0.5020 
     48 O          24.1535  -33.0591  -40.4959 O.2       7 UNK        -0.5147 
     49 N          24.5753  -31.5540  -42.1352 N.am      8 UNK        -0.4734 
     50 CA         25.1905  -32.4579  -43.1151 C.3       8 UNK         0.0238 
     51 CB         25.7356  -31.6277  -44.2889 C.3       8 UNK        -0.1912 
     52 C          24.2477  -33.5609  -43.6271 C.2       8 UNK         0.5038 
     53 O          24.7221  -34.6304  -44.0118 O.2       8 UNK        -0.5046 
     54 N          22.9387  -33.2849  -43.6018 N.am      9 UNK        -0.4200 
     55 CA         21.8651  -34.2456  -43.8894 C.3       9 UNK         0.0839 
     56 C          21.6200  -35.2855  -42.7542 C.2       9 UNK         0.5513 
     57 N          22.2354  -35.1698  -41.5821 N.am      9 UNK        -0.7519 
     58 O          20.8552  -36.2270  -42.9468 O.2       9 UNK        -0.4960 
     59 C59        20.5504  -33.5178  -44.2700 C.3       10 UNK        -0.0876 
     60 S60        20.7045  -32.5334  -45.8013 S.3       10 UNK        -0.2414 
     61 C61        18.9945  -32.5431  -46.4385 C.3       10 UNK         0.0169 
     62 H62        18.6278  -21.8207  -41.6057 H         1 UNK         0.0903 
     63 H63        17.5678  -21.0825  -42.8100 H         1 UNK         0.0903 
     64 H64        16.9955  -22.4457  -41.8459 H         1 UNK         0.0903 
     65 H65        17.0080  -24.3727  -42.9761 H         1 UNK         0.3096 
     66 H66        18.6710  -24.7440  -45.3510 H         1 UNK         0.1121 
     67 H67        16.8438  -26.8821  -44.1650 H         1 UNK         0.0849 
     68 H68        16.1567  -25.5246  -45.0100 H         1 UNK         0.0849 
     69 H69        15.2694  -27.9860  -46.0838 H         1 UNK         0.0865 
     70 H70        16.0151  -28.5983  -47.5319 H         1 UNK         0.0865 
     71 H71        17.9513  -30.2001  -47.4070 H         1 UNK         0.1346 
     72 H72        17.9764  -32.6806  -43.9106 H         1 UNK         0.1412 
     73 H73        15.7556  -29.0255  -43.9120 H         1 UNK         0.1426 
     74 H74        15.7718  -30.3683  -41.9300 H         1 UNK         0.0716 
     75 H75        15.8223  -32.0658  -42.3258 H         1 UNK         0.0716 
     76 H76        17.9558  -29.7260  -39.5430 H         1 UNK         0.0695 
     77 H77        17.4997  -29.0003  -41.0582 H         1 UNK         0.0695 
     78 H78        20.2967  -30.1730  -40.7105 H         1 UNK         0.0983 
     79 H79        19.0607  -28.8334  -42.8421 H         1 UNK         0.3095 
     80 H80        21.9233  -27.2734  -44.3045 H         1 UNK         0.0454 
     81 H81        21.9905  -29.6833  -44.9965 H         1 UNK         0.0851 
     82 H82        20.2445  -29.6584  -45.2029 H         1 UNK         0.0851 
     83 H83        21.2717  -28.6586  -46.2270 H         1 UNK         0.0851 
     84 H84        19.4399  -27.2349  -45.4209 H         1 UNK         0.2976 
     85 H85        19.5245  -26.7195  -41.0003 H         1 UNK         0.3116 
     86 H86        20.3062  -26.1995  -38.1744 H         1 UNK         0.0646 
     87 H87        18.2300  -25.1085  -39.0011 H         1 UNK         0.0847 
     88 H88        19.4679  -23.9105  -38.6614 H         1 UNK         0.0847 
     89 H89        19.1218  -24.3606  -40.3250 H         1 UNK         0.0847 
     90 H90        21.2240  -25.5081  -41.5569 H         1 UNK         0.3040 
     91 H91        23.2578  -23.6326  -40.9491 H         1 UNK         0.1015 
     92 H92        22.8099  -25.2773  -43.4945 H         1 UNK         0.0786 
     93 H93        23.7848  -23.8209  -43.3705 H         1 UNK         0.0786 
     94 H94        22.0478  -23.7330  -43.1215 H         1 UNK         0.0786 
     95 H95        23.4607  -27.1629  -41.3453 H         1 UNK         0.3172 
     96 H96        26.2885  -27.0985  -40.4557 H         1 UNK         0.0595 
     97 H97        25.4232  -28.2901  -43.1486 H         1 UNK         0.0839 
     98 H98        27.0048  -28.5150  -42.4106 H         1 UNK         0.0839 
     99 H99        26.4969  -26.9130  -42.9133 H         1 UNK         0.0839 
    100 H100       23.3226  -28.9190  -40.9767 H         1 UNK         0.2998 
    101 H101       22.4910  -30.7854  -40.2102 H         1 UNK         0.0822 
    102 H102       23.2775  -31.9335  -38.2040 H         1 UNK         0.0787 
    103 H103       24.8282  -31.1146  -38.2644 H         1 UNK         0.0787 
    104 H104       23.3551  -30.2016  -37.9301 H         1 UNK         0.0787 
    105 H105       24.5129  -30.5810  -42.3955 H         1 UNK         0.3055 
    106 H106       26.0297  -32.9562  -42.6246 H         1 UNK         0.1106 
    107 H107       26.4775  -30.9029  -43.9531 H         1 UNK         0.0828 
    108 H108       26.2229  -32.2676  -45.0260 H         1 UNK         0.0828 
    109 H109       24.9420  -31.0846  -44.8039 H         1 UNK         0.0828 
    110 H110       22.6499  -32.3764  -43.2747 H         1 UNK         0.2931 
    111 H111       22.1753  -34.8301  -44.7580 H         1 UNK         0.0412 
    112 H112       22.0596  -35.8605  -40.8697 H         1 UNK         0.3472 
    113 H113       22.8840  -34.4143  -41.3944 H         1 UNK         0.3472 
    114 H114       19.7476  -34.2438  -44.4114 H         1 UNK         0.0970 
    115 H115       20.2359  -32.8607  -43.4572 H         1 UNK         0.0970 
    116 H116       19.0302  -32.3212  -47.5061 H         1 UNK         0.0612 
    117 H117       18.5698  -33.5442  -46.3544 H         1 UNK         0.0612 
@<TRIPOS>BOND
     1    1    2 1    
     2    1   62 1    
     3    1   63 1    
     4    1   64 1    
     5    2    3 2    
     6    2    4 am   BACKBONE|DICT|INTERRES
     7    4    5 1    
     8    4   65 1    
     9    5    6 1    
    10    5   25 1    
    11    5   66 1    
    12    6    7 1    
    13    6   67 1    
    14    6   68 1    
    15    7    8 1    
    16    8    9 1    
    17    8   69 1    
    18    8   70 1    
    19    9   10 ar   
    20    9   14 ar   
    21   10   11 ar   
    22   10   71 1    
    23   11   12 ar   
    24   11   61 1    
    25   12   13 ar   
    26   12   72 1    
    27   13   14 ar   
    28   13   15 1    
    29   14   73 1    
    30   15   16 1    
    31   15   74 1    
    32   15   75 1    
    33   16   17 1    
    34   17   18 1    
    35   17   76 1    
    36   17   77 1    
    37   18   19 1    
    38   18   27 1    
    39   18   78 1    
    40   19   20 am   BACKBONE|DICT|INTERRES
    41   19   79 1    
    42   20   21 2    
    43   20   22 1    
    44   22   23 1    
    45   22   24 1    
    46   22   80 1    
    47   23   81 1    
    48   23   82 1    
    49   23   83 1    
    50   24   25 am   BACKBONE|DICT|INTERRES
    51   24   84 1    
    52   25   26 2    
    53   27   28 2    
    54   27   29 am   BACKBONE|DICT|INTERRES
    55   29   30 1    
    56   29   85 1    
    57   30   31 1    
    58   30   32 1    
    59   30   86 1    
    60   31   87 1    
    61   31   88 1    
    62   31   89 1    
    63   32   33 2    
    64   32   34 am   BACKBONE|DICT|INTERRES
    65   34   35 1    
    66   34   90 1    
    67   35   36 1    
    68   35   37 1    
    69   35   91 1    
    70   36   92 1    
    71   36   93 1    
    72   36   94 1    
    73   37   38 2    
    74   37   39 am   BACKBONE|DICT|INTERRES
    75   39   40 1    
    76   39   95 1    
    77   40   41 1    
    78   40   42 1    
    79   40   96 1    
    80   41   97 1    
    81   41   98 1    
    82   41   99 1    
    83   42   43 2    
    84   42   44 am   BACKBONE|DICT|INTERRES
    85   44   45 1    
    86   44  100 1    
    87   45   46 1    
    88   45   47 1    
    89   45  101 1    
    90   46  102 1    
    91   46  103 1    
    92   46  104 1    
    93   47   48 2    
    94   47   49 am   BACKBONE|DICT|INTERRES
    95   49   50 1    
    96   49  105 1    
    97   50   51 1    
    98   50   52 1    
    99   50  106 1    
   100   51  107 1    
   101   51  108 1    
   102   51  109 1    
   103   52   53 2    
   104   52   54 am   BACKBONE|DICT|INTERRES
   105   54   55 1    
   106   54  110 1    
   107   55   56 1    
   108   55   59 1    
   109   55  111 1    
   110   56   57 am   BACKBONE|DICT|INTERRES
   111   56   58 2    
   112   57  112 1    
   113   57  113 1    
   114   59   60 1    
   115   59  114 1    
   116   59  115 1    
   117   60   61 1    
   118   61  116 1    
   119   61  117 1    
@<TRIPOS>SUBSTRUCTURE
     1 UNK         1 GROUP             0       ****    0 ROOT    
