@<TRIPOS>MOLECULE
3R8
117   119    1
SMALL
USER_CHARGES


@<TRIPOS>ATOM
      1 CA         17.5620  -22.1089  -48.2012 C.3       0 UNK        -0.2013 
      2 C          18.0446  -23.5055  -47.8384 C.2       0 UNK         0.4866 
      3 O          18.8144  -24.1025  -48.5921 O.2       0 UNK        -0.5176 
      4 N          17.5911  -24.0352  -46.6958 N.am      1 UNK        -0.4884 
      5 CA         17.9898  -25.3435  -46.1680 C.3       1 UNK         0.0853 
      6 C6         17.0632  -25.8071  -45.0175 C.3       10 UNK        -0.0849 
      7 S7         15.4023  -26.2904  -45.5880 S.3       10 UNK        -0.2776 
      8 C8         15.6317  -28.0745  -45.9356 C.3       10 UNK         0.0316 
      9 C9         16.0975  -28.9416  -44.7604 C.ar      10 UNK        -0.0863 
     10 C10        16.7323  -30.1576  -45.0361 C.ar      10 UNK        -0.1009 
     11 C11        17.1611  -31.0054  -44.0093 C.ar      10 UNK        -0.0712 
     12 C12        16.9420  -30.6171  -42.6811 C.ar      10 UNK        -0.0894 
     13 C13        16.3435  -29.3897  -42.3824 C.ar      10 UNK        -0.0745 
     14 C14        15.9005  -28.5710  -43.4240 C.ar      10 UNK        -0.0972 
     15 C15        16.1664  -28.9452  -40.9351 C.3       10 UNK         0.0209 
     16 S16        17.7184  -29.0055  -39.9748 S.3       10 UNK        -0.2568 
     17 C17        18.8049  -27.8329  -40.8659 C.3       10 UNK        -0.0983 
     18 CA         19.8556  -28.5296  -41.7766 C.3       3 UNK         0.0876 
     19 N          20.3208  -27.6220  -42.8296 N.am      3 UNK        -0.4424 
     20 C          20.8458  -28.0089  -43.9988 C.2       2 UNK         0.4918 
     21 O          20.9269  -29.1814  -44.3659 O.2       2 UNK        -0.4875 
     22 CA         21.2601  -26.8779  -44.9486 C.3       2 UNK         0.0481 
     23 CB         22.3706  -27.2935  -45.9297 C.3       2 UNK        -0.1831 
     24 N          20.0564  -26.5283  -45.6910 N.am      2 UNK        -0.4498 
     25 C          19.4424  -25.3412  -45.6551 C.2       1 UNK         0.5027 
     26 O          19.9279  -24.3206  -45.1599 O.2       1 UNK        -0.4969 
     27 C          21.0471  -29.1404  -40.9974 C.2       3 UNK         0.5005 
     28 O          22.2081  -28.9257  -41.3532 O.2       3 UNK        -0.5279 
     29 N          20.7533  -29.8860  -39.9238 N.am      4 UNK        -0.4463 
     30 CA         21.7356  -30.5317  -39.0435 C.3       4 UNK         0.0283 
     31 CB         21.0039  -31.4018  -38.0113 C.3       4 UNK        -0.1875 
     32 C          22.6907  -29.5438  -38.3484 C.2       4 UNK         0.4949 
     33 O          23.8312  -29.9062  -38.0639 O.2       4 UNK        -0.5039 
     34 N          22.2419  -28.2947  -38.1576 N.am      5 UNK        -0.4663 
     35 CA         23.0589  -27.1648  -37.7015 C.3       5 UNK         0.0242 
     36 CB         22.1386  -25.9676  -37.4141 C.3       5 UNK        -0.1982 
     37 C          24.1707  -26.7620  -38.6927 C.2       5 UNK         0.5017 
     38 O          25.1611  -26.1669  -38.2681 O.2       5 UNK        -0.5012 
     39 N          24.0013  -27.1073  -39.9772 N.am      6 UNK        -0.4439 
     40 CA         24.9873  -26.9402  -41.0462 C.3       6 UNK         0.0297 
     41 CB         24.2856  -26.3293  -42.2738 C.3       6 UNK        -0.2006 
     42 C          25.6651  -28.2788  -41.4021 C.2       6 UNK         0.4892 
     43 O          26.3073  -28.3623  -42.4490 O.2       6 UNK        -0.5089 
     44 N          25.4897  -29.3092  -40.5579 N.am      7 UNK        -0.4243 
     45 CA         26.0061  -30.6842  -40.6372 C.3       7 UNK         0.0196 
     46 CB         27.5471  -30.7021  -40.6487 C.3       7 UNK        -0.2007 
     47 C          25.4393  -31.5488  -41.7791 C.2       7 UNK         0.5020 
     48 O          25.4068  -32.7703  -41.6311 O.2       7 UNK        -0.5147 
     49 N          24.9972  -30.9329  -42.8823 N.am      8 UNK        -0.4734 
     50 CA         24.5323  -31.5915  -44.1088 C.3       8 UNK         0.0238 
     51 CB         24.2188  -30.5215  -45.1641 C.3       8 UNK        -0.1912 
     52 C          23.3323  -32.5390  -43.9279 C.2       8 UNK         0.5038 
     53 O          23.2533  -33.5364  -44.6466 O.2       8 UNK        -0.5046 
     54 N          22.4478  -32.2278  -42.9721 N.am      9 UNK        -0.4200 
     55 CA         21.3246  -33.0838  -42.5527 C.3       9 UNK         0.0839 
     56 C          21.6026  -33.8451  -41.2208 C.2       9 UNK         0.5513 
     57 N          22.8279  -33.8762  -40.7092 N.am      9 UNK        -0.7519 
     58 O          20.6954  -34.4295  -40.6357 O.2       9 UNK        -0.4960 
     59 C59        19.9875  -32.2910  -42.5338 C.3       10 UNK        -0.0876 
     60 S60        18.5494  -33.3043  -43.0256 S.3       10 UNK        -0.2414 
     61 C61        17.8414  -32.3233  -44.3967 C.3       10 UNK         0.0169 
     62 H62        16.8761  -21.7075  -47.4553 H         1 UNK         0.0903 
     63 H63        18.4096  -21.4290  -48.2830 H         1 UNK         0.0903 
     64 H64        17.0459  -22.1276  -49.1607 H         1 UNK         0.0903 
     65 H65        16.9677  -23.4983  -46.1099 H         1 UNK         0.3096 
     66 H66        17.9269  -26.0651  -46.9861 H         1 UNK         0.1121 
     67 H67        17.5001  -26.6465  -44.4748 H         1 UNK         0.0849 
     68 H68        16.9525  -25.0146  -44.2746 H         1 UNK         0.0849 
     69 H69        14.6847  -28.4751  -46.2995 H         1 UNK         0.0865 
     70 H70        16.3381  -28.1684  -46.7619 H         1 UNK         0.0865 
     71 H71        16.8890  -30.4544  -46.0647 H         1 UNK         0.1346 
     72 H72        17.2513  -31.2507  -41.8631 H         1 UNK         0.1412 
     73 H73        15.4099  -27.6375  -43.1871 H         1 UNK         0.1426 
     74 H74        15.4321  -29.5943  -40.4565 H         1 UNK         0.0716 
     75 H75        15.7630  -27.9327  -40.8830 H         1 UNK         0.0716 
     76 H76        18.1648  -27.1831  -41.4656 H         1 UNK         0.0695 
     77 H77        19.2893  -27.1763  -40.1406 H         1 UNK         0.0695 
     78 H78        19.3595  -29.3598  -42.2795 H         1 UNK         0.0983 
     79 H79        20.2951  -26.6366  -42.6137 H         1 UNK         0.3095 
     80 H80        21.6229  -26.0364  -44.3543 H         1 UNK         0.0454 
     81 H81        23.2883  -27.5359  -45.3936 H         1 UNK         0.0851 
     82 H82        22.6067  -26.4845  -46.6208 H         1 UNK         0.0851 
     83 H83        22.0926  -28.1659  -46.5224 H         1 UNK         0.0851 
     84 H84        19.5658  -27.3155  -46.0937 H         1 UNK         0.2976 
     85 H85        19.7771  -29.9800  -39.6680 H         1 UNK         0.3116 
     86 H86        22.3512  -31.1853  -39.6645 H         1 UNK         0.0646 
     87 H87        21.7137  -31.9101  -37.3570 H         1 UNK         0.0847 
     88 H88        20.3421  -30.8097  -37.3781 H         1 UNK         0.0847 
     89 H89        20.4061  -32.1741  -38.4961 H         1 UNK         0.0847 
     90 H90        21.2850  -28.0917  -38.4068 H         1 UNK         0.3040 
     91 H91        23.5474  -27.4581  -36.7695 H         1 UNK         0.1015 
     92 H92        22.7107  -25.1156  -37.0437 H         1 UNK         0.0786 
     93 H93        21.3959  -26.2105  -36.6539 H         1 UNK         0.0786 
     94 H94        21.6096  -25.6397  -38.3100 H         1 UNK         0.0786 
     95 H95        23.1769  -27.6411  -40.2400 H         1 UNK         0.3172 
     96 H96        25.7759  -26.2547  -40.7301 H         1 UNK         0.0595 
     97 H97        23.5423  -27.0086  -42.6912 H         1 UNK         0.0839 
     98 H98        25.0018  -26.1058  -43.0655 H         1 UNK         0.0839 
     99 H99        23.7836  -25.3952  -42.0214 H         1 UNK         0.0839 
    100 H100       24.9132  -29.1396  -39.7420 H         1 UNK         0.2998 
    101 H101       25.6835  -31.1647  -39.7120 H         1 UNK         0.0822 
    102 H102       27.9241  -31.7240  -40.5881 H         1 UNK         0.0787 
    103 H103       27.9565  -30.1556  -39.7991 H         1 UNK         0.0787 
    104 H104       27.9542  -30.2624  -41.5596 H         1 UNK         0.0787 
    105 H105       25.1242  -29.9275  -42.9216 H         1 UNK         0.3055 
    106 H106       25.3607  -32.2001  -44.4780 H         1 UNK         0.1106 
    107 H107       23.4257  -29.8570  -44.8249 H         1 UNK         0.0828 
    108 H108       25.0949  -29.9134  -45.3900 H         1 UNK         0.0828 
    109 H109       23.8875  -30.9749  -46.0994 H         1 UNK         0.0828 
    110 H110       22.6063  -31.3893  -42.4310 H         1 UNK         0.2931 
    111 H111       21.2133  -33.8758  -43.2949 H         1 UNK         0.0412 
    112 H112       22.9817  -34.3828  -39.8521 H         1 UNK         0.3472 
    113 H113       23.6171  -33.4540  -41.1868 H         1 UNK         0.3472 
    114 H114       19.7902  -31.8665  -41.5497 H         1 UNK         0.0970 
    115 H115       20.0488  -31.4454  -43.2196 H         1 UNK         0.0970 
    116 H116       17.1066  -32.9472  -44.9072 H         1 UNK         0.0612 
    117 H117       18.6313  -32.1227  -45.1223 H         1 UNK         0.0612 
@<TRIPOS>BOND
     1    1    2 1    
     2    1   62 1    
     3    1   63 1    
     4    1   64 1    
     5    2    3 2    
     6    2    4 am   BACKBONE|DICT|INTERRES
     7    4    5 1    
     8    4   65 1    
     9    5    6 1    
    10    5   25 1    
    11    5   66 1    
    12    6    7 1    
    13    6   67 1    
    14    6   68 1    
    15    7    8 1    
    16    8    9 1    
    17    8   69 1    
    18    8   70 1    
    19    9   10 ar   
    20    9   14 ar   
    21   10   11 ar   
    22   10   71 1    
    23   11   12 ar   
    24   11   61 1    
    25   12   13 ar   
    26   12   72 1    
    27   13   14 ar   
    28   13   15 1    
    29   14   73 1    
    30   15   16 1    
    31   15   74 1    
    32   15   75 1    
    33   16   17 1    
    34   17   18 1    
    35   17   76 1    
    36   17   77 1    
    37   18   19 1    
    38   18   27 1    
    39   18   78 1    
    40   19   20 am   BACKBONE|DICT|INTERRES
    41   19   79 1    
    42   20   21 2    
    43   20   22 1    
    44   22   23 1    
    45   22   24 1    
    46   22   80 1    
    47   23   81 1    
    48   23   82 1    
    49   23   83 1    
    50   24   25 am   BACKBONE|DICT|INTERRES
    51   24   84 1    
    52   25   26 2    
    53   27   28 2    
    54   27   29 am   BACKBONE|DICT|INTERRES
    55   29   30 1    
    56   29   85 1    
    57   30   31 1    
    58   30   32 1    
    59   30   86 1    
    60   31   87 1    
    61   31   88 1    
    62   31   89 1    
    63   32   33 2    
    64   32   34 am   BACKBONE|DICT|INTERRES
    65   34   35 1    
    66   34   90 1    
    67   35   36 1    
    68   35   37 1    
    69   35   91 1    
    70   36   92 1    
    71   36   93 1    
    72   36   94 1    
    73   37   38 2    
    74   37   39 am   BACKBONE|DICT|INTERRES
    75   39   40 1    
    76   39   95 1    
    77   40   41 1    
    78   40   42 1    
    79   40   96 1    
    80   41   97 1    
    81   41   98 1    
    82   41   99 1    
    83   42   43 2    
    84   42   44 am   BACKBONE|DICT|INTERRES
    85   44   45 1    
    86   44  100 1    
    87   45   46 1    
    88   45   47 1    
    89   45  101 1    
    90   46  102 1    
    91   46  103 1    
    92   46  104 1    
    93   47   48 2    
    94   47   49 am   BACKBONE|DICT|INTERRES
    95   49   50 1    
    96   49  105 1    
    97   50   51 1    
    98   50   52 1    
    99   50  106 1    
   100   51  107 1    
   101   51  108 1    
   102   51  109 1    
   103   52   53 2    
   104   52   54 am   BACKBONE|DICT|INTERRES
   105   54   55 1    
   106   54  110 1    
   107   55   56 1    
   108   55   59 1    
   109   55  111 1    
   110   56   57 am   BACKBONE|DICT|INTERRES
   111   56   58 2    
   112   57  112 1    
   113   57  113 1    
   114   59   60 1    
   115   59  114 1    
   116   59  115 1    
   117   60   61 1    
   118   61  116 1    
   119   61  117 1    
@<TRIPOS>SUBSTRUCTURE
     1 UNK         1 GROUP             0       ****    0 ROOT    
