@<TRIPOS>MOLECULE
3R8
117   119    1
SMALL
USER_CHARGES


@<TRIPOS>ATOM
      1 CA         17.9540  -28.6991  -40.4169 C.3       0 UNK        -0.2013 
      2 C          16.9098  -28.0811  -41.3314 C.2       0 UNK         0.4866 
      3 O          16.0670  -27.3169  -40.8608 O.2       0 UNK        -0.5176 
      4 N          16.9398  -28.4235  -42.6269 N.am      1 UNK        -0.4884 
      5 CA         15.9217  -28.0204  -43.6069 C.3       1 UNK         0.0853 
      6 C6         15.9520  -28.8691  -44.9027 C.3       10 UNK        -0.0849 
      7 S7         15.9390  -30.6648  -44.5692 S.3       10 UNK        -0.2776 
      8 C8         17.1444  -31.2913  -45.7867 C.3       10 UNK         0.0316 
      9 C9         18.5271  -30.6646  -45.6437 C.ar      10 UNK        -0.0863 
     10 C10        19.2531  -30.8079  -44.4564 C.ar      10 UNK        -0.1009 
     11 C11        20.5296  -30.2510  -44.3387 C.ar      10 UNK        -0.0712 
     12 C12        21.0914  -29.5794  -45.4246 C.ar      10 UNK        -0.0894 
     13 C13        20.3658  -29.3970  -46.6039 C.ar      10 UNK        -0.0745 
     14 C14        19.0842  -29.9462  -46.7087 C.ar      10 UNK        -0.0972 
     15 C15        20.9712  -28.6214  -47.7672 C.3       10 UNK         0.0209 
     16 S16        20.5851  -26.8394  -47.6892 S.3       10 UNK        -0.2568 
     17 C17        21.7443  -26.2590  -46.4003 C.3       10 UNK        -0.0983 
     18 CA         21.2030  -25.1061  -45.5163 C.3       3 UNK         0.0876 
     19 N          19.8045  -25.3057  -45.1071 N.am      3 UNK        -0.4424 
     20 C          19.0371  -24.3543  -44.5525 C.2       2 UNK         0.4918 
     21 O          19.4670  -23.2761  -44.1430 O.2       2 UNK        -0.4875 
     22 CA         17.5273  -24.6202  -44.4908 C.3       2 UNK         0.0481 
     23 CB         16.8961  -24.2165  -45.8422 C.3       2 UNK        -0.1831 
     24 N          17.2275  -26.0131  -44.1429 N.am      2 UNK        -0.4498 
     25 C          16.0005  -26.5219  -43.9532 C.2       1 UNK         0.5027 
     26 O          14.9583  -25.8704  -44.0393 O.2       1 UNK        -0.4969 
     27 C          22.1770  -24.8558  -44.3443 C.2       3 UNK         0.5005 
     28 O          23.1773  -24.1635  -44.5394 O.2       3 UNK        -0.5279 
     29 N          21.8775  -25.4365  -43.1699 N.am      4 UNK        -0.4463 
     30 CA         22.6741  -25.3998  -41.9346 C.3       4 UNK         0.0283 
     31 CB         22.7269  -23.9699  -41.3547 C.3       4 UNK        -0.1875 
     32 C          24.0707  -26.0350  -42.1114 C.2       4 UNK         0.4949 
     33 O          25.0740  -25.4484  -41.7027 O.2       4 UNK        -0.5039 
     34 N          24.1010  -27.2139  -42.7489 N.am      5 UNK        -0.4663 
     35 CA         25.3107  -27.9782  -43.0585 C.3       5 UNK         0.0242 
     36 CB         25.0810  -28.7734  -44.3606 C.3       5 UNK        -0.1982 
     37 C          25.7424  -28.8513  -41.8631 C.2       5 UNK         0.5017 
     38 O          26.3455  -28.3331  -40.9232 O.2       5 UNK        -0.5012 
     39 N          25.4423  -30.1547  -41.9175 N.am      6 UNK        -0.4439 
     40 CA         25.7631  -31.1570  -40.9012 C.3       6 UNK         0.0297 
     41 CB         27.1683  -31.7302  -41.1752 C.3       6 UNK        -0.2006 
     42 C          24.6743  -32.2435  -40.8982 C.2       6 UNK         0.4892 
     43 O          23.6473  -32.0753  -41.5612 O.2       6 UNK        -0.5089 
     44 N          24.9072  -33.3313  -40.1482 N.am      7 UNK        -0.4243 
     45 CA         24.0218  -34.4915  -39.9775 C.3       7 UNK         0.0196 
     46 CB         23.8921  -35.2880  -41.2970 C.3       7 UNK        -0.2007 
     47 C          22.6757  -34.0730  -39.3607 C.2       7 UNK         0.5020 
     48 O          22.6433  -33.7409  -38.1755 O.2       7 UNK        -0.5147 
     49 N          21.6064  -34.0393  -40.1689 N.am      8 UNK        -0.4734 
     50 CA         20.2724  -33.5547  -39.7882 C.3       8 UNK         0.0238 
     51 CB         19.2971  -33.7921  -40.9532 C.3       8 UNK        -0.1912 
     52 C          20.2449  -32.0739  -39.3611 C.2       8 UNK         0.5038 
     53 O          19.3629  -31.6845  -38.5953 O.2       8 UNK        -0.5046 
     54 N          21.2150  -31.2918  -39.8485 N.am      9 UNK        -0.4200 
     55 CA         21.4655  -29.9022  -39.4505 C.3       9 UNK         0.0839 
     56 C          22.2951  -29.7685  -38.1388 C.2       9 UNK         0.5513 
     57 N          22.7777  -30.8432  -37.5249 N.am      9 UNK        -0.7519 
     58 O          22.4984  -28.6567  -37.6589 O.2       9 UNK        -0.4960 
     59 C59        22.1166  -29.1049  -40.6085 C.3       10 UNK        -0.0876 
     60 S60        21.0131  -28.8487  -42.0379 S.3       10 UNK        -0.2414 
     61 C61        21.3000  -30.3425  -43.0353 C.3       10 UNK         0.0169 
     62 H62        18.7328  -27.9712  -40.1926 H         1 UNK         0.0903 
     63 H63        17.4989  -29.0107  -39.4771 H         1 UNK         0.0903 
     64 H64        18.4145  -29.5785  -40.8667 H         1 UNK         0.0903 
     65 H65        17.6407  -29.0693  -42.9630 H         1 UNK         0.3096 
     66 H66        14.9473  -28.1824  -43.1392 H         1 UNK         0.1121 
     67 H67        16.8236  -28.6107  -45.5051 H         1 UNK         0.0849 
     68 H68        15.0841  -28.6390  -45.5240 H         1 UNK         0.0849 
     69 H69        17.2337  -32.3720  -45.6687 H         1 UNK         0.0865 
     70 H70        16.7452  -31.1277  -46.7890 H         1 UNK         0.0865 
     71 H71        18.8195  -31.3444  -43.6233 H         1 UNK         0.1346 
     72 H72        22.0922  -29.1851  -45.3380 H         1 UNK         0.1412 
     73 H73        18.5243  -29.8182  -47.6253 H         1 UNK         0.1426 
     74 H74        20.5907  -29.0187  -48.7094 H         1 UNK         0.0716 
     75 H75        22.0531  -28.7606  -47.7974 H         1 UNK         0.0716 
     76 H76        22.6628  -25.9440  -46.8993 H         1 UNK         0.0695 
     77 H77        22.0303  -27.0975  -45.7721 H         1 UNK         0.0695 
     78 H78        21.2156  -24.1993  -46.1257 H         1 UNK         0.0983 
     79 H79        19.3651  -26.1317  -45.4867 H         1 UNK         0.3095 
     80 H80        17.1139  -23.9836  -43.7059 H         1 UNK         0.0454 
     81 H81        17.2203  -23.2196  -46.1447 H         1 UNK         0.0851 
     82 H82        15.8083  -24.1855  -45.7945 H         1 UNK         0.0851 
     83 H83        17.1769  -24.9050  -46.6401 H         1 UNK         0.0851 
     84 H84        18.0186  -26.6160  -43.9662 H         1 UNK         0.2976 
     85 H85        21.0331  -25.9900  -43.1302 H         1 UNK         0.3116 
     86 H86        22.1417  -26.0160  -41.2105 H         1 UNK         0.0646 
     87 H87        23.2069  -23.9642  -40.3754 H         1 UNK         0.0847 
     88 H88        23.2908  -23.2910  -41.9950 H         1 UNK         0.0847 
     89 H89        21.7265  -23.5563  -41.2274 H         1 UNK         0.0847 
     90 H90        23.2203  -27.6264  -43.0201 H         1 UNK         0.3040 
     91 H91        26.1306  -27.2806  -43.2458 H         1 UNK         0.1015 
     92 H92        25.9645  -29.3569  -44.6241 H         1 UNK         0.0786 
     93 H93        24.8843  -28.1017  -45.1967 H         1 UNK         0.0786 
     94 H94        24.2396  -29.4611  -44.2887 H         1 UNK         0.0786 
     95 H95        24.8808  -30.5045  -42.6827 H         1 UNK         0.3172 
     96 H96        25.7490  -30.6887  -39.9147 H         1 UNK         0.0595 
     97 H97        27.2023  -32.2750  -42.1196 H         1 UNK         0.0839 
     98 H98        27.4860  -32.4147  -40.3884 H         1 UNK         0.0839 
     99 H99        27.9161  -30.9383  -41.2225 H         1 UNK         0.0839 
    100 H100       25.7597  -33.3581  -39.6064 H         1 UNK         0.2998 
    101 H101       24.5001  -35.1455  -39.2465 H         1 UNK         0.0822 
    102 H102       23.2529  -36.1624  -41.1665 H         1 UNK         0.0787 
    103 H103       23.4769  -34.6921  -42.1102 H         1 UNK         0.0787 
    104 H104       24.8653  -35.6523  -41.6262 H         1 UNK         0.0787 
    105 H105       21.7390  -34.2980  -41.1364 H         1 UNK         0.3055 
    106 H106       19.9378  -34.1415  -38.9299 H         1 UNK         0.1106 
    107 H107       19.2262  -34.8510  -41.2024 H         1 UNK         0.0828 
    108 H108       18.2918  -33.4546  -40.6962 H         1 UNK         0.0828 
    109 H109       19.6005  -33.2544  -41.8521 H         1 UNK         0.0828 
    110 H110       21.9090  -31.7071  -40.4599 H         1 UNK         0.2931 
    111 H111       20.5052  -29.4340  -39.2305 H         1 UNK         0.0412 
    112 H112       22.6071  -31.7798  -37.8743 H         1 UNK         0.3472 
    113 H113       23.3031  -30.7209  -36.6739 H         1 UNK         0.3472 
    114 H114       22.4168  -28.1159  -40.2611 H         1 UNK         0.0970 
    115 H115       23.0316  -29.5897  -40.9372 H         1 UNK         0.0970 
    116 H116       22.3649  -30.4534  -43.2366 H         1 UNK         0.0612 
    117 H117       20.9916  -31.2305  -42.4853 H         1 UNK         0.0612 
@<TRIPOS>BOND
     1    1    2 1    
     2    1   62 1    
     3    1   63 1    
     4    1   64 1    
     5    2    3 2    
     6    2    4 am   BACKBONE|DICT|INTERRES
     7    4    5 1    
     8    4   65 1    
     9    5    6 1    
    10    5   25 1    
    11    5   66 1    
    12    6    7 1    
    13    6   67 1    
    14    6   68 1    
    15    7    8 1    
    16    8    9 1    
    17    8   69 1    
    18    8   70 1    
    19    9   10 ar   
    20    9   14 ar   
    21   10   11 ar   
    22   10   71 1    
    23   11   12 ar   
    24   11   61 1    
    25   12   13 ar   
    26   12   72 1    
    27   13   14 ar   
    28   13   15 1    
    29   14   73 1    
    30   15   16 1    
    31   15   74 1    
    32   15   75 1    
    33   16   17 1    
    34   17   18 1    
    35   17   76 1    
    36   17   77 1    
    37   18   19 1    
    38   18   27 1    
    39   18   78 1    
    40   19   20 am   BACKBONE|DICT|INTERRES
    41   19   79 1    
    42   20   21 2    
    43   20   22 1    
    44   22   23 1    
    45   22   24 1    
    46   22   80 1    
    47   23   81 1    
    48   23   82 1    
    49   23   83 1    
    50   24   25 am   BACKBONE|DICT|INTERRES
    51   24   84 1    
    52   25   26 2    
    53   27   28 2    
    54   27   29 am   BACKBONE|DICT|INTERRES
    55   29   30 1    
    56   29   85 1    
    57   30   31 1    
    58   30   32 1    
    59   30   86 1    
    60   31   87 1    
    61   31   88 1    
    62   31   89 1    
    63   32   33 2    
    64   32   34 am   BACKBONE|DICT|INTERRES
    65   34   35 1    
    66   34   90 1    
    67   35   36 1    
    68   35   37 1    
    69   35   91 1    
    70   36   92 1    
    71   36   93 1    
    72   36   94 1    
    73   37   38 2    
    74   37   39 am   BACKBONE|DICT|INTERRES
    75   39   40 1    
    76   39   95 1    
    77   40   41 1    
    78   40   42 1    
    79   40   96 1    
    80   41   97 1    
    81   41   98 1    
    82   41   99 1    
    83   42   43 2    
    84   42   44 am   BACKBONE|DICT|INTERRES
    85   44   45 1    
    86   44  100 1    
    87   45   46 1    
    88   45   47 1    
    89   45  101 1    
    90   46  102 1    
    91   46  103 1    
    92   46  104 1    
    93   47   48 2    
    94   47   49 am   BACKBONE|DICT|INTERRES
    95   49   50 1    
    96   49  105 1    
    97   50   51 1    
    98   50   52 1    
    99   50  106 1    
   100   51  107 1    
   101   51  108 1    
   102   51  109 1    
   103   52   53 2    
   104   52   54 am   BACKBONE|DICT|INTERRES
   105   54   55 1    
   106   54  110 1    
   107   55   56 1    
   108   55   59 1    
   109   55  111 1    
   110   56   57 am   BACKBONE|DICT|INTERRES
   111   56   58 2    
   112   57  112 1    
   113   57  113 1    
   114   59   60 1    
   115   59  114 1    
   116   59  115 1    
   117   60   61 1    
   118   61  116 1    
   119   61  117 1    
@<TRIPOS>SUBSTRUCTURE
     1 UNK         1 GROUP             0       ****    0 ROOT    
