@<TRIPOS>MOLECULE
3R8
117   119    1
SMALL
USER_CHARGES


@<TRIPOS>ATOM
      1 CA         17.6438  -26.2527  -41.3559 C.3       0 UNK        -0.2013 
      2 C          17.7427  -26.3123  -42.8710 C.2       0 UNK         0.4866 
      3 O          18.8116  -26.6037  -43.4069 O.2       0 UNK        -0.5176 
      4 N          16.6343  -26.0177  -43.5628 N.am      1 UNK        -0.4884 
      5 CA         16.4962  -26.0272  -45.0274 C.3       1 UNK         0.0853 
      6 C6         16.5095  -27.4639  -45.6306 C.3       10 UNK        -0.0849 
      7 S7         15.2720  -28.5624  -44.8503 S.3       10 UNK        -0.2776 
      8 C8         16.1076  -30.1867  -44.8515 C.3       10 UNK         0.0316 
      9 C9         17.4371  -30.1730  -44.1071 C.ar      10 UNK        -0.0863 
     10 C10        17.4746  -29.9777  -42.7219 C.ar      10 UNK        -0.1009 
     11 C11        18.6981  -29.9258  -42.0457 C.ar      10 UNK        -0.0712 
     12 C12        19.8847  -30.0868  -42.7642 C.ar      10 UNK        -0.0894 
     13 C13        19.8605  -30.3028  -44.1438 C.ar      10 UNK        -0.0745 
     14 C14        18.6340  -30.3483  -44.8103 C.ar      10 UNK        -0.0972 
     15 C15        21.1628  -30.4879  -44.9083 C.3       10 UNK         0.0209 
     16 S16        21.6598  -28.9895  -45.8169 S.3       10 UNK        -0.2568 
     17 C17        22.0102  -27.8403  -44.4431 C.3       10 UNK        -0.0983 
     18 CA         22.0211  -26.3513  -44.8661 C.3       3 UNK         0.0876 
     19 N          20.8102  -25.9788  -45.6063 N.am      3 UNK        -0.4424 
     20 C          20.7287  -24.9659  -46.4794 C.2       2 UNK         0.4918 
     21 O          21.6581  -24.1913  -46.7089 O.2       2 UNK        -0.4875 
     22 CA         19.4096  -24.7969  -47.2604 C.3       2 UNK         0.0481 
     23 CB         19.5904  -25.2721  -48.7115 C.3       2 UNK        -0.1831 
     24 N          18.2912  -25.5292  -46.6603 N.am      2 UNK        -0.4498 
     25 C          17.5174  -25.0568  -45.6727 C.2       1 UNK         0.5027 
     26 O          17.5999  -23.9038  -45.2419 O.2       1 UNK        -0.4969 
     27 C          22.2237  -25.4720  -43.6171 C.2       3 UNK         0.5005 
     28 O          23.3630  -25.2731  -43.1939 O.2       3 UNK        -0.5279 
     29 N          21.1123  -25.0156  -43.0209 N.am      4 UNK        -0.4463 
     30 CA         20.9573  -24.2749  -41.7617 C.3       4 UNK         0.0283 
     31 CB         21.8050  -22.9886  -41.7260 C.3       4 UNK        -0.1875 
     32 C          21.1834  -25.1393  -40.5080 C.2       4 UNK         0.4949 
     33 O          20.4355  -24.9936  -39.5413 O.2       4 UNK        -0.5039 
     34 N          22.1750  -26.0335  -40.5479 N.am      5 UNK        -0.4663 
     35 CA         22.4953  -27.0149  -39.5154 C.3       5 UNK         0.0242 
     36 CB         23.1985  -26.3307  -38.3191 C.3       5 UNK        -0.1982 
     37 C          23.2998  -28.1476  -40.1748 C.2       5 UNK         0.5017 
     38 O          22.8435  -28.6857  -41.1846 O.2       5 UNK        -0.5012 
     39 N          24.4788  -28.4572  -39.6139 N.am      6 UNK        -0.4439 
     40 CA         25.4599  -29.4701  -40.0267 C.3       6 UNK         0.0297 
     41 CB         25.8835  -29.2745  -41.4996 C.3       6 UNK        -0.2006 
     42 C          25.0081  -30.9178  -39.7621 C.2       6 UNK         0.4892 
     43 O          23.8268  -31.1874  -39.5338 O.2       6 UNK        -0.5089 
     44 N          25.9787  -31.8417  -39.8257 N.am      7 UNK        -0.4243 
     45 CA         25.7857  -33.2891  -39.6600 C.3       7 UNK         0.0196 
     46 CB         27.1560  -33.9851  -39.6427 C.3       7 UNK        -0.2007 
     47 C          24.8757  -33.9206  -40.7295 C.2       7 UNK         0.5020 
     48 O          24.2652  -34.9578  -40.4710 O.2       7 UNK        -0.5147 
     49 N          24.7578  -33.2584  -41.8893 N.am      8 UNK        -0.4734 
     50 CA         23.8328  -33.5882  -42.9770 C.3       8 UNK         0.0238 
     51 CB         24.1426  -32.6841  -44.1816 C.3       8 UNK        -0.1912 
     52 C          22.3408  -33.5104  -42.5895 C.2       8 UNK         0.5038 
     53 O          21.5178  -34.0930  -43.2962 O.2       8 UNK        -0.5046 
     54 N          22.0191  -32.8341  -41.4758 N.am      9 UNK        -0.4200 
     55 CA         20.7010  -32.8826  -40.8251 C.3       9 UNK         0.0839 
     56 C          20.3565  -34.2647  -40.1874 C.2       9 UNK         0.5513 
     57 N          21.3173  -35.1512  -39.9472 N.am      9 UNK        -0.7519 
     58 O          19.1926  -34.5489  -39.9185 O.2       9 UNK        -0.4960 
     59 C59        20.5465  -31.7218  -39.8037 C.3       10 UNK        -0.0876 
     60 S60        18.8128  -31.1929  -39.5742 S.3       10 UNK        -0.2414 
     61 C61        18.7446  -29.6576  -40.5485 C.3       10 UNK         0.0169 
     62 H62        17.6205  -25.2176  -41.0164 H         1 UNK         0.0903 
     63 H63        18.5055  -26.7375  -40.8988 H         1 UNK         0.0903 
     64 H64        16.7446  -26.7575  -41.0037 H         1 UNK         0.0903 
     65 H65        15.7983  -25.7578  -43.0587 H         1 UNK         0.3096 
     66 H66        15.5169  -25.5954  -45.2405 H         1 UNK         0.1121 
     67 H67        17.5013  -27.9037  -45.5257 H         1 UNK         0.0849 
     68 H68        16.2907  -27.4360  -46.6995 H         1 UNK         0.0849 
     69 H69        15.4486  -30.9222  -44.3883 H         1 UNK         0.0865 
     70 H70        16.2446  -30.5111  -45.8843 H         1 UNK         0.0865 
     71 H71        16.5513  -29.8398  -42.1762 H         1 UNK         0.1346 
     72 H72        20.8344  -30.0336  -42.2510 H         1 UNK         0.1412 
     73 H73        18.6168  -30.5035  -45.8804 H         1 UNK         0.1426 
     74 H74        21.9623  -30.7661  -44.2227 H         1 UNK         0.0716 
     75 H75        21.0588  -31.3153  -45.6117 H         1 UNK         0.0716 
     76 H76        22.9694  -28.1210  -44.0031 H         1 UNK         0.0695 
     77 H77        21.2647  -27.9884  -43.6618 H         1 UNK         0.0695 
     78 H78        22.8837  -26.1942  -45.5177 H         1 UNK         0.0983 
     79 H79        19.9932  -26.5451  -45.4219 H         1 UNK         0.3095 
     80 H80        19.1743  -23.7308  -47.2837 H         1 UNK         0.0454 
     81 H81        18.6850  -25.1133  -49.2975 H         1 UNK         0.0851 
     82 H82        19.8436  -26.3318  -48.7626 H         1 UNK         0.0851 
     83 H83        20.3930  -24.7224  -49.2053 H         1 UNK         0.0851 
     84 H84        18.1603  -26.4816  -46.9688 H         1 UNK         0.2976 
     85 H85        20.2378  -25.3803  -43.3949 H         1 UNK         0.3116 
     86 H86        19.9100  -23.9696  -41.7417 H         1 UNK         0.0646 
     87 H87        21.6221  -22.3678  -42.6029 H         1 UNK         0.0847 
     88 H88        21.5602  -22.3906  -40.8475 H         1 UNK         0.0847 
     89 H89        22.8733  -23.2008  -41.6802 H         1 UNK         0.0847 
     90 H90        22.7287  -26.0899  -41.3973 H         1 UNK         0.3040 
     91 H91        21.5642  -27.4635  -39.1624 H         1 UNK         0.1015 
     92 H92        24.1301  -25.8472  -38.6164 H         1 UNK         0.0786 
     93 H93        23.4224  -27.0447  -37.5254 H         1 UNK         0.0786 
     94 H94        22.5631  -25.5650  -37.8739 H         1 UNK         0.0786 
     95 H95        24.7231  -27.9516  -38.7740 H         1 UNK         0.3172 
     96 H96        26.3370  -29.2942  -39.4019 H         1 UNK         0.0595 
     97 H97        25.0870  -29.5436  -42.1943 H         1 UNK         0.0839 
     98 H98        26.7481  -29.8902  -41.7492 H         1 UNK         0.0839 
     99 H99        26.1617  -28.2394  -41.6979 H         1 UNK         0.0839 
    100 H100       26.9238  -31.5354  -40.0091 H         1 UNK         0.2998 
    101 H101       25.3050  -33.4501  -38.6926 H         1 UNK         0.0822 
    102 H102       27.6952  -33.8398  -40.5797 H         1 UNK         0.0787 
    103 H103       27.7818  -33.6114  -38.8319 H         1 UNK         0.0787 
    104 H104       27.0455  -35.0603  -39.4939 H         1 UNK         0.0787 
    105 H105       25.3067  -32.4193  -42.0043 H         1 UNK         0.3055 
    106 H106       24.0223  -34.6236  -43.2688 H         1 UNK         0.1106 
    107 H107       25.1404  -32.8802  -44.5744 H         1 UNK         0.0828 
    108 H108       23.4386  -32.8565  -44.9972 H         1 UNK         0.0828 
    109 H109       24.0917  -31.6274  -43.9184 H         1 UNK         0.0828 
    110 H110       22.7547  -32.3763  -40.9500 H         1 UNK         0.2931 
    111 H111       19.9690  -32.7268  -41.6199 H         1 UNK         0.0412 
    112 H112       22.2872  -34.9561  -40.1712 H         1 UNK         0.3472 
    113 H113       21.0708  -36.0401  -39.5416 H         1 UNK         0.3472 
    114 H114       21.1289  -30.8546  -40.1174 H         1 UNK         0.0970 
    115 H115       20.9640  -31.9991  -38.8338 H         1 UNK         0.0970 
    116 H116       17.8562  -29.1016  -40.2465 H         1 UNK         0.0612 
    117 H117       19.5973  -29.0222  -40.3033 H         1 UNK         0.0612 
@<TRIPOS>BOND
     1    1    2 1    
     2    1   62 1    
     3    1   63 1    
     4    1   64 1    
     5    2    3 2    
     6    2    4 am   BACKBONE|DICT|INTERRES
     7    4    5 1    
     8    4   65 1    
     9    5    6 1    
    10    5   25 1    
    11    5   66 1    
    12    6    7 1    
    13    6   67 1    
    14    6   68 1    
    15    7    8 1    
    16    8    9 1    
    17    8   69 1    
    18    8   70 1    
    19    9   10 ar   
    20    9   14 ar   
    21   10   11 ar   
    22   10   71 1    
    23   11   12 ar   
    24   11   61 1    
    25   12   13 ar   
    26   12   72 1    
    27   13   14 ar   
    28   13   15 1    
    29   14   73 1    
    30   15   16 1    
    31   15   74 1    
    32   15   75 1    
    33   16   17 1    
    34   17   18 1    
    35   17   76 1    
    36   17   77 1    
    37   18   19 1    
    38   18   27 1    
    39   18   78 1    
    40   19   20 am   BACKBONE|DICT|INTERRES
    41   19   79 1    
    42   20   21 2    
    43   20   22 1    
    44   22   23 1    
    45   22   24 1    
    46   22   80 1    
    47   23   81 1    
    48   23   82 1    
    49   23   83 1    
    50   24   25 am   BACKBONE|DICT|INTERRES
    51   24   84 1    
    52   25   26 2    
    53   27   28 2    
    54   27   29 am   BACKBONE|DICT|INTERRES
    55   29   30 1    
    56   29   85 1    
    57   30   31 1    
    58   30   32 1    
    59   30   86 1    
    60   31   87 1    
    61   31   88 1    
    62   31   89 1    
    63   32   33 2    
    64   32   34 am   BACKBONE|DICT|INTERRES
    65   34   35 1    
    66   34   90 1    
    67   35   36 1    
    68   35   37 1    
    69   35   91 1    
    70   36   92 1    
    71   36   93 1    
    72   36   94 1    
    73   37   38 2    
    74   37   39 am   BACKBONE|DICT|INTERRES
    75   39   40 1    
    76   39   95 1    
    77   40   41 1    
    78   40   42 1    
    79   40   96 1    
    80   41   97 1    
    81   41   98 1    
    82   41   99 1    
    83   42   43 2    
    84   42   44 am   BACKBONE|DICT|INTERRES
    85   44   45 1    
    86   44  100 1    
    87   45   46 1    
    88   45   47 1    
    89   45  101 1    
    90   46  102 1    
    91   46  103 1    
    92   46  104 1    
    93   47   48 2    
    94   47   49 am   BACKBONE|DICT|INTERRES
    95   49   50 1    
    96   49  105 1    
    97   50   51 1    
    98   50   52 1    
    99   50  106 1    
   100   51  107 1    
   101   51  108 1    
   102   51  109 1    
   103   52   53 2    
   104   52   54 am   BACKBONE|DICT|INTERRES
   105   54   55 1    
   106   54  110 1    
   107   55   56 1    
   108   55   59 1    
   109   55  111 1    
   110   56   57 am   BACKBONE|DICT|INTERRES
   111   56   58 2    
   112   57  112 1    
   113   57  113 1    
   114   59   60 1    
   115   59  114 1    
   116   59  115 1    
   117   60   61 1    
   118   61  116 1    
   119   61  117 1    
@<TRIPOS>SUBSTRUCTURE
     1 UNK         1 GROUP             0       ****    0 ROOT    
