@<TRIPOS>MOLECULE
3R8
117   119    1
SMALL
USER_CHARGES


@<TRIPOS>ATOM
      1 CA         17.6272  -27.4779  -41.3703 C.3       0 UNK        -0.2013 
      2 C          17.2232  -26.3792  -42.3403 C.2       0 UNK         0.4866 
      3 O          16.7109  -25.3456  -41.9092 O.2       0 UNK        -0.5176 
      4 N          17.4497  -26.5990  -43.6422 N.am      1 UNK        -0.4884 
      5 CA         17.1704  -25.6392  -44.7189 C.3       1 UNK         0.0853 
      6 C6         16.6923  -26.3360  -46.0253 C.3       10 UNK        -0.0849 
      7 S7         15.3274  -27.5233  -45.7411 S.3       10 UNK        -0.2776 
      8 C8         16.0512  -29.1195  -46.2535 C.3       10 UNK         0.0316 
      9 C9         17.2311  -29.5351  -45.3837 C.ar      10 UNK        -0.0863 
     10 C10        17.0256  -30.1954  -44.1688 C.ar      10 UNK        -0.1009 
     11 C11        18.1131  -30.5797  -43.3775 C.ar      10 UNK        -0.0712 
     12 C12        19.4102  -30.2754  -43.8067 C.ar      10 UNK        -0.0894 
     13 C13        19.6357  -29.5958  -45.0050 C.ar      10 UNK        -0.0745 
     14 C14        18.5346  -29.2600  -45.8029 C.ar      10 UNK        -0.0972 
     15 C15        21.0772  -29.2423  -45.3792 C.3       10 UNK         0.0209 
     16 S16        21.2370  -28.0641  -46.7619 S.3       10 UNK        -0.2568 
     17 C17        22.7813  -27.1737  -46.3652 C.3       10 UNK        -0.0983 
     18 CA         22.5800  -25.8067  -45.6449 C.3       3 UNK         0.0876 
     19 N          21.3653  -25.1160  -46.0934 N.am      3 UNK        -0.4424 
     20 C          21.1607  -23.7943  -46.1154 C.2       2 UNK         0.4918 
     21 O          22.0180  -22.9623  -45.8196 O.2       2 UNK        -0.4875 
     22 CA         19.7432  -23.3230  -46.5038 C.3       2 UNK         0.0481 
     23 CB         19.6801  -23.0148  -48.0081 C.3       2 UNK        -0.1831 
     24 N          18.6588  -24.2568  -46.1532 N.am      2 UNK        -0.4498 
     25 C          18.3862  -24.6978  -44.9137 C.2       1 UNK         0.5027 
     26 O          19.0769  -24.3874  -43.9404 O.2       1 UNK        -0.4969 
     27 C          22.6996  -25.9116  -44.1041 C.2       3 UNK         0.5005 
     28 O          23.7126  -26.4259  -43.6270 O.2       3 UNK        -0.5279 
     29 N          21.7052  -25.4099  -43.3492 N.am      4 UNK        -0.4463 
     30 CA         21.6962  -25.2245  -41.8909 C.3       4 UNK         0.0283 
     31 CB         22.6476  -24.0749  -41.4982 C.3       4 UNK        -0.1875 
     32 C          21.9762  -26.5201  -41.1095 C.2       4 UNK         0.4949 
     33 O          22.9040  -26.5706  -40.3017 O.2       4 UNK        -0.5039 
     34 N          21.1916  -27.5625  -41.4181 N.am      5 UNK        -0.4663 
     35 CA         21.2461  -28.9346  -40.8836 C.3       5 UNK         0.0242 
     36 CB         21.1531  -28.9579  -39.3428 C.3       5 UNK        -0.1982 
     37 C          22.4367  -29.7763  -41.3811 C.2       5 UNK         0.5017 
     38 O          22.4120  -30.9942  -41.1919 O.2       5 UNK        -0.5012 
     39 N          23.4498  -29.1370  -41.9899 N.am      6 UNK        -0.4439 
     40 CA         24.6844  -29.7055  -42.5550 C.3       6 UNK         0.0297 
     41 CB         24.3570  -30.5260  -43.8201 C.3       6 UNK        -0.2006 
     42 C          25.5480  -30.5115  -41.5593 C.2       6 UNK         0.4892 
     43 O          26.4112  -31.2760  -41.9927 O.2       6 UNK        -0.5089 
     44 N          25.2728  -30.3609  -40.2530 N.am      7 UNK        -0.4243 
     45 CA         25.7295  -31.2046  -39.1390 C.3       7 UNK         0.0196 
     46 CB         27.2487  -31.0480  -38.9143 C.3       7 UNK        -0.2007 
     47 C          25.2958  -32.6837  -39.2730 C.2       7 UNK         0.5020 
     48 O          25.9207  -33.5560  -38.6676 O.2       7 UNK        -0.5147 
     49 N          24.2443  -32.9429  -40.0628 N.am      8 UNK        -0.4734 
     50 CA         23.7382  -34.2741  -40.3917 C.3       8 UNK         0.0238 
     51 CB         23.6654  -34.4188  -41.9216 C.3       8 UNK        -0.1912 
     52 C          22.3608  -34.5141  -39.7645 C.2       8 UNK         0.5038 
     53 O          22.1395  -35.5889  -39.2045 O.2       8 UNK        -0.5046 
     54 N          21.4623  -33.5253  -39.8687 N.am      9 UNK        -0.4200 
     55 CA         20.1117  -33.5791  -39.2901 C.3       9 UNK         0.0839 
     56 C          20.1383  -33.4620  -37.7425 C.2       9 UNK         0.5513 
     57 N          19.2469  -34.1601  -37.0526 N.am      9 UNK        -0.7519 
     58 O          20.9257  -32.7125  -37.1684 O.2       9 UNK        -0.4960 
     59 C59        19.1728  -32.5087  -39.8995 C.3       10 UNK        -0.0876 
     60 S60        19.0127  -32.6460  -41.7101 S.3       10 UNK        -0.2414 
     61 C61        17.8748  -31.2586  -42.0321 C.3       10 UNK         0.0169 
     62 H62        18.1619  -27.0554  -40.5199 H         1 UNK         0.0903 
     63 H63        16.7434  -27.9949  -40.9976 H         1 UNK         0.0903 
     64 H64        18.2772  -28.2079  -41.8462 H         1 UNK         0.0903 
     65 H65        17.8312  -27.4853  -43.9432 H         1 UNK         0.3096 
     66 H66        16.3524  -24.9913  -44.3957 H         1 UNK         0.1121 
     67 H67        16.3176  -25.5924  -46.7308 H         1 UNK         0.0849 
     68 H68        17.5186  -26.8334  -46.5308 H         1 UNK         0.0849 
     69 H69        15.2769  -29.8868  -46.2058 H         1 UNK         0.0865 
     70 H70        16.3488  -29.0606  -47.3017 H         1 UNK         0.0865 
     71 H71        16.0167  -30.4041  -43.8390 H         1 UNK         0.1346 
     72 H72        20.2563  -30.5701  -43.2037 H         1 UNK         0.1412 
     73 H73        18.6771  -28.7705  -46.7547 H         1 UNK         0.1426 
     74 H74        21.6149  -30.1567  -45.6329 H         1 UNK         0.0716 
     75 H75        21.5686  -28.8196  -44.5017 H         1 UNK         0.0716 
     76 H76        23.2720  -26.9865  -47.3214 H         1 UNK         0.0695 
     77 H77        23.4650  -27.8327  -45.8271 H         1 UNK         0.0695 
     78 H78        23.4277  -25.1803  -45.9325 H         1 UNK         0.0983 
     79 H79        20.6121  -25.7251  -46.3796 H         1 UNK         0.3095 
     80 H80        19.5551  -22.3943  -45.9613 H         1 UNK         0.0454 
     81 H81        20.4566  -22.3038  -48.2942 H         1 UNK         0.0851 
     82 H82        18.7233  -22.5717  -48.2845 H         1 UNK         0.0851 
     83 H83        19.8232  -23.9122  -48.6114 H         1 UNK         0.0851 
     84 H84        18.0578  -24.5443  -46.9120 H         1 UNK         0.2976 
     85 H85        20.8877  -25.0306  -43.8201 H         1 UNK         0.3116 
     86 H86        20.6834  -24.9176  -41.6245 H         1 UNK         0.0646 
     87 H87        23.6872  -24.3141  -41.7253 H         1 UNK         0.0847 
     88 H88        22.3936  -23.1540  -42.0232 H         1 UNK         0.0847 
     89 H89        22.5880  -23.8651  -40.4295 H         1 UNK         0.0847 
     90 H90        20.5042  -27.4074  -42.1417 H         1 UNK         0.3040 
     91 H91        20.3529  -29.4360  -41.2520 H         1 UNK         0.1015 
     92 H92        21.1141  -29.9796  -38.9642 H         1 UNK         0.0786 
     93 H93        20.2551  -28.4488  -38.9928 H         1 UNK         0.0786 
     94 H94        22.0127  -28.4866  -38.8671 H         1 UNK         0.0786 
     95 H95        23.3797  -28.1279  -42.0645 H         1 UNK         0.3172 
     96 H96        25.2952  -28.8547  -42.8602 H         1 UNK         0.0595 
     97 H97        23.7406  -31.3959  -43.5913 H         1 UNK         0.0839 
     98 H98        25.2645  -30.8889  -44.3042 H         1 UNK         0.0839 
     99 H99        23.8298  -29.9212  -44.5554 H         1 UNK         0.0839 
    100 H100       24.5580  -29.6864  -40.0183 H         1 UNK         0.2998 
    101 H101       25.2246  -30.8273  -38.2485 H         1 UNK         0.0822 
    102 H102       27.5623  -31.5473  -37.9967 H         1 UNK         0.0787 
    103 H103       27.5304  -29.9991  -38.8225 H         1 UNK         0.0787 
    104 H104       27.8263  -31.4809  -39.7315 H         1 UNK         0.0787 
    105 H105       23.7584  -32.1612  -40.4940 H         1 UNK         0.3055 
    106 H106       24.4133  -35.0438  -40.0104 H         1 UNK         0.1106 
    107 H107       24.6490  -34.2972  -42.3758 H         1 UNK         0.0828 
    108 H108       23.2966  -35.4058  -42.2039 H         1 UNK         0.0828 
    109 H109       22.9992  -33.6798  -42.3691 H         1 UNK         0.0828 
    110 H110       21.7180  -32.6657  -40.3414 H         1 UNK         0.2931 
    111 H111       19.6940  -34.5565  -39.5419 H         1 UNK         0.0412 
    112 H112       19.2371  -34.0851  -36.0470 H         1 UNK         0.3472 
    113 H113       18.5916  -34.7716  -37.5151 H         1 UNK         0.3472 
    114 H114       18.1736  -32.5921  -39.4672 H         1 UNK         0.0970 
    115 H115       19.5284  -31.5077  -39.6554 H         1 UNK         0.0970 
    116 H116       17.9806  -30.5082  -41.2488 H         1 UNK         0.0612 
    117 H117       16.8523  -31.6329  -41.9636 H         1 UNK         0.0612 
@<TRIPOS>BOND
     1    1    2 1    
     2    1   62 1    
     3    1   63 1    
     4    1   64 1    
     5    2    3 2    
     6    2    4 am   BACKBONE|DICT|INTERRES
     7    4    5 1    
     8    4   65 1    
     9    5    6 1    
    10    5   25 1    
    11    5   66 1    
    12    6    7 1    
    13    6   67 1    
    14    6   68 1    
    15    7    8 1    
    16    8    9 1    
    17    8   69 1    
    18    8   70 1    
    19    9   10 ar   
    20    9   14 ar   
    21   10   11 ar   
    22   10   71 1    
    23   11   12 ar   
    24   11   61 1    
    25   12   13 ar   
    26   12   72 1    
    27   13   14 ar   
    28   13   15 1    
    29   14   73 1    
    30   15   16 1    
    31   15   74 1    
    32   15   75 1    
    33   16   17 1    
    34   17   18 1    
    35   17   76 1    
    36   17   77 1    
    37   18   19 1    
    38   18   27 1    
    39   18   78 1    
    40   19   20 am   BACKBONE|DICT|INTERRES
    41   19   79 1    
    42   20   21 2    
    43   20   22 1    
    44   22   23 1    
    45   22   24 1    
    46   22   80 1    
    47   23   81 1    
    48   23   82 1    
    49   23   83 1    
    50   24   25 am   BACKBONE|DICT|INTERRES
    51   24   84 1    
    52   25   26 2    
    53   27   28 2    
    54   27   29 am   BACKBONE|DICT|INTERRES
    55   29   30 1    
    56   29   85 1    
    57   30   31 1    
    58   30   32 1    
    59   30   86 1    
    60   31   87 1    
    61   31   88 1    
    62   31   89 1    
    63   32   33 2    
    64   32   34 am   BACKBONE|DICT|INTERRES
    65   34   35 1    
    66   34   90 1    
    67   35   36 1    
    68   35   37 1    
    69   35   91 1    
    70   36   92 1    
    71   36   93 1    
    72   36   94 1    
    73   37   38 2    
    74   37   39 am   BACKBONE|DICT|INTERRES
    75   39   40 1    
    76   39   95 1    
    77   40   41 1    
    78   40   42 1    
    79   40   96 1    
    80   41   97 1    
    81   41   98 1    
    82   41   99 1    
    83   42   43 2    
    84   42   44 am   BACKBONE|DICT|INTERRES
    85   44   45 1    
    86   44  100 1    
    87   45   46 1    
    88   45   47 1    
    89   45  101 1    
    90   46  102 1    
    91   46  103 1    
    92   46  104 1    
    93   47   48 2    
    94   47   49 am   BACKBONE|DICT|INTERRES
    95   49   50 1    
    96   49  105 1    
    97   50   51 1    
    98   50   52 1    
    99   50  106 1    
   100   51  107 1    
   101   51  108 1    
   102   51  109 1    
   103   52   53 2    
   104   52   54 am   BACKBONE|DICT|INTERRES
   105   54   55 1    
   106   54  110 1    
   107   55   56 1    
   108   55   59 1    
   109   55  111 1    
   110   56   57 am   BACKBONE|DICT|INTERRES
   111   56   58 2    
   112   57  112 1    
   113   57  113 1    
   114   59   60 1    
   115   59  114 1    
   116   59  115 1    
   117   60   61 1    
   118   61  116 1    
   119   61  117 1    
@<TRIPOS>SUBSTRUCTURE
     1 UNK         1 GROUP             0       ****    0 ROOT    
