@<TRIPOS>MOLECULE
3R8
117   119    1
SMALL
USER_CHARGES


@<TRIPOS>ATOM
      1 CA         16.8707  -29.5296  -48.8038 C.3       0 UNK        -0.2013 
      2 C          17.2563  -29.0131  -47.4263 C.2       0 UNK         0.4866 
      3 O          18.2813  -29.4239  -46.8811 O.2       0 UNK        -0.5176 
      4 N          16.4549  -28.1013  -46.8615 N.am      1 UNK        -0.4884 
      5 CA         16.6295  -27.5121  -45.5254 C.3       1 UNK         0.0853 
      6 C6         15.2734  -27.0507  -44.9233 C.3       10 UNK        -0.0849 
      7 S7         14.0903  -28.4365  -44.7477 S.3       10 UNK        -0.2776 
      8 C8         14.2319  -28.8678  -42.9786 C.3       10 UNK         0.0316 
      9 C9         15.6755  -29.1259  -42.5721 C.ar      10 UNK        -0.0863 
     10 C10        16.3404  -30.2756  -43.0077 C.ar      10 UNK        -0.1009 
     11 C11        17.6949  -30.4628  -42.7159 C.ar      10 UNK        -0.0712 
     12 C12        18.3814  -29.4961  -41.9732 C.ar      10 UNK        -0.0894 
     13 C13        17.7188  -28.3548  -41.5096 C.ar      10 UNK        -0.0745 
     14 C14        16.3621  -28.1853  -41.8004 C.ar      10 UNK        -0.0972 
     15 C15        18.4656  -27.2971  -40.7083 C.3       10 UNK         0.0209 
     16 S16        18.3598  -25.6654  -41.5095 S.3       10 UNK        -0.2568 
     17 C17        20.0505  -25.0218  -41.2867 C.3       10 UNK        -0.0983 
     18 CA         21.0476  -25.5407  -42.3588 C.3       3 UNK         0.0876 
     19 N          20.5191  -25.3857  -43.7206 N.am      3 UNK        -0.4424 
     20 C          20.8828  -26.1042  -44.7877 C.2       2 UNK         0.4918 
     21 O          21.7816  -26.9478  -44.7681 O.2       2 UNK        -0.4875 
     22 CA         20.0774  -25.8668  -46.0723 C.3       2 UNK         0.0481 
     23 CB         20.8951  -26.1860  -47.3365 C.3       2 UNK        -0.1831 
     24 N          18.8927  -26.7194  -46.0455 N.am      2 UNK        -0.4498 
     25 C          17.7023  -26.3973  -45.5247 C.2       1 UNK         0.5027 
     26 O          17.4417  -25.2787  -45.0776 O.2       1 UNK        -0.4969 
     27 C          22.4512  -24.9087  -42.2034 C.2       3 UNK         0.5005 
     28 O          22.6626  -24.0708  -41.3230 O.2       3 UNK        -0.5279 
     29 N          23.3967  -25.3100  -43.0629 N.am      4 UNK        -0.4463 
     30 CA         24.7812  -24.8315  -43.1188 C.3       4 UNK         0.0283 
     31 CB         25.3463  -25.1213  -44.5219 C.3       4 UNK        -0.1875 
     32 C          25.6511  -25.4297  -41.9950 C.2       4 UNK         0.4949 
     33 O          26.6361  -26.1158  -42.2741 O.2       4 UNK        -0.5039 
     34 N          25.2473  -25.1797  -40.7418 N.am      5 UNK        -0.4663 
     35 CA         25.8220  -25.6231  -39.4621 C.3       5 UNK         0.0242 
     36 CB         27.2584  -25.0972  -39.2734 C.3       5 UNK        -0.1982 
     37 C          25.7486  -27.1423  -39.2265 C.2       5 UNK         0.5017 
     38 O          25.2395  -27.5711  -38.1901 O.2       5 UNK        -0.5012 
     39 N          26.2323  -27.9321  -40.1910 N.am      6 UNK        -0.4439 
     40 CA         26.2332  -29.3948  -40.1942 C.3       6 UNK         0.0297 
     41 CB         27.3559  -29.8875  -41.1258 C.3       6 UNK        -0.2006 
     42 C          24.8530  -29.9551  -40.5844 C.2       6 UNK         0.4892 
     43 O          24.7232  -30.6396  -41.6014 O.2       6 UNK        -0.5089 
     44 N          23.8371  -29.6609  -39.7636 N.am      7 UNK        -0.4243 
     45 CA         22.4369  -30.0672  -39.9309 C.3       7 UNK         0.0196 
     46 CB         21.5490  -29.1191  -39.1033 C.3       7 UNK        -0.2007 
     47 C          22.1871  -31.5560  -39.5999 C.2       7 UNK         0.5020 
     48 O          21.2378  -31.8808  -38.8858 O.2       7 UNK        -0.5147 
     49 N          23.0479  -32.4389  -40.1196 N.am      8 UNK        -0.4734 
     50 CA         22.9471  -33.8951  -39.9869 C.3       8 UNK         0.0238 
     51 CB         24.3517  -34.5062  -40.1219 C.3       8 UNK        -0.1912 
     52 C          21.9880  -34.5173  -41.0169 C.2       8 UNK         0.5038 
     53 O          21.5075  -35.6286  -40.7919 O.2       8 UNK        -0.5046 
     54 N          21.7398  -33.7968  -42.1203 N.am      9 UNK        -0.4200 
     55 CA         20.8535  -34.1693  -43.2373 C.3       9 UNK         0.0839 
     56 C          21.3546  -35.3699  -44.0974 C.2       9 UNK         0.5513 
     57 N          22.6220  -35.7572  -44.0173 N.am      9 UNK        -0.7519 
     58 O          20.5943  -35.9415  -44.8749 O.2       9 UNK        -0.4960 
     59 C59        19.3592  -34.3156  -42.8225 C.3       10 UNK        -0.0876 
     60 S60        18.7072  -32.8904  -41.8860 S.3       10 UNK        -0.2414 
     61 C61        18.4226  -31.6962  -43.2260 C.3       10 UNK         0.0169 
     62 H62        15.9452  -29.0804  -49.1638 H         1 UNK         0.0903 
     63 H63        17.6588  -29.3063  -49.5223 H         1 UNK         0.0903 
     64 H64        16.7333  -30.6101  -48.7730 H         1 UNK         0.0903 
     65 H65        15.6350  -27.7895  -47.3629 H         1 UNK         0.3096 
     66 H66        17.0285  -28.2867  -44.8682 H         1 UNK         0.1121 
     67 H67        15.4168  -26.5797  -43.9494 H         1 UNK         0.0849 
     68 H68        14.8174  -26.2880  -45.5569 H         1 UNK         0.0849 
     69 H69        13.6328  -29.7572  -42.7783 H         1 UNK         0.0865 
     70 H70        13.7969  -28.0660  -42.3796 H         1 UNK         0.0865 
     71 H71        15.8099  -31.0057  -43.6040 H         1 UNK         0.1346 
     72 H72        19.4309  -29.6394  -41.7557 H         1 UNK         0.1412 
     73 H73        15.8527  -27.2948  -41.4574 H         1 UNK         0.1426 
     74 H74        19.5114  -27.5800  -40.5931 H         1 UNK         0.0716 
     75 H75        18.0464  -27.2347  -39.7033 H         1 UNK         0.0716 
     76 H76        20.3959  -25.2714  -40.2815 H         1 UNK         0.0695 
     77 H77        19.9856  -23.9326  -41.3237 H         1 UNK         0.0695 
     78 H78        21.1802  -26.6100  -42.1791 H         1 UNK         0.0983 
     79 H79        19.7466  -24.7412  -43.8180 H         1 UNK         0.3095 
     80 H80        19.7855  -24.8154  -46.1160 H         1 UNK         0.0454 
     81 H81        21.1918  -27.2350  -47.3772 H         1 UNK         0.0851 
     82 H82        21.8062  -25.5874  -47.3727 H         1 UNK         0.0851 
     83 H83        20.3266  -25.9660  -48.2401 H         1 UNK         0.0851 
     84 H84        19.0085  -27.6758  -46.3699 H         1 UNK         0.2976 
     85 H85        23.1275  -26.0133  -43.7460 H         1 UNK         0.3116 
     86 H86        24.7796  -23.7482  -42.9808 H         1 UNK         0.0646 
     87 H87        25.3681  -26.1907  -44.7358 H         1 UNK         0.0847 
     88 H88        26.3669  -24.7483  -44.6176 H         1 UNK         0.0847 
     89 H89        24.7528  -24.6365  -45.2972 H         1 UNK         0.0847 
     90 H90        24.3839  -24.6461  -40.6632 H         1 UNK         0.3040 
     91 H91        25.2045  -25.1625  -38.6887 H         1 UNK         0.1015 
     92 H92        27.9493  -25.5113  -40.0083 H         1 UNK         0.0786 
     93 H93        27.6415  -25.3603  -38.2864 H         1 UNK         0.0786 
     94 H94        27.2953  -24.0109  -39.3552 H         1 UNK         0.0786 
     95 H95        26.5660  -27.4657  -41.0330 H         1 UNK         0.3172 
     96 H96        26.4572  -29.7506  -39.1864 H         1 UNK         0.0595 
     97 H97        27.2028  -29.5553  -42.1536 H         1 UNK         0.0839 
     98 H98        28.3305  -29.5248  -40.7987 H         1 UNK         0.0839 
     99 H99        27.4047  -30.9772  -41.1381 H         1 UNK         0.0839 
    100 H100       24.0518  -29.0914  -38.9518 H         1 UNK         0.2998 
    101 H101       22.1689  -29.9347  -40.9813 H         1 UNK         0.0822 
    102 H102       20.4920  -29.3553  -39.2338 H         1 UNK         0.0787 
    103 H103       21.7689  -29.1929  -38.0375 H         1 UNK         0.0787 
    104 H104       21.6896  -28.0803  -39.4028 H         1 UNK         0.0787 
    105 H105       23.7965  -32.0705  -40.7007 H         1 UNK         0.3055 
    106 H106       22.5605  -34.1374  -38.9941 H         1 UNK         0.1106 
    107 H107       24.3178  -35.5914  -40.0143 H         1 UNK         0.0828 
    108 H108       24.7979  -34.2878  -41.0929 H         1 UNK         0.0828 
    109 H109       25.0236  -34.1272  -39.3516 H         1 UNK         0.0828 
    110 H110       22.1986  -32.9027  -42.2084 H         1 UNK         0.2931 
    111 H111       20.9054  -33.3211  -43.9202 H         1 UNK         0.0412 
    112 H112       23.2613  -35.2912  -43.3939 H         1 UNK         0.3472 
    113 H113       22.9399  -36.5273  -44.5850 H         1 UNK         0.3472 
    114 H114       18.7289  -34.4645  -43.7011 H         1 UNK         0.0970 
    115 H115       19.2257  -35.2086  -42.2097 H         1 UNK         0.0970 
    116 H116       17.8510  -32.1729  -44.0239 H         1 UNK         0.0612 
    117 H117       19.3784  -31.4016  -43.6614 H         1 UNK         0.0612 
@<TRIPOS>BOND
     1    1    2 1    
     2    1   62 1    
     3    1   63 1    
     4    1   64 1    
     5    2    3 2    
     6    2    4 am   BACKBONE|DICT|INTERRES
     7    4    5 1    
     8    4   65 1    
     9    5    6 1    
    10    5   25 1    
    11    5   66 1    
    12    6    7 1    
    13    6   67 1    
    14    6   68 1    
    15    7    8 1    
    16    8    9 1    
    17    8   69 1    
    18    8   70 1    
    19    9   10 ar   
    20    9   14 ar   
    21   10   11 ar   
    22   10   71 1    
    23   11   12 ar   
    24   11   61 1    
    25   12   13 ar   
    26   12   72 1    
    27   13   14 ar   
    28   13   15 1    
    29   14   73 1    
    30   15   16 1    
    31   15   74 1    
    32   15   75 1    
    33   16   17 1    
    34   17   18 1    
    35   17   76 1    
    36   17   77 1    
    37   18   19 1    
    38   18   27 1    
    39   18   78 1    
    40   19   20 am   BACKBONE|DICT|INTERRES
    41   19   79 1    
    42   20   21 2    
    43   20   22 1    
    44   22   23 1    
    45   22   24 1    
    46   22   80 1    
    47   23   81 1    
    48   23   82 1    
    49   23   83 1    
    50   24   25 am   BACKBONE|DICT|INTERRES
    51   24   84 1    
    52   25   26 2    
    53   27   28 2    
    54   27   29 am   BACKBONE|DICT|INTERRES
    55   29   30 1    
    56   29   85 1    
    57   30   31 1    
    58   30   32 1    
    59   30   86 1    
    60   31   87 1    
    61   31   88 1    
    62   31   89 1    
    63   32   33 2    
    64   32   34 am   BACKBONE|DICT|INTERRES
    65   34   35 1    
    66   34   90 1    
    67   35   36 1    
    68   35   37 1    
    69   35   91 1    
    70   36   92 1    
    71   36   93 1    
    72   36   94 1    
    73   37   38 2    
    74   37   39 am   BACKBONE|DICT|INTERRES
    75   39   40 1    
    76   39   95 1    
    77   40   41 1    
    78   40   42 1    
    79   40   96 1    
    80   41   97 1    
    81   41   98 1    
    82   41   99 1    
    83   42   43 2    
    84   42   44 am   BACKBONE|DICT|INTERRES
    85   44   45 1    
    86   44  100 1    
    87   45   46 1    
    88   45   47 1    
    89   45  101 1    
    90   46  102 1    
    91   46  103 1    
    92   46  104 1    
    93   47   48 2    
    94   47   49 am   BACKBONE|DICT|INTERRES
    95   49   50 1    
    96   49  105 1    
    97   50   51 1    
    98   50   52 1    
    99   50  106 1    
   100   51  107 1    
   101   51  108 1    
   102   51  109 1    
   103   52   53 2    
   104   52   54 am   BACKBONE|DICT|INTERRES
   105   54   55 1    
   106   54  110 1    
   107   55   56 1    
   108   55   59 1    
   109   55  111 1    
   110   56   57 am   BACKBONE|DICT|INTERRES
   111   56   58 2    
   112   57  112 1    
   113   57  113 1    
   114   59   60 1    
   115   59  114 1    
   116   59  115 1    
   117   60   61 1    
   118   61  116 1    
   119   61  117 1    
@<TRIPOS>SUBSTRUCTURE
     1 UNK         1 GROUP             0       ****    0 ROOT    
