@<TRIPOS>MOLECULE
3R8
117   119    1
SMALL
USER_CHARGES


@<TRIPOS>ATOM
      1 CA         13.9912  -25.1697  -45.5051 C.3       0 UNK        -0.2013 
      2 C          15.2479  -25.9774  -45.2200 C.2       0 UNK         0.4866 
      3 O          15.9681  -25.6764  -44.2666 O.2       0 UNK        -0.5176 
      4 N          15.5185  -27.0065  -46.0335 N.am      1 UNK        -0.4884 
      5 CA         16.6797  -27.8951  -45.9080 C.3       1 UNK         0.0853 
      6 C6         17.1023  -28.5025  -47.2703 C.3       10 UNK        -0.0849 
      7 S7         17.8091  -27.2144  -48.3585 S.3       10 UNK        -0.2776 
      8 C8         19.6099  -27.4476  -48.1422 C.3       10 UNK         0.0316 
      9 C9         20.0221  -27.5015  -46.6757 C.ar      10 UNK        -0.0863 
     10 C10        20.4082  -28.7170  -46.1048 C.ar      10 UNK        -0.1009 
     11 C11        20.7196  -28.7929  -44.7466 C.ar      10 UNK        -0.0712 
     12 C12        20.6598  -27.6416  -43.9605 C.ar      10 UNK        -0.0894 
     13 C13        20.2658  -26.4148  -44.5103 C.ar      10 UNK        -0.0745 
     14 C14        19.9708  -26.3534  -45.8775 C.ar      10 UNK        -0.0972 
     15 C15        20.1174  -25.1375  -43.6796 C.3       10 UNK         0.0209 
     16 S16        20.6613  -25.2360  -41.9364 S.3       10 UNK        -0.2568 
     17 C17        19.1809  -25.8524  -41.0432 C.3       10 UNK        -0.0983 
     18 CA         19.1590  -27.3225  -40.4950 C.3       3 UNK         0.0876 
     19 N          18.3535  -28.2082  -41.3366 N.am      3 UNK        -0.4424 
     20 C          17.0269  -28.3485  -41.2447 C.2       2 UNK         0.4918 
     21 O          16.3303  -27.7635  -40.4135 O.2       2 UNK        -0.4875 
     22 CA         16.3670  -29.2203  -42.3193 C.3       2 UNK         0.0481 
     23 CB         14.8990  -29.5704  -42.0080 C.3       2 UNK        -0.1831 
     24 N          16.4547  -28.4670  -43.5622 N.am      2 UNK        -0.4498 
     25 C          16.4494  -28.9487  -44.8075 C.2       1 UNK         0.5027 
     26 O          16.2576  -30.1311  -45.0963 O.2       1 UNK        -0.4969 
     27 C          20.5147  -27.9931  -40.1867 C.2       3 UNK         0.5005 
     28 O          20.6897  -29.1814  -40.4758 O.2       3 UNK        -0.5279 
     29 N          21.4391  -27.2284  -39.5904 N.am      4 UNK        -0.4463 
     30 CA         22.8373  -27.5971  -39.3778 C.3       4 UNK         0.0283 
     31 CB         23.4764  -26.6238  -38.3680 C.3       4 UNK        -0.1875 
     32 C          23.5978  -27.6723  -40.7170 C.2       4 UNK         0.4949 
     33 O          23.6323  -28.7384  -41.3310 O.2       4 UNK        -0.5039 
     34 N          24.2085  -26.5509  -41.1341 N.am      5 UNK        -0.4663 
     35 CA         24.9753  -26.3677  -42.3793 C.3       5 UNK         0.0242 
     36 CB         24.0222  -26.3531  -43.5935 C.3       5 UNK        -0.1982 
     37 C          26.1277  -27.3799  -42.5555 C.2       5 UNK         0.5017 
     38 O          26.3919  -27.8220  -43.6742 O.2       5 UNK        -0.5012 
     39 N          26.7492  -27.7770  -41.4341 N.am      6 UNK        -0.4439 
     40 CA         27.7729  -28.8215  -41.2597 C.3       6 UNK         0.0297 
     41 CB         29.0429  -28.5129  -42.0773 C.3       6 UNK        -0.2006 
     42 C          27.2875  -30.2655  -41.5138 C.2       6 UNK         0.4892 
     43 O          27.8435  -31.1888  -40.9181 O.2       6 UNK        -0.5089 
     44 N          26.2710  -30.4453  -42.3668 N.am      7 UNK        -0.4243 
     45 CA         25.6354  -31.7248  -42.6849 C.3       7 UNK         0.0196 
     46 CB         24.7391  -31.5447  -43.9207 C.3       7 UNK        -0.2007 
     47 C          24.8256  -32.3069  -41.5143 C.2       7 UNK         0.5020 
     48 O          24.8007  -33.5276  -41.3561 O.2       7 UNK        -0.5147 
     49 N          24.1859  -31.4280  -40.7269 N.am      8 UNK        -0.4734 
     50 CA         23.3321  -31.7243  -39.5695 C.3       8 UNK         0.0238 
     51 CB         24.1594  -32.3251  -38.4131 C.3       8 UNK        -0.1912 
     52 C          22.1025  -32.5683  -39.9474 C.2       8 UNK         0.5038 
     53 O          21.8038  -33.5611  -39.2797 O.2       8 UNK        -0.5046 
     54 N          21.4277  -32.1640  -41.0308 N.am      9 UNK        -0.4200 
     55 CA         20.2243  -32.8277  -41.5464 C.3       9 UNK         0.0839 
     56 C          18.9339  -32.5383  -40.7249 C.2       9 UNK         0.5513 
     57 N          18.8690  -31.4507  -39.9651 N.am      9 UNK        -0.7519 
     58 O          17.9893  -33.3221  -40.7675 O.2       9 UNK        -0.4960 
     59 C59        20.0478  -32.5855  -43.0676 C.3       10 UNK        -0.0876 
     60 S60        19.5209  -30.8966  -43.5127 S.3       10 UNK        -0.2414 
     61 C61        21.0519  -30.1318  -44.1130 C.3       10 UNK         0.0169 
     62 H62        13.3178  -25.2101  -44.6493 H         1 UNK         0.0903 
     63 H63        14.2498  -24.1269  -45.6865 H         1 UNK         0.0903 
     64 H64        13.4550  -25.5429  -46.3774 H         1 UNK         0.0903 
     65 H65        14.8872  -27.2193  -46.7930 H         1 UNK         0.3096 
     66 H66        17.5169  -27.2960  -45.5509 H         1 UNK         0.1121 
     67 H67        17.8364  -29.2994  -47.1403 H         1 UNK         0.0849 
     68 H68        16.2482  -28.9635  -47.7692 H         1 UNK         0.0849 
     69 H69        19.9126  -28.3587  -48.6609 H         1 UNK         0.0865 
     70 H70        20.1363  -26.6295  -48.6359 H         1 UNK         0.0865 
     71 H71        20.4318  -29.6146  -46.7077 H         1 UNK         0.1346 
     72 H72        20.9079  -27.7244  -42.9152 H         1 UNK         0.1412 
     73 H73        19.6560  -25.4161  -46.3168 H         1 UNK         0.1426 
     74 H74        19.0793  -24.8038  -43.7165 H         1 UNK         0.0716 
     75 H75        20.7061  -24.3536  -44.1580 H         1 UNK         0.0716 
     76 H76        19.0613  -25.1791  -40.1932 H         1 UNK         0.0695 
     77 H77        18.2979  -25.6617  -41.6554 H         1 UNK         0.0695 
     78 H78        18.6700  -27.2878  -39.5185 H         1 UNK         0.0983 
     79 H79        18.8741  -28.7747  -41.9944 H         1 UNK         0.3095 
     80 H80        16.9360  -30.1471  -42.4042 H         1 UNK         0.0454 
     81 H81        14.8182  -30.0918  -41.0536 H         1 UNK         0.0851 
     82 H82        14.2740  -28.6785  -41.9497 H         1 UNK         0.0851 
     83 H83        14.4772  -30.2246  -42.7709 H         1 UNK         0.0851 
     84 H84        16.5511  -27.4604  -43.4570 H         1 UNK         0.2976 
     85 H85        21.2047  -26.2600  -39.4238 H         1 UNK         0.3116 
     86 H86        22.8638  -28.5888  -38.9283 H         1 UNK         0.0646 
     87 H87        23.0039  -26.7139  -37.3896 H         1 UNK         0.0847 
     88 H88        23.3882  -25.5819  -38.6774 H         1 UNK         0.0847 
     89 H89        24.5364  -26.8412  -38.2286 H         1 UNK         0.0847 
     90 H90        24.1234  -25.7284  -40.5532 H         1 UNK         0.3040 
     91 H91        25.4460  -25.3853  -42.3167 H         1 UNK         0.1015 
     92 H92        23.5472  -27.3232  -43.7436 H         1 UNK         0.0786 
     93 H93        24.5553  -26.1067  -44.5124 H         1 UNK         0.0786 
     94 H94        23.2354  -25.6098  -43.4724 H         1 UNK         0.0786 
     95 H95        26.4187  -27.3631  -40.5735 H         1 UNK         0.3172 
     96 H96        28.0491  -28.7780  -40.2050 H         1 UNK         0.0595 
     97 H97        29.8371  -29.2226  -41.8416 H         1 UNK         0.0839 
     98 H98        28.8649  -28.5766  -43.1510 H         1 UNK         0.0839 
     99 H99        29.4248  -27.5159  -41.8580 H         1 UNK         0.0839 
    100 H100       25.9119  -29.6233  -42.8385 H         1 UNK         0.2998 
    101 H101       26.4221  -32.4412  -42.9310 H         1 UNK         0.0822 
    102 H102       24.2209  -32.4718  -44.1704 H         1 UNK         0.0787 
    103 H103       23.9819  -30.7779  -43.7566 H         1 UNK         0.0787 
    104 H104       25.3235  -31.2540  -44.7939 H         1 UNK         0.0787 
    105 H105       24.2081  -30.4462  -41.0011 H         1 UNK         0.3055 
    106 H106       22.9318  -30.7729  -39.2246 H         1 UNK         0.1106 
    107 H107       25.0015  -31.6835  -38.1538 H         1 UNK         0.0828 
    108 H108       23.5502  -32.4387  -37.5156 H         1 UNK         0.0828 
    109 H109       24.5534  -33.3103  -38.6641 H         1 UNK         0.0828 
    110 H110       21.6850  -31.2907  -41.4685 H         1 UNK         0.2931 
    111 H111       20.3965  -33.9010  -41.4409 H         1 UNK         0.0412 
    112 H112       19.6182  -30.7666  -39.9969 H         1 UNK         0.3472 
    113 H113       18.0434  -31.2773  -39.4158 H         1 UNK         0.3472 
    114 H114       20.9687  -32.8354  -43.5967 H         1 UNK         0.0970 
    115 H115       19.2962  -33.2734  -43.4587 H         1 UNK         0.0970 
    116 H116       21.7447  -29.9986  -43.2806 H         1 UNK         0.0612 
    117 H117       21.5390  -30.7853  -44.8381 H         1 UNK         0.0612 
@<TRIPOS>BOND
     1    1    2 1    
     2    1   62 1    
     3    1   63 1    
     4    1   64 1    
     5    2    3 2    
     6    2    4 am   BACKBONE|DICT|INTERRES
     7    4    5 1    
     8    4   65 1    
     9    5    6 1    
    10    5   25 1    
    11    5   66 1    
    12    6    7 1    
    13    6   67 1    
    14    6   68 1    
    15    7    8 1    
    16    8    9 1    
    17    8   69 1    
    18    8   70 1    
    19    9   10 ar   
    20    9   14 ar   
    21   10   11 ar   
    22   10   71 1    
    23   11   12 ar   
    24   11   61 1    
    25   12   13 ar   
    26   12   72 1    
    27   13   14 ar   
    28   13   15 1    
    29   14   73 1    
    30   15   16 1    
    31   15   74 1    
    32   15   75 1    
    33   16   17 1    
    34   17   18 1    
    35   17   76 1    
    36   17   77 1    
    37   18   19 1    
    38   18   27 1    
    39   18   78 1    
    40   19   20 am   BACKBONE|DICT|INTERRES
    41   19   79 1    
    42   20   21 2    
    43   20   22 1    
    44   22   23 1    
    45   22   24 1    
    46   22   80 1    
    47   23   81 1    
    48   23   82 1    
    49   23   83 1    
    50   24   25 am   BACKBONE|DICT|INTERRES
    51   24   84 1    
    52   25   26 2    
    53   27   28 2    
    54   27   29 am   BACKBONE|DICT|INTERRES
    55   29   30 1    
    56   29   85 1    
    57   30   31 1    
    58   30   32 1    
    59   30   86 1    
    60   31   87 1    
    61   31   88 1    
    62   31   89 1    
    63   32   33 2    
    64   32   34 am   BACKBONE|DICT|INTERRES
    65   34   35 1    
    66   34   90 1    
    67   35   36 1    
    68   35   37 1    
    69   35   91 1    
    70   36   92 1    
    71   36   93 1    
    72   36   94 1    
    73   37   38 2    
    74   37   39 am   BACKBONE|DICT|INTERRES
    75   39   40 1    
    76   39   95 1    
    77   40   41 1    
    78   40   42 1    
    79   40   96 1    
    80   41   97 1    
    81   41   98 1    
    82   41   99 1    
    83   42   43 2    
    84   42   44 am   BACKBONE|DICT|INTERRES
    85   44   45 1    
    86   44  100 1    
    87   45   46 1    
    88   45   47 1    
    89   45  101 1    
    90   46  102 1    
    91   46  103 1    
    92   46  104 1    
    93   47   48 2    
    94   47   49 am   BACKBONE|DICT|INTERRES
    95   49   50 1    
    96   49  105 1    
    97   50   51 1    
    98   50   52 1    
    99   50  106 1    
   100   51  107 1    
   101   51  108 1    
   102   51  109 1    
   103   52   53 2    
   104   52   54 am   BACKBONE|DICT|INTERRES
   105   54   55 1    
   106   54  110 1    
   107   55   56 1    
   108   55   59 1    
   109   55  111 1    
   110   56   57 am   BACKBONE|DICT|INTERRES
   111   56   58 2    
   112   57  112 1    
   113   57  113 1    
   114   59   60 1    
   115   59  114 1    
   116   59  115 1    
   117   60   61 1    
   118   61  116 1    
   119   61  117 1    
@<TRIPOS>SUBSTRUCTURE
     1 UNK         1 GROUP             0       ****    0 ROOT    
