@<TRIPOS>MOLECULE
3R8
117   119    1
SMALL
USER_CHARGES


@<TRIPOS>ATOM
      1 CA         18.4755  -24.1506  -49.5671 C.3       0 UNK        -0.2013 
      2 C          19.1536  -25.2512  -48.7647 C.2       0 UNK         0.4866 
      3 O          20.3615  -25.4515  -48.8978 O.2       0 UNK        -0.5176 
      4 N          18.3852  -25.9724  -47.9400 N.am      1 UNK        -0.4884 
      5 CA         18.8763  -27.0145  -47.0334 C.3       1 UNK         0.0853 
      6 C6         17.7339  -27.9666  -46.5803 C.3       10 UNK        -0.0849 
      7 S7         16.3257  -27.1133  -45.7854 S.3       10 UNK        -0.2776 
      8 C8         15.1571  -28.4854  -45.5354 C.3       10 UNK         0.0316 
      9 C9         15.4890  -29.3243  -44.3074 C.ar      10 UNK        -0.0863 
     10 C10        15.9058  -30.6526  -44.4472 C.ar      10 UNK        -0.1009 
     11 C11        16.1169  -31.4502  -43.3178 C.ar      10 UNK        -0.0712 
     12 C12        15.9209  -30.9083  -42.0453 C.ar      10 UNK        -0.0894 
     13 C13        15.5318  -29.5752  -41.8897 C.ar      10 UNK        -0.0745 
     14 C14        15.3143  -28.7891  -43.0259 C.ar      10 UNK        -0.0972 
     15 C15        15.3055  -29.0011  -40.4960 C.3       10 UNK         0.0209 
     16 S16        16.7732  -29.1514  -39.4238 S.3       10 UNK        -0.2568 
     17 C17        17.9434  -28.0102  -40.2306 C.3       10 UNK        -0.0983 
     18 CA         19.0091  -28.7355  -41.0922 C.3       3 UNK         0.0876 
     19 N          19.7156  -27.7904  -41.9592 N.am      3 UNK        -0.4424 
     20 C          20.4247  -28.1472  -43.0345 C.2       2 UNK         0.4918 
     21 O          20.5737  -29.3099  -43.4103 O.2       2 UNK        -0.4875 
     22 CA         21.0258  -27.0196  -43.8770 C.3       2 UNK         0.0481 
     23 CB         22.5603  -27.1029  -43.9010 C.3       2 UNK        -0.1831 
     24 N          20.4993  -27.2155  -45.2228 N.am      2 UNK        -0.4498 
     25 C          19.6149  -26.4105  -45.8196 C.2       1 UNK         0.5027 
     26 O          19.3346  -25.2767  -45.4187 O.2       1 UNK        -0.4969 
     27 C          20.0109  -29.5630  -40.2608 C.2       3 UNK         0.5005 
     28 O          20.1146  -30.7761  -40.4532 O.2       3 UNK        -0.5279 
     29 N          20.7561  -28.8738  -39.3880 N.am      4 UNK        -0.4463 
     30 CA         21.7814  -29.4205  -38.5039 C.3       4 UNK         0.0283 
     31 CB         21.1596  -30.3395  -37.4298 C.3       4 UNK        -0.1875 
     32 C          22.5387  -28.2351  -37.8944 C.2       4 UNK         0.4949 
     33 O          22.2943  -27.8707  -36.7431 O.2       4 UNK        -0.5039 
     34 N          23.3986  -27.6163  -38.7071 N.am      5 UNK        -0.4663 
     35 CA         24.2336  -26.4721  -38.3441 C.3       5 UNK         0.0242 
     36 CB         23.7100  -25.2192  -39.0787 C.3       5 UNK        -0.1982 
     37 C          25.6933  -26.8352  -38.6593 C.2       5 UNK         0.5017 
     38 O          26.1727  -27.8593  -38.1692 O.2       5 UNK        -0.5012 
     39 N          26.3686  -26.0285  -39.4919 N.am      6 UNK        -0.4439 
     40 CA         27.6973  -26.3219  -40.0480 C.3       6 UNK         0.0297 
     41 CB         28.2540  -25.0591  -40.7252 C.3       6 UNK        -0.2006 
     42 C          27.6886  -27.5060  -41.0373 C.2       6 UNK         0.4892 
     43 O          28.7283  -28.1318  -41.2466 O.2       6 UNK        -0.5089 
     44 N          26.5125  -27.7953  -41.6023 N.am      7 UNK        -0.4243 
     45 CA         26.1813  -28.9830  -42.3762 C.3       7 UNK         0.0196 
     46 CB         26.1662  -28.6280  -43.8730 C.3       7 UNK        -0.2007 
     47 C          24.8068  -29.4739  -41.9006 C.2       7 UNK         0.5020 
     48 O          24.0882  -28.7308  -41.2234 O.2       7 UNK        -0.5147 
     49 N          24.4602  -30.7076  -42.2701 N.am      8 UNK        -0.4734 
     50 CA         23.1692  -31.3302  -41.9881 C.3       8 UNK         0.0238 
     51 CB         23.3319  -32.3456  -40.8434 C.3       8 UNK        -0.1912 
     52 C          22.6546  -32.0119  -43.2598 C.2       8 UNK         0.5038 
     53 O          23.4487  -32.3109  -44.1569 O.2       8 UNK        -0.5046 
     54 N          21.3407  -32.2510  -43.3072 N.am      9 UNK        -0.4200 
     55 CA         20.6342  -32.8321  -44.4586 C.3       9 UNK         0.0839 
     56 C          20.8921  -34.3469  -44.7166 C.2       9 UNK         0.5513 
     57 N          21.5384  -35.0776  -43.8158 N.am      9 UNK        -0.7519 
     58 O          20.5074  -34.8639  -45.7625 O.2       9 UNK        -0.4960 
     59 C59        19.1236  -32.4841  -44.4226 C.3       10 UNK        -0.0876 
     60 S60        18.2535  -33.1770  -42.9755 S.3       10 UNK        -0.2414 
     61 C61        16.5217  -32.9096  -43.4587 C.3       10 UNK         0.0169 
     62 H62        18.9177  -23.1843  -49.3258 H         1 UNK         0.0903 
     63 H63        18.6062  -24.3287  -50.6341 H         1 UNK         0.0903 
     64 H64        17.4067  -24.0952  -49.3610 H         1 UNK         0.0903 
     65 H65        17.4066  -25.7431  -47.8339 H         1 UNK         0.3096 
     66 H66        19.6037  -27.6124  -47.5881 H         1 UNK         0.1121 
     67 H67        18.1108  -28.7315  -45.8978 H         1 UNK         0.0849 
     68 H68        17.3559  -28.5090  -47.4484 H         1 UNK         0.0849 
     69 H69        14.1559  -28.0695  -45.4134 H         1 UNK         0.0865 
     70 H70        15.1166  -29.1018  -46.4349 H         1 UNK         0.0865 
     71 H71        16.0385  -31.0748  -45.4339 H         1 UNK         0.1346 
     72 H72        16.0786  -31.5262  -41.1716 H         1 UNK         0.1412 
     73 H73        14.9894  -27.7630  -42.9181 H         1 UNK         0.1426 
     74 H74        14.4768  -29.5353  -40.0295 H         1 UNK         0.0716 
     75 H75        15.0044  -27.9535  -40.5458 H         1 UNK         0.0716 
     76 H76        18.4072  -27.3894  -39.4624 H         1 UNK         0.0695 
     77 H77        17.3714  -27.3222  -40.8555 H         1 UNK         0.0695 
     78 H78        18.4833  -29.4366  -41.7457 H         1 UNK         0.0983 
     79 H79        19.6284  -26.8108  -41.7314 H         1 UNK         0.3095 
     80 H80        20.7313  -26.0512  -43.4673 H         1 UNK         0.0454 
     81 H81        22.9102  -28.0819  -44.2314 H         1 UNK         0.0851 
     82 H82        22.9716  -26.9269  -42.9067 H         1 UNK         0.0851 
     83 H83        22.9875  -26.3525  -44.5660 H         1 UNK         0.0851 
     84 H84        20.6354  -28.1471  -45.5921 H         1 UNK         0.2976 
     85 H85        20.6298  -27.8727  -39.3255 H         1 UNK         0.3116 
     86 H86        22.4875  -30.0021  -39.0987 H         1 UNK         0.0646 
     87 H87        20.3802  -29.8281  -36.8637 H         1 UNK         0.0847 
     88 H88        21.9158  -30.6737  -36.7185 H         1 UNK         0.0847 
     89 H89        20.7196  -31.2336  -37.8707 H         1 UNK         0.0847 
     90 H90        23.5749  -28.0199  -39.6281 H         1 UNK         0.3040 
     91 H91        24.1888  -26.2863  -37.2687 H         1 UNK         0.1015 
     92 H92        23.7313  -25.3390  -40.1629 H         1 UNK         0.0786 
     93 H93        24.2907  -24.3323  -38.8211 H         1 UNK         0.0786 
     94 H94        22.6781  -25.0099  -38.7959 H         1 UNK         0.0786 
     95 H95        25.9065  -25.1969  -39.8318 H         1 UNK         0.3172 
     96 H96        28.3600  -26.5883  -39.2218 H         1 UNK         0.0595 
     97 H97        29.2544  -25.2391  -41.1216 H         1 UNK         0.0839 
     98 H98        28.3320  -24.2308  -40.0207 H         1 UNK         0.0839 
     99 H99        27.6282  -24.7363  -41.5583 H         1 UNK         0.0839 
    100 H100       25.7018  -27.2667  -41.3095 H         1 UNK         0.2998 
    101 H101       26.9124  -29.7724  -42.1877 H         1 UNK         0.0822 
    102 H102       25.8953  -29.4908  -44.4827 H         1 UNK         0.0787 
    103 H103       25.4524  -27.8335  -44.0922 H         1 UNK         0.0787 
    104 H104       27.1484  -28.2923  -44.2062 H         1 UNK         0.0787 
    105 H105       25.0547  -31.2306  -42.9008 H         1 UNK         0.3055 
    106 H106       22.4425  -30.5676  -41.7017 H         1 UNK         0.1106 
    107 H107       22.3681  -32.7703  -40.5593 H         1 UNK         0.0828 
    108 H108       23.9867  -33.1710  -41.1254 H         1 UNK         0.0828 
    109 H109       23.7521  -31.8776  -39.9536 H         1 UNK         0.0828 
    110 H110       20.7578  -31.9664  -42.5302 H         1 UNK         0.2931 
    111 H111       21.0352  -32.3284  -45.3405 H         1 UNK         0.0412 
    112 H112       21.7038  -36.0553  -43.9964 H         1 UNK         0.3472 
    113 H113       21.8550  -34.6601  -42.9559 H         1 UNK         0.3472 
    114 H114       18.6347  -32.8283  -45.3358 H         1 UNK         0.0970 
    115 H115       18.9962  -31.4002  -44.4093 H         1 UNK         0.0970 
    116 H116       15.8828  -33.5207  -42.8195 H         1 UNK         0.0612 
    117 H117       16.3631  -33.2663  -44.4776 H         1 UNK         0.0612 
@<TRIPOS>BOND
     1    1    2 1    
     2    1   62 1    
     3    1   63 1    
     4    1   64 1    
     5    2    3 2    
     6    2    4 am   BACKBONE|DICT|INTERRES
     7    4    5 1    
     8    4   65 1    
     9    5    6 1    
    10    5   25 1    
    11    5   66 1    
    12    6    7 1    
    13    6   67 1    
    14    6   68 1    
    15    7    8 1    
    16    8    9 1    
    17    8   69 1    
    18    8   70 1    
    19    9   10 ar   
    20    9   14 ar   
    21   10   11 ar   
    22   10   71 1    
    23   11   12 ar   
    24   11   61 1    
    25   12   13 ar   
    26   12   72 1    
    27   13   14 ar   
    28   13   15 1    
    29   14   73 1    
    30   15   16 1    
    31   15   74 1    
    32   15   75 1    
    33   16   17 1    
    34   17   18 1    
    35   17   76 1    
    36   17   77 1    
    37   18   19 1    
    38   18   27 1    
    39   18   78 1    
    40   19   20 am   BACKBONE|DICT|INTERRES
    41   19   79 1    
    42   20   21 2    
    43   20   22 1    
    44   22   23 1    
    45   22   24 1    
    46   22   80 1    
    47   23   81 1    
    48   23   82 1    
    49   23   83 1    
    50   24   25 am   BACKBONE|DICT|INTERRES
    51   24   84 1    
    52   25   26 2    
    53   27   28 2    
    54   27   29 am   BACKBONE|DICT|INTERRES
    55   29   30 1    
    56   29   85 1    
    57   30   31 1    
    58   30   32 1    
    59   30   86 1    
    60   31   87 1    
    61   31   88 1    
    62   31   89 1    
    63   32   33 2    
    64   32   34 am   BACKBONE|DICT|INTERRES
    65   34   35 1    
    66   34   90 1    
    67   35   36 1    
    68   35   37 1    
    69   35   91 1    
    70   36   92 1    
    71   36   93 1    
    72   36   94 1    
    73   37   38 2    
    74   37   39 am   BACKBONE|DICT|INTERRES
    75   39   40 1    
    76   39   95 1    
    77   40   41 1    
    78   40   42 1    
    79   40   96 1    
    80   41   97 1    
    81   41   98 1    
    82   41   99 1    
    83   42   43 2    
    84   42   44 am   BACKBONE|DICT|INTERRES
    85   44   45 1    
    86   44  100 1    
    87   45   46 1    
    88   45   47 1    
    89   45  101 1    
    90   46  102 1    
    91   46  103 1    
    92   46  104 1    
    93   47   48 2    
    94   47   49 am   BACKBONE|DICT|INTERRES
    95   49   50 1    
    96   49  105 1    
    97   50   51 1    
    98   50   52 1    
    99   50  106 1    
   100   51  107 1    
   101   51  108 1    
   102   51  109 1    
   103   52   53 2    
   104   52   54 am   BACKBONE|DICT|INTERRES
   105   54   55 1    
   106   54  110 1    
   107   55   56 1    
   108   55   59 1    
   109   55  111 1    
   110   56   57 am   BACKBONE|DICT|INTERRES
   111   56   58 2    
   112   57  112 1    
   113   57  113 1    
   114   59   60 1    
   115   59  114 1    
   116   59  115 1    
   117   60   61 1    
   118   61  116 1    
   119   61  117 1    
@<TRIPOS>SUBSTRUCTURE
     1 UNK         1 GROUP             0       ****    0 ROOT    
