@<TRIPOS>MOLECULE
3R8
117   119    1
SMALL
USER_CHARGES


@<TRIPOS>ATOM
      1 CA         11.1657  -26.6231  -44.6378 C.3       0 UNK        -0.2013 
      2 C          12.5551  -26.2224  -45.1109 C.2       0 UNK         0.4866 
      3 O          12.7115  -25.1717  -45.7334 O.2       0 UNK        -0.5176 
      4 N          13.5640  -27.0491  -44.8212 N.am      1 UNK        -0.4884 
      5 CA         14.9677  -26.8274  -45.1604 C.3       1 UNK         0.0853 
      6 C6         15.2833  -27.2793  -46.6071 C.3       10 UNK        -0.0849 
      7 S7         16.8161  -26.5363  -47.2570 S.3       10 UNK        -0.2776 
      8 C8         17.6841  -27.9956  -47.9132 C.3       10 UNK         0.0316 
      9 C9         18.6271  -28.6178  -46.8928 C.ar      10 UNK        -0.0863 
     10 C10        18.2426  -29.7309  -46.1377 C.ar      10 UNK        -0.1009 
     11 C11        19.1458  -30.3561  -45.2682 C.ar      10 UNK        -0.0712 
     12 C12        20.4452  -29.8403  -45.1550 C.ar      10 UNK        -0.0894 
     13 C13        20.8375  -28.7241  -45.8997 C.ar      10 UNK        -0.0745 
     14 C14        19.9222  -28.1140  -46.7590 C.ar      10 UNK        -0.0972 
     15 C15        22.2655  -28.2052  -45.8326 C.3       10 UNK         0.0209 
     16 S16        22.4194  -26.7720  -44.7241 S.3       10 UNK        -0.2568 
     17 C17        22.5950  -27.5832  -43.1049 C.3       10 UNK        -0.0983 
     18 CA         21.6053  -27.0448  -42.0375 C.3       3 UNK         0.0876 
     19 N          20.2422  -27.5081  -42.2612 N.am      3 UNK        -0.4424 
     20 C          19.2367  -26.8624  -42.8517 C.2       2 UNK         0.4918 
     21 O          19.3241  -25.7574  -43.3924 O.2       2 UNK        -0.4875 
     22 CA         17.8817  -27.5736  -42.7616 C.3       2 UNK         0.0481 
     23 CB         17.3036  -27.4696  -41.3344 C.3       2 UNK        -0.1831 
     24 N          16.9532  -27.0081  -43.7333 N.am      2 UNK        -0.4498 
     25 C          15.8084  -27.5804  -44.1190 C.2       1 UNK         0.5027 
     26 O          15.3977  -28.6618  -43.6857 O.2       1 UNK        -0.4969 
     27 C          22.0039  -27.5523  -40.6375 C.2       3 UNK         0.5005 
     28 O          21.2670  -28.3441  -40.0360 O.2       3 UNK        -0.5279 
     29 N          23.1794  -27.1216  -40.1655 N.am      4 UNK        -0.4463 
     30 CA         23.8387  -27.6644  -38.9765 C.3       4 UNK         0.0283 
     31 CB         23.8454  -26.6167  -37.8502 C.3       4 UNK        -0.1875 
     32 C          25.2624  -28.1300  -39.3127 C.2       4 UNK         0.4949 
     33 O          25.6270  -29.2523  -38.9636 O.2       4 UNK        -0.5039 
     34 N          26.0464  -27.2645  -39.9748 N.am      5 UNK        -0.4663 
     35 CA         27.4536  -27.5218  -40.2976 C.3       5 UNK         0.0242 
     36 CB         28.1732  -26.1873  -40.5557 C.3       5 UNK        -0.1982 
     37 C          27.6439  -28.4784  -41.4859 C.2       5 UNK         0.5017 
     38 O          28.4849  -29.3744  -41.4073 O.2       5 UNK        -0.5012 
     39 N          26.8799  -28.2608  -42.5669 N.am      6 UNK        -0.4439 
     40 CA         26.9635  -29.0416  -43.8084 C.3       6 UNK         0.0297 
     41 CB         26.2398  -28.2926  -44.9389 C.3       6 UNK        -0.2006 
     42 C          26.4078  -30.4685  -43.6612 C.2       6 UNK         0.4892 
     43 O          26.9649  -31.4036  -44.2368 O.2       6 UNK        -0.5089 
     44 N          25.3342  -30.5998  -42.8793 N.am      7 UNK        -0.4243 
     45 CA         24.6739  -31.8375  -42.4883 C.3       7 UNK         0.0196 
     46 CB         23.8128  -32.3859  -43.6408 C.3       7 UNK        -0.2007 
     47 C          23.8087  -31.4806  -41.2807 C.2       7 UNK         0.5020 
     48 O          23.2425  -30.3874  -41.2614 O.2       7 UNK        -0.5147 
     49 N          23.7024  -32.3844  -40.3020 N.am      8 UNK        -0.4734 
     50 CA         22.9843  -32.1585  -39.0418 C.3       8 UNK         0.0238 
     51 CB         23.5893  -33.0683  -37.9555 C.3       8 UNK        -0.1912 
     52 C          21.4582  -32.3347  -39.1849 C.2       8 UNK         0.5038 
     53 O          20.8599  -33.1282  -38.4549 O.2       8 UNK        -0.5046 
     54 N          20.8594  -31.6100  -40.1357 N.am      9 UNK        -0.4200 
     55 CA         19.4117  -31.5955  -40.3913 C.3       9 UNK         0.0839 
     56 C          18.6070  -30.8163  -39.3153 C.2       9 UNK         0.5513 
     57 N          19.1508  -29.7557  -38.7314 N.am      9 UNK        -0.7519 
     58 O          17.4762  -31.1825  -39.0071 O.2       9 UNK        -0.4960 
     59 C59        19.0846  -31.0675  -41.8089 C.3       10 UNK        -0.0876 
     60 S60        19.7241  -32.1517  -43.1241 S.3       10 UNK        -0.2414 
     61 C61        18.6973  -31.6294  -44.5444 C.3       10 UNK         0.0169 
     62 H62        10.7637  -25.8635  -43.9678 H         1 UNK         0.0903 
     63 H63        10.4923  -26.7176  -45.4892 H         1 UNK         0.0903 
     64 H64        11.1745  -27.5742  -44.1057 H         1 UNK         0.0903 
     65 H65        13.4083  -27.8885  -44.2745 H         1 UNK         0.3096 
     66 H66        15.1758  -25.7593  -45.0584 H         1 UNK         0.1121 
     67 H67        14.4817  -26.9662  -47.2778 H         1 UNK         0.0849 
     68 H68        15.3138  -28.3683  -46.6765 H         1 UNK         0.0849 
     69 H69        16.9695  -28.7333  -48.2815 H         1 UNK         0.0865 
     70 H70        18.2579  -27.6865  -48.7884 H         1 UNK         0.0865 
     71 H71        17.2452  -30.1335  -46.2518 H         1 UNK         0.1346 
     72 H72        21.1690  -30.3175  -44.5117 H         1 UNK         0.1412 
     73 H73        20.2286  -27.2586  -47.3461 H         1 UNK         0.1426 
     74 H74        22.5871  -27.9050  -46.8310 H         1 UNK         0.0716 
     75 H75        22.9520  -28.9953  -45.5244 H         1 UNK         0.0716 
     76 H76        23.6304  -27.4247  -42.8012 H         1 UNK         0.0695 
     77 H77        22.4811  -28.6631  -43.2126 H         1 UNK         0.0695 
     78 H78        21.6254  -25.9530  -42.0176 H         1 UNK         0.0983 
     79 H79        20.0424  -28.3440  -41.7303 H         1 UNK         0.3095 
     80 H80        18.0368  -28.6221  -43.0192 H         1 UNK         0.0454 
     81 H81        17.0713  -26.4370  -41.0720 H         1 UNK         0.0851 
     82 H82        18.0073  -27.8421  -40.5895 H         1 UNK         0.0851 
     83 H83        16.3912  -28.0555  -41.2250 H         1 UNK         0.0851 
     84 H84        17.2711  -26.1485  -44.1655 H         1 UNK         0.2976 
     85 H85        23.7123  -26.4738  -40.7260 H         1 UNK         0.3116 
     86 H86        23.3006  -28.5429  -38.6132 H         1 UNK         0.0646 
     87 H87        24.3529  -25.6983  -38.1466 H         1 UNK         0.0847 
     88 H88        24.3531  -27.0000  -36.9640 H         1 UNK         0.0847 
     89 H89        22.8299  -26.3552  -37.5526 H         1 UNK         0.0847 
     90 H90        25.7006  -26.3390  -40.1782 H         1 UNK         0.3040 
     91 H91        27.9240  -27.9887  -39.4285 H         1 UNK         0.1015 
     92 H92        27.7392  -25.6441  -41.3960 H         1 UNK         0.0786 
     93 H93        29.2274  -26.3511  -40.7840 H         1 UNK         0.0786 
     94 H94        28.1319  -25.5393  -39.6798 H         1 UNK         0.0786 
     95 H95        26.2316  -27.4882  -42.5484 H         1 UNK         0.3172 
     96 H96        28.0172  -29.1258  -44.0835 H         1 UNK         0.0595 
     97 H97        26.3029  -28.8470  -45.8764 H         1 UNK         0.0839 
     98 H98        26.6825  -27.3121  -45.1144 H         1 UNK         0.0839 
     99 H99        25.1827  -28.1491  -44.7181 H         1 UNK         0.0839 
    100 H100       24.9498  -29.7824  -42.4224 H         1 UNK         0.2998 
    101 H101       25.4275  -32.5718  -42.1964 H         1 UNK         0.0822 
    102 H102       23.2783  -33.2862  -43.3353 H         1 UNK         0.0787 
    103 H103       23.0675  -31.6589  -43.9644 H         1 UNK         0.0787 
    104 H104       24.4219  -32.6477  -44.5058 H         1 UNK         0.0787 
    105 H105       24.1566  -33.2804  -40.4090 H         1 UNK         0.3055 
    106 H106       23.1489  -31.1243  -38.7287 H         1 UNK         0.1106 
    107 H107       23.1148  -32.8930  -36.9890 H         1 UNK         0.0828 
    108 H108       23.4621  -34.1247  -38.1952 H         1 UNK         0.0828 
    109 H109       24.6550  -32.8774  -37.8276 H         1 UNK         0.0828 
    110 H110       21.4352  -30.9716  -40.6756 H         1 UNK         0.2931 
    111 H111       19.0624  -32.6293  -40.3448 H         1 UNK         0.0412 
    112 H112       20.0469  -29.3926  -39.0471 H         1 UNK         0.3472 
    113 H113       18.6312  -29.2605  -38.0250 H         1 UNK         0.3472 
    114 H114       19.5124  -30.0783  -41.9495 H         1 UNK         0.0970 
    115 H115       18.0049  -30.9664  -41.9388 H         1 UNK         0.0970 
    116 H116       17.6621  -31.5236  -44.2161 H         1 UNK         0.0612 
    117 H117       18.7029  -32.4422  -45.2716 H         1 UNK         0.0612 
@<TRIPOS>BOND
     1    1    2 1    
     2    1   62 1    
     3    1   63 1    
     4    1   64 1    
     5    2    3 2    
     6    2    4 am   BACKBONE|DICT|INTERRES
     7    4    5 1    
     8    4   65 1    
     9    5    6 1    
    10    5   25 1    
    11    5   66 1    
    12    6    7 1    
    13    6   67 1    
    14    6   68 1    
    15    7    8 1    
    16    8    9 1    
    17    8   69 1    
    18    8   70 1    
    19    9   10 ar   
    20    9   14 ar   
    21   10   11 ar   
    22   10   71 1    
    23   11   12 ar   
    24   11   61 1    
    25   12   13 ar   
    26   12   72 1    
    27   13   14 ar   
    28   13   15 1    
    29   14   73 1    
    30   15   16 1    
    31   15   74 1    
    32   15   75 1    
    33   16   17 1    
    34   17   18 1    
    35   17   76 1    
    36   17   77 1    
    37   18   19 1    
    38   18   27 1    
    39   18   78 1    
    40   19   20 am   BACKBONE|DICT|INTERRES
    41   19   79 1    
    42   20   21 2    
    43   20   22 1    
    44   22   23 1    
    45   22   24 1    
    46   22   80 1    
    47   23   81 1    
    48   23   82 1    
    49   23   83 1    
    50   24   25 am   BACKBONE|DICT|INTERRES
    51   24   84 1    
    52   25   26 2    
    53   27   28 2    
    54   27   29 am   BACKBONE|DICT|INTERRES
    55   29   30 1    
    56   29   85 1    
    57   30   31 1    
    58   30   32 1    
    59   30   86 1    
    60   31   87 1    
    61   31   88 1    
    62   31   89 1    
    63   32   33 2    
    64   32   34 am   BACKBONE|DICT|INTERRES
    65   34   35 1    
    66   34   90 1    
    67   35   36 1    
    68   35   37 1    
    69   35   91 1    
    70   36   92 1    
    71   36   93 1    
    72   36   94 1    
    73   37   38 2    
    74   37   39 am   BACKBONE|DICT|INTERRES
    75   39   40 1    
    76   39   95 1    
    77   40   41 1    
    78   40   42 1    
    79   40   96 1    
    80   41   97 1    
    81   41   98 1    
    82   41   99 1    
    83   42   43 2    
    84   42   44 am   BACKBONE|DICT|INTERRES
    85   44   45 1    
    86   44  100 1    
    87   45   46 1    
    88   45   47 1    
    89   45  101 1    
    90   46  102 1    
    91   46  103 1    
    92   46  104 1    
    93   47   48 2    
    94   47   49 am   BACKBONE|DICT|INTERRES
    95   49   50 1    
    96   49  105 1    
    97   50   51 1    
    98   50   52 1    
    99   50  106 1    
   100   51  107 1    
   101   51  108 1    
   102   51  109 1    
   103   52   53 2    
   104   52   54 am   BACKBONE|DICT|INTERRES
   105   54   55 1    
   106   54  110 1    
   107   55   56 1    
   108   55   59 1    
   109   55  111 1    
   110   56   57 am   BACKBONE|DICT|INTERRES
   111   56   58 2    
   112   57  112 1    
   113   57  113 1    
   114   59   60 1    
   115   59  114 1    
   116   59  115 1    
   117   60   61 1    
   118   61  116 1    
   119   61  117 1    
@<TRIPOS>SUBSTRUCTURE
     1 UNK         1 GROUP             0       ****    0 ROOT    
