@<TRIPOS>MOLECULE
3R8
117   119    1
SMALL
USER_CHARGES


@<TRIPOS>ATOM
      1 CA         16.9037  -30.4637  -40.5948 C.3       0 UNK        -0.2013 
      2 C          16.4343  -29.0321  -40.8046 C.2       0 UNK         0.4866 
      3 O          15.2471  -28.7539  -40.6352 O.2       0 UNK        -0.5176 
      4 N          17.3509  -28.1258  -41.1609 N.am      1 UNK        -0.4884 
      5 CA         17.0942  -26.6896  -41.2842 C.3       1 UNK         0.0853 
      6 C6         16.1647  -26.2813  -42.4675 C.3       10 UNK        -0.0849 
      7 S7         16.8103  -26.5855  -44.1528 S.3       10 UNK        -0.2776 
      8 C8         16.0423  -28.1708  -44.6192 C.3       10 UNK         0.0316 
      9 C9         17.1031  -29.1818  -45.0294 C.ar      10 UNK        -0.0863 
     10 C10        17.3332  -30.3217  -44.2553 C.ar      10 UNK        -0.1009 
     11 C11        18.3387  -31.2272  -44.6043 C.ar      10 UNK        -0.0712 
     12 C12        19.0975  -31.0041  -45.7561 C.ar      10 UNK        -0.0894 
     13 C13        18.8901  -29.8572  -46.5290 C.ar      10 UNK        -0.0745 
     14 C14        17.8795  -28.9603  -46.1707 C.ar      10 UNK        -0.0972 
     15 C15        19.8020  -29.5417  -47.7073 C.3       10 UNK         0.0209 
     16 S16        21.5748  -29.4736  -47.2589 S.3       10 UNK        -0.2568 
     17 C17        21.5996  -28.5621  -45.6728 C.3       10 UNK        -0.0983 
     18 CA         21.5963  -27.0146  -45.8237 C.3       3 UNK         0.0876 
     19 N          20.9591  -26.3624  -44.6705 N.am      3 UNK        -0.4424 
     20 C          21.4241  -26.3636  -43.4110 C.2       2 UNK         0.4918 
     21 O          22.4328  -26.9685  -43.0439 O.2       2 UNK        -0.4875 
     22 CA         20.6152  -25.5680  -42.3837 C.3       2 UNK         0.0481 
     23 CB         20.4824  -24.0854  -42.7904 C.3       2 UNK        -0.1831 
     24 N          19.3101  -26.1992  -42.2053 N.am      2 UNK        -0.4498 
     25 C          18.4251  -25.9186  -41.2408 C.2       1 UNK         0.5027 
     26 O          18.6298  -25.1111  -40.3331 O.2       1 UNK        -0.4969 
     27 C          22.9994  -26.4190  -46.1023 C.2       3 UNK         0.5005 
     28 O          23.2548  -25.2569  -45.7730 O.2       3 UNK        -0.5279 
     29 N          23.9093  -27.2325  -46.6523 N.am      4 UNK        -0.4463 
     30 CA         25.3424  -26.9538  -46.7654 C.3       4 UNK         0.0283 
     31 CB         25.9211  -27.7823  -47.9276 C.3       4 UNK        -0.1875 
     32 C          26.0553  -27.2278  -45.4240 C.2       4 UNK         0.4949 
     33 O          26.9556  -28.0662  -45.3640 O.2       4 UNK        -0.5039 
     34 N          25.6074  -26.5311  -44.3687 N.am      5 UNK        -0.4663 
     35 CA         26.0542  -26.6249  -42.9719 C.3       5 UNK         0.0242 
     36 CB         27.5034  -26.1124  -42.8269 C.3       5 UNK        -0.1982 
     37 C          25.8425  -28.0207  -42.3464 C.2       5 UNK         0.5017 
     38 O          26.6809  -28.4795  -41.5681 O.2       5 UNK        -0.5012 
     39 N          24.7156  -28.6630  -42.6831 N.am      6 UNK        -0.4439 
     40 CA         24.2722  -29.9295  -42.0911 C.3       6 UNK         0.0297 
     41 CB         23.4198  -30.7037  -43.1073 C.3       6 UNK        -0.2006 
     42 C          23.4757  -29.7121  -40.7928 C.2       6 UNK         0.4892 
     43 O          23.4112  -30.6288  -39.9718 O.2       6 UNK        -0.5089 
     44 N          22.8865  -28.5154  -40.6330 N.am      7 UNK        -0.4243 
     45 CA         22.0684  -28.0696  -39.5028 C.3       7 UNK         0.0196 
     46 CB         22.9317  -27.9142  -38.2293 C.3       7 UNK        -0.2007 
     47 C          20.8321  -28.9677  -39.3319 C.2       7 UNK         0.5020 
     48 O          19.9472  -28.9351  -40.1870 O.2       7 UNK        -0.5147 
     49 N          20.7997  -29.7561  -38.2505 N.am      8 UNK        -0.4734 
     50 CA         19.7463  -30.7262  -37.9441 C.3       8 UNK         0.0238 
     51 CB         19.8262  -31.0888  -36.4516 C.3       8 UNK        -0.1912 
     52 C          19.7925  -31.9999  -38.8118 C.2       8 UNK         0.5038 
     53 O          18.8235  -32.7601  -38.7856 O.2       8 UNK        -0.5046 
     54 N          20.8925  -32.2135  -39.5489 N.am      9 UNK        -0.4200 
     55 CA         21.1540  -33.3771  -40.4134 C.3       9 UNK         0.0839 
     56 C          21.3551  -34.7016  -39.6149 C.2       9 UNK         0.5513 
     57 N          21.4396  -35.8416  -40.2890 N.am      9 UNK        -0.7519 
     58 O          21.4854  -34.7130  -38.3919 O.2       9 UNK        -0.4960 
     59 C59        20.1358  -33.5098  -41.5880 C.3       10 UNK        -0.0876 
     60 S60        20.0297  -31.9957  -42.5951 S.3       10 UNK        -0.2414 
     61 C61        18.6512  -32.4102  -43.7043 C.3       10 UNK         0.0169 
     62 H62        16.8387  -30.7279  -39.5402 H         1 UNK         0.0903 
     63 H63        16.2744  -31.1571  -41.1512 H         1 UNK         0.0903 
     64 H64        17.9335  -30.6049  -40.9210 H         1 UNK         0.0903 
     65 H65        18.3331  -28.3970  -41.1608 H         1 UNK         0.3096 
     66 H66        16.5695  -26.4009  -40.3701 H         1 UNK         0.1121 
     67 H67        15.9519  -25.2131  -42.3972 H         1 UNK         0.0849 
     68 H68        15.1907  -26.7602  -42.3646 H         1 UNK         0.0849 
     69 H69        15.4378  -28.5598  -43.7987 H         1 UNK         0.0865 
     70 H70        15.3575  -28.0052  -45.4520 H         1 UNK         0.0865 
     71 H71        16.7453  -30.4930  -43.3671 H         1 UNK         0.1346 
     72 H72        19.8935  -31.6888  -46.0151 H         1 UNK         0.1412 
     73 H73        17.7184  -28.0652  -46.7561 H         1 UNK         0.1426 
     74 H74        19.6616  -30.2989  -48.4796 H         1 UNK         0.0716 
     75 H75        19.5276  -28.5879  -48.1606 H         1 UNK         0.0716 
     76 H76        22.4727  -28.8908  -45.1100 H         1 UNK         0.0695 
     77 H77        20.7577  -28.8813  -45.0599 H         1 UNK         0.0695 
     78 H78        20.9794  -26.7522  -46.6844 H         1 UNK         0.0983 
     79 H79        20.1401  -25.8107  -44.8805 H         1 UNK         0.3095 
     80 H80        21.1535  -25.6118  -41.4363 H         1 UNK         0.0454 
     81 H81        20.0846  -23.4831  -41.9739 H         1 UNK         0.0851 
     82 H82        19.8240  -23.9522  -43.6490 H         1 UNK         0.0851 
     83 H83        21.4537  -23.6631  -43.0525 H         1 UNK         0.0851 
     84 H84        19.0491  -26.8872  -42.9008 H         1 UNK         0.2976 
     85 H85        23.6117  -28.1705  -46.8905 H         1 UNK         0.3116 
     86 H86        25.4875  -25.8981  -47.0044 H         1 UNK         0.0646 
     87 H87        25.4270  -27.5436  -48.8695 H         1 UNK         0.0847 
     88 H88        26.9843  -27.5781  -48.0608 H         1 UNK         0.0847 
     89 H89        25.8138  -28.8539  -47.7546 H         1 UNK         0.0847 
     90 H90        24.8399  -25.8894  -44.5438 H         1 UNK         0.3040 
     91 H91        25.4117  -25.9496  -42.4041 H         1 UNK         0.1015 
     92 H92        28.2176  -26.7710  -43.3221 H         1 UNK         0.0786 
     93 H93        27.7938  -26.0495  -41.7774 H         1 UNK         0.0786 
     94 H94        27.6160  -25.1150  -43.2519 H         1 UNK         0.0786 
     95 H95        24.0437  -28.1670  -43.2587 H         1 UNK         0.3172 
     96 H96        25.1466  -30.5386  -41.8525 H         1 UNK         0.0595 
     97 H97        22.4556  -30.2225  -43.2726 H         1 UNK         0.0839 
     98 H98        23.2126  -31.7117  -42.7461 H         1 UNK         0.0839 
     99 H99        23.9247  -30.8015  -44.0684 H         1 UNK         0.0839 
    100 H100       22.9189  -27.8755  -41.4209 H         1 UNK         0.2998 
    101 H101       21.6877  -27.0813  -39.7590 H         1 UNK         0.0822 
    102 H102       22.3363  -27.5475  -37.3920 H         1 UNK         0.0787 
    103 H103       23.3994  -28.8501  -37.9221 H         1 UNK         0.0787 
    104 H104       23.7309  -27.1905  -38.3906 H         1 UNK         0.0787 
    105 H105       21.5890  -29.7284  -37.6208 H         1 UNK         0.3055 
    106 H106       18.7821  -30.2479  -38.1277 H         1 UNK         0.1106 
    107 H107       19.0262  -31.7763  -36.1731 H         1 UNK         0.0828 
    108 H108       20.7714  -31.5739  -36.2045 H         1 UNK         0.0828 
    109 H109       19.7243  -30.2055  -35.8208 H         1 UNK         0.0828 
    110 H110       21.6490  -31.5397  -39.4991 H         1 UNK         0.2931 
    111 H111       22.1305  -33.1717  -40.8534 H         1 UNK         0.0412 
    112 H112       21.5876  -36.6985  -39.7782 H         1 UNK         0.3472 
    113 H113       21.3741  -35.8662  -41.2942 H         1 UNK         0.3472 
    114 H114       19.1425  -33.7590  -41.2115 H         1 UNK         0.0970 
    115 H115       20.4198  -34.3208  -42.2595 H         1 UNK         0.0970 
    116 H116       17.7755  -32.6832  -43.1135 H         1 UNK         0.0612 
    117 H117       18.9130  -33.2825  -44.3051 H         1 UNK         0.0612 
@<TRIPOS>BOND
     1    1    2 1    
     2    1   62 1    
     3    1   63 1    
     4    1   64 1    
     5    2    3 2    
     6    2    4 am   BACKBONE|DICT|INTERRES
     7    4    5 1    
     8    4   65 1    
     9    5    6 1    
    10    5   25 1    
    11    5   66 1    
    12    6    7 1    
    13    6   67 1    
    14    6   68 1    
    15    7    8 1    
    16    8    9 1    
    17    8   69 1    
    18    8   70 1    
    19    9   10 ar   
    20    9   14 ar   
    21   10   11 ar   
    22   10   71 1    
    23   11   12 ar   
    24   11   61 1    
    25   12   13 ar   
    26   12   72 1    
    27   13   14 ar   
    28   13   15 1    
    29   14   73 1    
    30   15   16 1    
    31   15   74 1    
    32   15   75 1    
    33   16   17 1    
    34   17   18 1    
    35   17   76 1    
    36   17   77 1    
    37   18   19 1    
    38   18   27 1    
    39   18   78 1    
    40   19   20 am   BACKBONE|DICT|INTERRES
    41   19   79 1    
    42   20   21 2    
    43   20   22 1    
    44   22   23 1    
    45   22   24 1    
    46   22   80 1    
    47   23   81 1    
    48   23   82 1    
    49   23   83 1    
    50   24   25 am   BACKBONE|DICT|INTERRES
    51   24   84 1    
    52   25   26 2    
    53   27   28 2    
    54   27   29 am   BACKBONE|DICT|INTERRES
    55   29   30 1    
    56   29   85 1    
    57   30   31 1    
    58   30   32 1    
    59   30   86 1    
    60   31   87 1    
    61   31   88 1    
    62   31   89 1    
    63   32   33 2    
    64   32   34 am   BACKBONE|DICT|INTERRES
    65   34   35 1    
    66   34   90 1    
    67   35   36 1    
    68   35   37 1    
    69   35   91 1    
    70   36   92 1    
    71   36   93 1    
    72   36   94 1    
    73   37   38 2    
    74   37   39 am   BACKBONE|DICT|INTERRES
    75   39   40 1    
    76   39   95 1    
    77   40   41 1    
    78   40   42 1    
    79   40   96 1    
    80   41   97 1    
    81   41   98 1    
    82   41   99 1    
    83   42   43 2    
    84   42   44 am   BACKBONE|DICT|INTERRES
    85   44   45 1    
    86   44  100 1    
    87   45   46 1    
    88   45   47 1    
    89   45  101 1    
    90   46  102 1    
    91   46  103 1    
    92   46  104 1    
    93   47   48 2    
    94   47   49 am   BACKBONE|DICT|INTERRES
    95   49   50 1    
    96   49  105 1    
    97   50   51 1    
    98   50   52 1    
    99   50  106 1    
   100   51  107 1    
   101   51  108 1    
   102   51  109 1    
   103   52   53 2    
   104   52   54 am   BACKBONE|DICT|INTERRES
   105   54   55 1    
   106   54  110 1    
   107   55   56 1    
   108   55   59 1    
   109   55  111 1    
   110   56   57 am   BACKBONE|DICT|INTERRES
   111   56   58 2    
   112   57  112 1    
   113   57  113 1    
   114   59   60 1    
   115   59  114 1    
   116   59  115 1    
   117   60   61 1    
   118   61  116 1    
   119   61  117 1    
@<TRIPOS>SUBSTRUCTURE
     1 UNK         1 GROUP             0       ****    0 ROOT    
