@<TRIPOS>MOLECULE
3R8
117   119    1
SMALL
USER_CHARGES


@<TRIPOS>ATOM
      1 CA         16.8747  -25.0670  -50.8806 C.3       0 UNK        -0.2013 
      2 C          17.6282  -26.0585  -50.0065 C.2       0 UNK         0.4866 
      3 O          18.0211  -27.1230  -50.4849 O.2       0 UNK        -0.5176 
      4 N          17.8368  -25.7169  -48.7324 N.am      1 UNK        -0.4884 
      5 CA         18.5428  -26.5258  -47.7399 C.3       1 UNK         0.0853 
      6 C6         17.6923  -27.7129  -47.1982 C.3       10 UNK        -0.0849 
      7 S7         16.1038  -27.2147  -46.4444 S.3       10 UNK        -0.2776 
      8 C8         15.5190  -28.7948  -45.7516 C.3       10 UNK         0.0316 
      9 C9         16.0685  -29.0804  -44.3576 C.ar      10 UNK        -0.0863 
     10 C10        16.8120  -30.2400  -44.1099 C.ar      10 UNK        -0.1009 
     11 C11        17.2188  -30.5621  -42.8099 C.ar      10 UNK        -0.0712 
     12 C12        16.8797  -29.7072  -41.7550 C.ar      10 UNK        -0.0894 
     13 C13        16.1816  -28.5201  -41.9947 C.ar      10 UNK        -0.0745 
     14 C14        15.7679  -28.2203  -43.2960 C.ar      10 UNK        -0.0972 
     15 C15        15.8519  -27.5700  -40.8505 C.3       10 UNK         0.0209 
     16 S16        16.9326  -26.1004  -40.8485 S.3       10 UNK        -0.2568 
     17 C17        18.4722  -26.7346  -40.0959 C.3       10 UNK        -0.0983 
     18 CA         19.4598  -27.3217  -41.1386 C.3       3 UNK         0.0876 
     19 N          19.7670  -26.3747  -42.2153 N.am      3 UNK        -0.4424 
     20 C          20.1091  -26.7373  -43.4557 C.2       2 UNK         0.4918 
     21 O          20.2546  -27.9063  -43.8241 O.2       2 UNK        -0.4875 
     22 CA         20.3051  -25.6079  -44.4724 C.3       2 UNK         0.0481 
     23 CB         21.7725  -25.1549  -44.5225 C.3       2 UNK        -0.1831 
     24 N          19.9149  -26.1510  -45.7671 N.am      2 UNK        -0.4498 
     25 C          19.0432  -25.6027  -46.6153 C.2       1 UNK         0.5027 
     26 O          18.6180  -24.4462  -46.5241 O.2       1 UNK        -0.4969 
     27 C          20.7374  -27.9098  -40.5006 C.2       3 UNK         0.5005 
     28 O          21.8440  -27.6298  -40.9642 O.2       3 UNK        -0.5279 
     29 N          20.5585  -28.7444  -39.4643 N.am      4 UNK        -0.4463 
     30 CA         21.5465  -29.6577  -38.8687 C.3       4 UNK         0.0283 
     31 CB         20.9018  -30.3867  -37.6793 C.3       4 UNK        -0.1875 
     32 C          22.9148  -29.0760  -38.4628 C.2       4 UNK         0.4949 
     33 O          23.8688  -29.8444  -38.3380 O.2       4 UNK        -0.5039 
     34 N          23.0178  -27.7496  -38.3063 N.am      5 UNK        -0.4663 
     35 CA         24.2893  -27.0297  -38.1741 C.3       5 UNK         0.0242 
     36 CB         24.0056  -25.5420  -37.9138 C.3       5 UNK        -0.1982 
     37 C          25.2101  -27.1989  -39.4006 C.2       5 UNK         0.5017 
     38 O          26.4315  -27.2069  -39.2416 O.2       5 UNK        -0.5012 
     39 N          24.6180  -27.3788  -40.5902 N.am      6 UNK        -0.4439 
     40 CA         25.3028  -27.7190  -41.8345 C.3       6 UNK         0.0297 
     41 CB         24.4851  -27.1791  -43.0222 C.3       6 UNK        -0.2006 
     42 C          25.5272  -29.2395  -41.9168 C.2       6 UNK         0.4892 
     43 O          24.8794  -29.9172  -42.7167 O.2       6 UNK        -0.5089 
     44 N          26.4349  -29.7421  -41.0667 N.am      7 UNK        -0.4243 
     45 CA         26.9515  -31.1180  -41.0188 C.3       7 UNK         0.0196 
     46 CB         27.9200  -31.3506  -42.1979 C.3       7 UNK        -0.2007 
     47 C          25.8573  -32.2024  -40.9296 C.2       7 UNK         0.5020 
     48 O          25.9064  -33.1898  -41.6653 O.2       7 UNK        -0.5147 
     49 N          24.8758  -31.9858  -40.0422 N.am      8 UNK        -0.4734 
     50 CA         23.7127  -32.8458  -39.7785 C.3       8 UNK         0.0238 
     51 CB         24.1472  -34.2357  -39.2634 C.3       8 UNK        -0.1912 
     52 C          22.7009  -32.9346  -40.9406 C.2       8 UNK         0.5038 
     53 O          21.8473  -33.8213  -40.9063 O.2       8 UNK        -0.5046 
     54 N          22.7962  -32.0156  -41.9163 N.am      9 UNK        -0.4200 
     55 CA         21.9087  -31.8280  -43.0810 C.3       9 UNK         0.0839 
     56 C          21.6395  -33.0768  -43.9747 C.2       9 UNK         0.5513 
     57 N          22.5109  -34.0784  -43.9751 N.am      9 UNK        -0.7519 
     58 O          20.6603  -33.1241  -44.7150 O.2       9 UNK        -0.4960 
     59 C59        20.6544  -30.9576  -42.7712 C.3       10 UNK        -0.0876 
     60 S60        19.4799  -31.6323  -41.5462 S.3       10 UNK        -0.2414 
     61 C61        17.9689  -31.8636  -42.5402 C.3       10 UNK         0.0169 
     62 H62        16.5837  -24.1746  -50.3266 H         1 UNK         0.0903 
     63 H63        17.4970  -24.7577  -51.7200 H         1 UNK         0.0903 
     64 H64        15.9710  -25.5288  -51.2775 H         1 UNK         0.0903 
     65 H65        17.5364  -24.8173  -48.3753 H         1 UNK         0.3096 
     66 H66        19.4350  -26.9337  -48.2212 H         1 UNK         0.1121 
     67 H67        18.2590  -28.2935  -46.4675 H         1 UNK         0.0849 
     68 H68        17.4756  -28.4047  -48.0135 H         1 UNK         0.0849 
     69 H69        14.4304  -28.7610  -45.6899 H         1 UNK         0.0865 
     70 H70        15.7542  -29.6056  -46.4430 H         1 UNK         0.0865 
     71 H71        17.0444  -30.9124  -44.9245 H         1 UNK         0.1346 
     72 H72        17.1776  -29.9602  -40.7468 H         1 UNK         0.1412 
     73 H73        15.2014  -27.3178  -43.4824 H         1 UNK         0.1426 
     74 H74        15.9137  -28.0786  -39.8872 H         1 UNK         0.0716 
     75 H75        14.8169  -27.2395  -40.9500 H         1 UNK         0.0716 
     76 H76        18.1984  -27.4744  -39.3425 H         1 UNK         0.0695 
     77 H77        18.9428  -25.9119  -39.5544 H         1 UNK         0.0695 
     78 H78        18.9732  -28.1767  -41.6047 H         1 UNK         0.0983 
     79 H79        19.6855  -25.3954  -41.9870 H         1 UNK         0.3095 
     80 H80        19.6683  -24.7652  -44.1943 H         1 UNK         0.0454 
     81 H81        22.4357  -25.9714  -44.8097 H         1 UNK         0.0851 
     82 H82        22.1033  -24.7897  -43.5495 H         1 UNK         0.0851 
     83 H83        21.9107  -24.3452  -45.2389 H         1 UNK         0.0851 
     84 H84        20.1587  -27.1276  -45.8779 H         1 UNK         0.2976 
     85 H85        19.6119  -28.8809  -39.1412 H         1 UNK         0.3116 
     86 H86        21.7574  -30.4012  -39.6378 H         1 UNK         0.0646 
     87 H87        20.5910  -29.6891  -36.9007 H         1 UNK         0.0847 
     88 H88        21.5980  -31.0924  -37.2236 H         1 UNK         0.0847 
     89 H89        20.0274  -30.9591  -37.9901 H         1 UNK         0.0847 
     90 H90        22.1880  -27.1921  -38.4474 H         1 UNK         0.3040 
     91 H91        24.8178  -27.4391  -37.3104 H         1 UNK         0.1015 
     92 H92        23.4588  -25.0848  -38.7397 H         1 UNK         0.0786 
     93 H93        24.9349  -24.9841  -37.7892 H         1 UNK         0.0786 
     94 H94        23.4213  -25.4022  -37.0042 H         1 UNK         0.0786 
     95 H95        23.5982  -27.4129  -40.6271 H         1 UNK         0.3172 
     96 H96        26.2806  -27.2332  -41.8581 H         1 UNK         0.0595 
     97 H97        23.4914  -27.6270  -43.0690 H         1 UNK         0.0839 
     98 H98        24.9831  -27.3945  -43.9682 H         1 UNK         0.0839 
     99 H99        24.3624  -26.0981  -42.9579 H         1 UNK         0.0839 
    100 H100       26.8476  -29.0940  -40.4056 H         1 UNK         0.2998 
    101 H101       27.5295  -31.1982  -40.0969 H         1 UNK         0.0822 
    102 H102       28.7153  -30.6054  -42.2118 H         1 UNK         0.0787 
    103 H103       28.3971  -32.3291  -42.1281 H         1 UNK         0.0787 
    104 H104       27.4029  -31.3071  -43.1574 H         1 UNK         0.0787 
    105 H105       24.8901  -31.1247  -39.5013 H         1 UNK         0.3055 
    106 H106       23.1698  -32.3665  -38.9634 H         1 UNK         0.1106 
    107 H107       23.2904  -34.8025  -38.8970 H         1 UNK         0.0828 
    108 H108       24.6157  -34.8328  -40.0459 H         1 UNK         0.0828 
    109 H109       24.8521  -34.1507  -38.4365 H         1 UNK         0.0828 
    110 H110       23.5779  -31.3711  -41.8830 H         1 UNK         0.2931 
    111 H111       22.5135  -31.2052  -43.7412 H         1 UNK         0.0412 
    112 H112       22.3452  -34.8796  -44.5635 H         1 UNK         0.3472 
    113 H113       23.3201  -34.0476  -43.3744 H         1 UNK         0.3472 
    114 H114       20.1218  -30.7156  -43.6927 H         1 UNK         0.0970 
    115 H115       20.9968  -29.9971  -42.3909 H         1 UNK         0.0970 
    116 H116       18.2291  -32.3694  -43.4713 H         1 UNK         0.0612 
    117 H117       17.3026  -32.5379  -42.0010 H         1 UNK         0.0612 
@<TRIPOS>BOND
     1    1    2 1    
     2    1   62 1    
     3    1   63 1    
     4    1   64 1    
     5    2    3 2    
     6    2    4 am   BACKBONE|DICT|INTERRES
     7    4    5 1    
     8    4   65 1    
     9    5    6 1    
    10    5   25 1    
    11    5   66 1    
    12    6    7 1    
    13    6   67 1    
    14    6   68 1    
    15    7    8 1    
    16    8    9 1    
    17    8   69 1    
    18    8   70 1    
    19    9   10 ar   
    20    9   14 ar   
    21   10   11 ar   
    22   10   71 1    
    23   11   12 ar   
    24   11   61 1    
    25   12   13 ar   
    26   12   72 1    
    27   13   14 ar   
    28   13   15 1    
    29   14   73 1    
    30   15   16 1    
    31   15   74 1    
    32   15   75 1    
    33   16   17 1    
    34   17   18 1    
    35   17   76 1    
    36   17   77 1    
    37   18   19 1    
    38   18   27 1    
    39   18   78 1    
    40   19   20 am   BACKBONE|DICT|INTERRES
    41   19   79 1    
    42   20   21 2    
    43   20   22 1    
    44   22   23 1    
    45   22   24 1    
    46   22   80 1    
    47   23   81 1    
    48   23   82 1    
    49   23   83 1    
    50   24   25 am   BACKBONE|DICT|INTERRES
    51   24   84 1    
    52   25   26 2    
    53   27   28 2    
    54   27   29 am   BACKBONE|DICT|INTERRES
    55   29   30 1    
    56   29   85 1    
    57   30   31 1    
    58   30   32 1    
    59   30   86 1    
    60   31   87 1    
    61   31   88 1    
    62   31   89 1    
    63   32   33 2    
    64   32   34 am   BACKBONE|DICT|INTERRES
    65   34   35 1    
    66   34   90 1    
    67   35   36 1    
    68   35   37 1    
    69   35   91 1    
    70   36   92 1    
    71   36   93 1    
    72   36   94 1    
    73   37   38 2    
    74   37   39 am   BACKBONE|DICT|INTERRES
    75   39   40 1    
    76   39   95 1    
    77   40   41 1    
    78   40   42 1    
    79   40   96 1    
    80   41   97 1    
    81   41   98 1    
    82   41   99 1    
    83   42   43 2    
    84   42   44 am   BACKBONE|DICT|INTERRES
    85   44   45 1    
    86   44  100 1    
    87   45   46 1    
    88   45   47 1    
    89   45  101 1    
    90   46  102 1    
    91   46  103 1    
    92   46  104 1    
    93   47   48 2    
    94   47   49 am   BACKBONE|DICT|INTERRES
    95   49   50 1    
    96   49  105 1    
    97   50   51 1    
    98   50   52 1    
    99   50  106 1    
   100   51  107 1    
   101   51  108 1    
   102   51  109 1    
   103   52   53 2    
   104   52   54 am   BACKBONE|DICT|INTERRES
   105   54   55 1    
   106   54  110 1    
   107   55   56 1    
   108   55   59 1    
   109   55  111 1    
   110   56   57 am   BACKBONE|DICT|INTERRES
   111   56   58 2    
   112   57  112 1    
   113   57  113 1    
   114   59   60 1    
   115   59  114 1    
   116   59  115 1    
   117   60   61 1    
   118   61  116 1    
   119   61  117 1    
@<TRIPOS>SUBSTRUCTURE
     1 UNK         1 GROUP             0       ****    0 ROOT    
