@<TRIPOS>MOLECULE
3R8
117   119    1
SMALL
USER_CHARGES


@<TRIPOS>ATOM
      1 CA         18.1525  -28.3308  -40.8235 C.3       0 UNK        -0.2013 
      2 C          17.6084  -26.9815  -41.2606 C.2       0 UNK         0.4866 
      3 O          16.7395  -26.4269  -40.5872 O.2       0 UNK        -0.5176 
      4 N          18.1087  -26.4527  -42.3819 N.am      1 UNK        -0.4884 
      5 CA         17.7031  -25.1647  -42.9400 C.3       1 UNK         0.0853 
      6 C6         16.3794  -25.2418  -43.7565 C.3       10 UNK        -0.0849 
      7 S7         16.4168  -26.2861  -45.2573 S.3       10 UNK        -0.2776 
      8 C8         15.9494  -27.9411  -44.6340 C.3       10 UNK         0.0316 
      9 C9         17.0634  -28.9775  -44.7790 C.ar      10 UNK        -0.0863 
     10 C10        17.2465  -29.9541  -43.7940 C.ar      10 UNK        -0.1009 
     11 C11        18.2353  -30.9350  -43.9335 C.ar      10 UNK        -0.0712 
     12 C12        19.0639  -30.9214  -45.0601 C.ar      10 UNK        -0.0894 
     13 C13        18.8849  -29.9609  -46.0609 C.ar      10 UNK        -0.0745 
     14 C14        17.8733  -29.0071  -45.9193 C.ar      10 UNK        -0.0972 
     15 C15        19.7520  -29.9811  -47.3159 C.3       10 UNK         0.0209 
     16 S16        20.4302  -28.3422  -47.7454 S.3       10 UNK        -0.2568 
     17 C17        21.5821  -28.0881  -46.3620 C.3       10 UNK        -0.0983 
     18 CA         22.0808  -26.6257  -46.2590 C.3       3 UNK         0.0876 
     19 N          20.9842  -25.6917  -45.9840 N.am      3 UNK        -0.4424 
     20 C          21.0846  -24.3575  -46.0460 C.2       2 UNK         0.4918 
     21 O          22.1175  -23.7660  -46.3641 O.2       2 UNK        -0.4875 
     22 CA         19.8214  -23.5300  -45.7394 C.3       2 UNK         0.0481 
     23 CB         19.1710  -23.0523  -47.0479 C.3       2 UNK        -0.1831 
     24 N          18.8118  -24.2278  -44.9374 N.am      2 UNK        -0.4498 
     25 C          18.9150  -24.5097  -43.6323 C.2       1 UNK         0.5027 
     26 O          19.9154  -24.2522  -42.9615 O.2       1 UNK        -0.4969 
     27 C          23.1795  -26.5511  -45.1820 C.2       3 UNK         0.5005 
     28 O          22.8764  -26.3570  -44.0033 O.2       3 UNK        -0.5279 
     29 N          24.4267  -26.8373  -45.5850 N.am      4 UNK        -0.4463 
     30 CA         25.5690  -27.0462  -44.6823 C.3       4 UNK         0.0283 
     31 CB         26.8586  -27.1513  -45.5125 C.3       4 UNK        -0.1875 
     32 C          25.4127  -28.2808  -43.7685 C.2       4 UNK         0.4949 
     33 O          26.0968  -28.3737  -42.7505 O.2       4 UNK        -0.5039 
     34 N          24.4984  -29.1886  -44.1386 N.am      5 UNK        -0.4663 
     35 CA         24.0604  -30.3441  -43.3566 C.3       5 UNK         0.0242 
     36 CB         23.2961  -31.3041  -44.2855 C.3       5 UNK        -0.1982 
     37 C          23.1917  -29.9871  -42.1347 C.2       5 UNK         0.5017 
     38 O          22.9147  -30.8846  -41.3405 O.2       5 UNK        -0.5012 
     39 N          22.7580  -28.7228  -41.9923 N.am      6 UNK        -0.4439 
     40 CA         21.9532  -28.2458  -40.8630 C.3       6 UNK         0.0297 
     41 CB         21.6339  -26.7543  -41.0388 C.3       6 UNK        -0.2006 
     42 C          22.6288  -28.5029  -39.5043 C.2       6 UNK         0.4892 
     43 O          23.8252  -28.2467  -39.3587 O.2       6 UNK        -0.5089 
     44 N          21.8390  -29.0389  -38.5629 N.am      7 UNK        -0.4243 
     45 CA         22.2231  -29.5565  -37.2406 C.3       7 UNK         0.0196 
     46 CB         22.9615  -28.4990  -36.3926 C.3       7 UNK        -0.2007 
     47 C          22.9765  -30.9041  -37.2766 C.2       7 UNK         0.5020 
     48 O          23.2693  -31.4438  -36.2092 O.2       7 UNK        -0.5147 
     49 N          23.2336  -31.4561  -38.4705 N.am      8 UNK        -0.4734 
     50 CA         23.8030  -32.7895  -38.6918 C.3       8 UNK         0.0238 
     51 CB         25.1529  -32.6464  -39.4193 C.3       8 UNK        -0.1912 
     52 C          22.8273  -33.6950  -39.4708 C.2       8 UNK         0.5038 
     53 O          23.2353  -34.7619  -39.9328 O.2       8 UNK        -0.5046 
     54 N          21.5622  -33.2664  -39.5969 N.am      9 UNK        -0.4200 
     55 CA         20.4653  -33.9888  -40.2620 C.3       9 UNK         0.0839 
     56 C          20.0512  -35.3247  -39.5754 C.2       9 UNK         0.5513 
     57 N          20.3973  -35.5649  -38.3160 N.am      9 UNK        -0.7519 
     58 O          19.4002  -36.1573  -40.2012 O.2       9 UNK        -0.4960 
     59 C59        19.2216  -33.0784  -40.4506 C.3       10 UNK        -0.0876 
     60 S60        19.5137  -31.6554  -41.5603 S.3       10 UNK        -0.2414 
     61 C61        18.3553  -32.0525  -42.9061 C.3       10 UNK         0.0169 
     62 H62        17.3347  -29.0259  -40.6358 H         1 UNK         0.0903 
     63 H63        18.7941  -28.7670  -41.5877 H         1 UNK         0.0903 
     64 H64        18.7273  -28.2248  -39.9046 H         1 UNK         0.0903 
     65 H65        18.8332  -26.9361  -42.8939 H         1 UNK         0.3096 
     66 H66        17.5019  -24.4949  -42.1001 H         1 UNK         0.1121 
     67 H67        16.0795  -24.2369  -44.0594 H         1 UNK         0.0849 
     68 H68        15.5709  -25.5856  -43.1097 H         1 UNK         0.0849 
     69 H69        15.6309  -27.8699  -43.5933 H         1 UNK         0.0865 
     70 H70        15.0812  -28.2896  -45.1946 H         1 UNK         0.0865 
     71 H71        16.6009  -29.9695  -42.9266 H         1 UNK         0.1346 
     72 H72        19.8263  -31.6806  -45.1702 H         1 UNK         0.1412 
     73 H73        17.7189  -28.2833  -46.7074 H         1 UNK         0.1426 
     74 H74        19.1473  -30.3388  -48.1501 H         1 UNK         0.0716 
     75 H75        20.5777  -30.6863  -47.2075 H         1 UNK         0.0716 
     76 H76        22.4151  -28.7768  -46.5154 H         1 UNK         0.0695 
     77 H77        21.0993  -28.3907  -45.4301 H         1 UNK         0.0695 
     78 H78        22.5238  -26.3387  -47.2155 H         1 UNK         0.0983 
     79 H79        20.1015  -26.1002  -45.7190 H         1 UNK         0.3095 
     80 H80        20.1412  -22.6478  -45.1809 H         1 UNK         0.0454 
     81 H81        18.8100  -23.8886  -47.6480 H         1 UNK         0.0851 
     82 H82        19.8836  -22.4968  -47.6593 H         1 UNK         0.0851 
     83 H83        18.3285  -22.3883  -46.8543 H         1 UNK         0.0851 
     84 H84        17.9663  -24.5172  -45.4136 H         1 UNK         0.2976 
     85 H85        24.5999  -26.9895  -46.5692 H         1 UNK         0.3116 
     86 H86        25.6482  -26.1708  -44.0341 H         1 UNK         0.0646 
     87 H87        26.8354  -28.0049  -46.1911 H         1 UNK         0.0847 
     88 H88        27.7291  -27.2741  -44.8663 H         1 UNK         0.0847 
     89 H89        27.0247  -26.2522  -46.1062 H         1 UNK         0.0847 
     90 H90        24.0132  -29.0296  -45.0076 H         1 UNK         0.3040 
     91 H91        24.9472  -30.8577  -42.9788 H         1 UNK         0.1015 
     92 H92        22.3915  -30.8440  -44.6855 H         1 UNK         0.0786 
     93 H93        22.9904  -32.2047  -43.7504 H         1 UNK         0.0786 
     94 H94        23.9136  -31.6235  -45.1251 H         1 UNK         0.0786 
     95 H95        23.0253  -28.0286  -42.6811 H         1 UNK         0.3172 
     96 H96        21.0177  -28.8045  -40.8945 H         1 UNK         0.0595 
     97 H97        22.5415  -26.1497  -41.0646 H         1 UNK         0.0839 
     98 H98        21.0154  -26.3828  -40.2208 H         1 UNK         0.0839 
     99 H99        21.0883  -26.5716  -41.9639 H         1 UNK         0.0839 
    100 H100       20.8716  -29.1987  -38.8075 H         1 UNK         0.2998 
    101 H101       21.2804  -29.7675  -36.7331 H         1 UNK         0.0822 
    102 H102       22.4194  -27.5536  -36.3740 H         1 UNK         0.0787 
    103 H103       23.0640  -28.8328  -35.3593 H         1 UNK         0.0787 
    104 H104       23.9673  -28.3045  -36.7654 H         1 UNK         0.0787 
    105 H105       22.9929  -30.9519  -39.3196 H         1 UNK         0.3055 
    106 H106       23.9848  -33.2889  -37.7378 H         1 UNK         0.1106 
    107 H107       25.0333  -32.2188  -40.4149 H         1 UNK         0.0828 
    108 H108       25.6404  -33.6148  -39.5375 H         1 UNK         0.0828 
    109 H109       25.8370  -32.0075  -38.8608 H         1 UNK         0.0828 
    110 H110       21.3260  -32.3692  -39.2040 H         1 UNK         0.2931 
    111 H111       20.8279  -34.2626  -41.2548 H         1 UNK         0.0412 
    112 H112       20.9291  -34.8886  -37.7923 H         1 UNK         0.3472 
    113 H113       20.1236  -36.4347  -37.8860 H         1 UNK         0.3472 
    114 H114       18.8836  -32.6958  -39.4859 H         1 UNK         0.0970 
    115 H115       18.3837  -33.6591  -40.8417 H         1 UNK         0.0970 
    116 H116       18.6789  -32.9742  -43.3923 H         1 UNK         0.0612 
    117 H117       17.3711  -32.2595  -42.4828 H         1 UNK         0.0612 
@<TRIPOS>BOND
     1    1    2 1    
     2    1   62 1    
     3    1   63 1    
     4    1   64 1    
     5    2    3 2    
     6    2    4 am   BACKBONE|DICT|INTERRES
     7    4    5 1    
     8    4   65 1    
     9    5    6 1    
    10    5   25 1    
    11    5   66 1    
    12    6    7 1    
    13    6   67 1    
    14    6   68 1    
    15    7    8 1    
    16    8    9 1    
    17    8   69 1    
    18    8   70 1    
    19    9   10 ar   
    20    9   14 ar   
    21   10   11 ar   
    22   10   71 1    
    23   11   12 ar   
    24   11   61 1    
    25   12   13 ar   
    26   12   72 1    
    27   13   14 ar   
    28   13   15 1    
    29   14   73 1    
    30   15   16 1    
    31   15   74 1    
    32   15   75 1    
    33   16   17 1    
    34   17   18 1    
    35   17   76 1    
    36   17   77 1    
    37   18   19 1    
    38   18   27 1    
    39   18   78 1    
    40   19   20 am   BACKBONE|DICT|INTERRES
    41   19   79 1    
    42   20   21 2    
    43   20   22 1    
    44   22   23 1    
    45   22   24 1    
    46   22   80 1    
    47   23   81 1    
    48   23   82 1    
    49   23   83 1    
    50   24   25 am   BACKBONE|DICT|INTERRES
    51   24   84 1    
    52   25   26 2    
    53   27   28 2    
    54   27   29 am   BACKBONE|DICT|INTERRES
    55   29   30 1    
    56   29   85 1    
    57   30   31 1    
    58   30   32 1    
    59   30   86 1    
    60   31   87 1    
    61   31   88 1    
    62   31   89 1    
    63   32   33 2    
    64   32   34 am   BACKBONE|DICT|INTERRES
    65   34   35 1    
    66   34   90 1    
    67   35   36 1    
    68   35   37 1    
    69   35   91 1    
    70   36   92 1    
    71   36   93 1    
    72   36   94 1    
    73   37   38 2    
    74   37   39 am   BACKBONE|DICT|INTERRES
    75   39   40 1    
    76   39   95 1    
    77   40   41 1    
    78   40   42 1    
    79   40   96 1    
    80   41   97 1    
    81   41   98 1    
    82   41   99 1    
    83   42   43 2    
    84   42   44 am   BACKBONE|DICT|INTERRES
    85   44   45 1    
    86   44  100 1    
    87   45   46 1    
    88   45   47 1    
    89   45  101 1    
    90   46  102 1    
    91   46  103 1    
    92   46  104 1    
    93   47   48 2    
    94   47   49 am   BACKBONE|DICT|INTERRES
    95   49   50 1    
    96   49  105 1    
    97   50   51 1    
    98   50   52 1    
    99   50  106 1    
   100   51  107 1    
   101   51  108 1    
   102   51  109 1    
   103   52   53 2    
   104   52   54 am   BACKBONE|DICT|INTERRES
   105   54   55 1    
   106   54  110 1    
   107   55   56 1    
   108   55   59 1    
   109   55  111 1    
   110   56   57 am   BACKBONE|DICT|INTERRES
   111   56   58 2    
   112   57  112 1    
   113   57  113 1    
   114   59   60 1    
   115   59  114 1    
   116   59  115 1    
   117   60   61 1    
   118   61  116 1    
   119   61  117 1    
@<TRIPOS>SUBSTRUCTURE
     1 UNK         1 GROUP             0       ****    0 ROOT    
