@<TRIPOS>MOLECULE
3R8
117   119    1
SMALL
USER_CHARGES


@<TRIPOS>ATOM
      1 CA         13.1981  -24.8432  -43.5305 C.3       0 UNK        -0.2013 
      2 C          14.4022  -24.6488  -44.4396 C.2       0 UNK         0.4866 
      3 O          14.6549  -23.5309  -44.8892 O.2       0 UNK        -0.5176 
      4 N          15.1436  -25.7298  -44.7161 N.am      1 UNK        -0.4884 
      5 CA         16.3399  -25.7339  -45.5693 C.3       1 UNK         0.0853 
      6 C6         16.8067  -27.1686  -45.8896 C.3       10 UNK        -0.0849 
      7 S7         15.5975  -28.1553  -46.8444 S.3       10 UNK        -0.2776 
      8 C8         15.5840  -29.7807  -45.9881 C.3       10 UNK         0.0316 
      9 C9         16.9441  -30.2495  -45.4673 C.ar      10 UNK        -0.0863 
     10 C10        17.0256  -30.8887  -44.2252 C.ar      10 UNK        -0.1009 
     11 C11        18.2670  -31.2316  -43.6801 C.ar      10 UNK        -0.0712 
     12 C12        19.4363  -30.9203  -44.3794 C.ar      10 UNK        -0.0894 
     13 C13        19.3682  -30.2691  -45.6136 C.ar      10 UNK        -0.0745 
     14 C14        18.1222  -29.9916  -46.1772 C.ar      10 UNK        -0.0972 
     15 C15        20.6291  -29.7804  -46.3079 C.3       10 UNK         0.0209 
     16 S16        20.9078  -28.0090  -45.9578 S.3       10 UNK        -0.2568 
     17 C17        21.5813  -28.1015  -44.2680 C.3       10 UNK        -0.0983 
     18 CA         21.6743  -26.7336  -43.5383 C.3       3 UNK         0.0876 
     19 N          20.3492  -26.1151  -43.3429 N.am      3 UNK        -0.4424 
     20 C          20.1216  -24.8133  -43.1099 C.2       2 UNK         0.4918 
     21 O          21.0229  -23.9736  -43.0775 O.2       2 UNK        -0.4875 
     22 CA         18.6721  -24.3935  -42.7831 C.3       2 UNK         0.0481 
     23 CB         18.4780  -22.8619  -42.7823 C.3       2 UNK        -0.1831 
     24 N          17.6561  -25.0439  -43.6173 N.am      2 UNK        -0.4498 
     25 C          17.5185  -24.9528  -44.9499 C.2       1 UNK         0.5027 
     26 O          18.2670  -24.3048  -45.6827 O.2       1 UNK        -0.4969 
     27 C          22.4605  -26.8724  -42.2058 C.2       3 UNK         0.5005 
     28 O          23.1111  -27.8957  -41.9784 O.2       3 UNK        -0.5279 
     29 N          22.3969  -25.8566  -41.3333 N.am      4 UNK        -0.4463 
     30 CA         22.9477  -25.8542  -39.9724 C.3       4 UNK         0.0283 
     31 CB         22.4978  -24.5751  -39.2487 C.3       4 UNK        -0.1875 
     32 C          24.4775  -26.0011  -39.9042 C.2       4 UNK         0.4949 
     33 O          24.9899  -26.5147  -38.9101 O.2       4 UNK        -0.5039 
     34 N          25.1749  -25.5690  -40.9635 N.am      5 UNK        -0.4663 
     35 CA         26.6217  -25.7296  -41.1245 C.3       5 UNK         0.0242 
     36 CB         27.1097  -24.7909  -42.2400 C.3       5 UNK        -0.1982 
     37 C          27.0427  -27.1810  -41.4217 C.2       5 UNK         0.5017 
     38 O          28.1847  -27.5394  -41.1313 O.2       5 UNK        -0.5012 
     39 N          26.1319  -27.9780  -41.9981 N.am      6 UNK        -0.4439 
     40 CA         26.3473  -29.3882  -42.3214 C.3       6 UNK         0.0297 
     41 CB         25.7181  -29.7078  -43.6883 C.3       6 UNK        -0.2006 
     42 C          25.7638  -30.3004  -41.2346 C.2       6 UNK         0.4892 
     43 O          26.4396  -31.2433  -40.8219 O.2       6 UNK        -0.5089 
     44 N          24.5220  -30.0099  -40.8091 N.am      7 UNK        -0.4243 
     45 CA         23.7060  -30.7747  -39.8553 C.3       7 UNK         0.0196 
     46 CB         24.2907  -30.6704  -38.4313 C.3       7 UNK        -0.2007 
     47 C          23.4729  -32.2312  -40.3096 C.2       7 UNK         0.5020 
     48 O          23.5073  -33.1525  -39.4920 O.2       7 UNK        -0.5147 
     49 N          23.2523  -32.4087  -41.6213 N.am      8 UNK        -0.4734 
     50 CA         23.2057  -33.6993  -42.3213 C.3       8 UNK         0.0238 
     51 CB         23.0492  -33.4437  -43.8298 C.3       8 UNK        -0.1912 
     52 C          22.1253  -34.6796  -41.8303 C.2       8 UNK         0.5038 
     53 O          22.3075  -35.8896  -41.9726 O.2       8 UNK        -0.5046 
     54 N          21.0363  -34.1476  -41.2640 N.am      9 UNK        -0.4200 
     55 CA         19.9447  -34.9253  -40.6574 C.3       9 UNK         0.0839 
     56 C          20.2534  -35.4319  -39.2174 C.2       9 UNK         0.5513 
     57 N          21.3632  -35.0546  -38.5919 N.am      9 UNK        -0.7519 
     58 O          19.4690  -36.1932  -38.6572 O.2       9 UNK        -0.4960 
     59 C59        18.5913  -34.1679  -40.7111 C.3       10 UNK        -0.0876 
     60 S60        18.1284  -33.6806  -42.4094 S.3       10 UNK        -0.2414 
     61 C61        18.3504  -31.8805  -42.3085 C.3       10 UNK         0.0169 
     62 H62        13.0897  -25.8797  -43.2115 H         1 UNK         0.0903 
     63 H63        13.2965  -24.2228  -42.6399 H         1 UNK         0.0903 
     64 H64        12.2855  -24.5516  -44.0497 H         1 UNK         0.0903 
     65 H65        14.8665  -26.6291  -44.3483 H         1 UNK         0.3096 
     66 H66        16.0836  -25.2364  -46.5076 H         1 UNK         0.1121 
     67 H67        17.7294  -27.1439  -46.4740 H         1 UNK         0.0849 
     68 H68        17.0524  -27.6809  -44.9580 H         1 UNK         0.0849 
     69 H69        14.8737  -29.7142  -45.1626 H         1 UNK         0.0865 
     70 H70        15.1893  -30.5347  -46.6702 H         1 UNK         0.0865 
     71 H71        16.1240  -31.0989  -43.6656 H         1 UNK         0.1346 
     72 H72        20.3991  -31.1448  -43.9425 H         1 UNK         0.1412 
     73 H73        18.0769  -29.4892  -47.1336 H         1 UNK         0.1426 
     74 H74        21.4981  -30.3635  -45.9985 H         1 UNK         0.0716 
     75 H75        20.5326  -29.9192  -47.3857 H         1 UNK         0.0716 
     76 H76        20.9811  -28.7907  -43.6744 H         1 UNK         0.0695 
     77 H77        22.5676  -28.5578  -44.3644 H         1 UNK         0.0695 
     78 H78        22.2673  -26.0670  -44.1684 H         1 UNK         0.0983 
     79 H79        19.5636  -26.7483  -43.3399 H         1 UNK         0.3095 
     80 H80        18.4875  -24.7408  -41.7656 H         1 UNK         0.0454 
     81 H81        18.7045  -22.4237  -43.7549 H         1 UNK         0.0851 
     82 H82        17.4543  -22.5913  -42.5238 H         1 UNK         0.0851 
     83 H83        19.1316  -22.3837  -42.0517 H         1 UNK         0.0851 
     84 H84        16.9752  -25.6028  -43.1218 H         1 UNK         0.2976 
     85 H85        21.8977  -25.0247  -41.6310 H         1 UNK         0.3116 
     86 H86        22.5202  -26.7110  -39.4472 H         1 UNK         0.0646 
     87 H87        22.8699  -24.5547  -38.2233 H         1 UNK         0.0847 
     88 H88        21.4109  -24.5081  -39.1973 H         1 UNK         0.0847 
     89 H89        22.8671  -23.6778  -39.7470 H         1 UNK         0.0847 
     90 H90        24.6704  -25.1399  -41.7258 H         1 UNK         0.3040 
     91 H91        27.1065  -25.4346  -40.1909 H         1 UNK         0.1015 
     92 H92        26.8834  -23.7495  -42.0102 H         1 UNK         0.0786 
     93 H93        26.6526  -25.0314  -43.2008 H         1 UNK         0.0786 
     94 H94        28.1909  -24.8647  -42.3665 H         1 UNK         0.0786 
     95 H95        25.1954  -27.6179  -42.1374 H         1 UNK         0.3172 
     96 H96        27.4171  -29.5952  -42.3951 H         1 UNK         0.0595 
     97 H97        25.8791  -30.7532  -43.9557 H         1 UNK         0.0839 
     98 H98        26.1601  -29.1006  -44.4783 H         1 UNK         0.0839 
     99 H99        24.6425  -29.5327  -43.6950 H         1 UNK         0.0839 
    100 H100       24.0469  -29.2133  -41.2334 H         1 UNK         0.2998 
    101 H101       22.7243  -30.2986  -39.8439 H         1 UNK         0.0822 
    102 H102       24.4295  -29.6298  -38.1369 H         1 UNK         0.0787 
    103 H103       23.6238  -31.1285  -37.6998 H         1 UNK         0.0787 
    104 H104       25.2551  -31.1730  -38.3519 H         1 UNK         0.0787 
    105 H105       23.2376  -31.5843  -42.2038 H         1 UNK         0.3055 
    106 H106       24.1689  -34.1871  -42.1556 H         1 UNK         0.1106 
    107 H107       23.0572  -34.3817  -44.3872 H         1 UNK         0.0828 
    108 H108       22.1101  -32.9393  -44.0593 H         1 UNK         0.0828 
    109 H109       23.8648  -32.8336  -44.2186 H         1 UNK         0.0828 
    110 H110       20.9844  -33.1454  -41.1724 H         1 UNK         0.2931 
    111 H111       19.8169  -35.8286  -41.2576 H         1 UNK         0.0412 
    112 H112       21.5423  -35.3998  -37.6623 H         1 UNK         0.3472 
    113 H113       22.0333  -34.4324  -39.0319 H         1 UNK         0.3472 
    114 H114       18.6157  -33.2906  -40.0621 H         1 UNK         0.0970 
    115 H115       17.7894  -34.8004  -40.3255 H         1 UNK         0.0970 
    116 H116       19.3142  -31.6570  -41.8486 H         1 UNK         0.0612 
    117 H117       17.5891  -31.4599  -41.6496 H         1 UNK         0.0612 
@<TRIPOS>BOND
     1    1    2 1    
     2    1   62 1    
     3    1   63 1    
     4    1   64 1    
     5    2    3 2    
     6    2    4 am   BACKBONE|DICT|INTERRES
     7    4    5 1    
     8    4   65 1    
     9    5    6 1    
    10    5   25 1    
    11    5   66 1    
    12    6    7 1    
    13    6   67 1    
    14    6   68 1    
    15    7    8 1    
    16    8    9 1    
    17    8   69 1    
    18    8   70 1    
    19    9   10 ar   
    20    9   14 ar   
    21   10   11 ar   
    22   10   71 1    
    23   11   12 ar   
    24   11   61 1    
    25   12   13 ar   
    26   12   72 1    
    27   13   14 ar   
    28   13   15 1    
    29   14   73 1    
    30   15   16 1    
    31   15   74 1    
    32   15   75 1    
    33   16   17 1    
    34   17   18 1    
    35   17   76 1    
    36   17   77 1    
    37   18   19 1    
    38   18   27 1    
    39   18   78 1    
    40   19   20 am   BACKBONE|DICT|INTERRES
    41   19   79 1    
    42   20   21 2    
    43   20   22 1    
    44   22   23 1    
    45   22   24 1    
    46   22   80 1    
    47   23   81 1    
    48   23   82 1    
    49   23   83 1    
    50   24   25 am   BACKBONE|DICT|INTERRES
    51   24   84 1    
    52   25   26 2    
    53   27   28 2    
    54   27   29 am   BACKBONE|DICT|INTERRES
    55   29   30 1    
    56   29   85 1    
    57   30   31 1    
    58   30   32 1    
    59   30   86 1    
    60   31   87 1    
    61   31   88 1    
    62   31   89 1    
    63   32   33 2    
    64   32   34 am   BACKBONE|DICT|INTERRES
    65   34   35 1    
    66   34   90 1    
    67   35   36 1    
    68   35   37 1    
    69   35   91 1    
    70   36   92 1    
    71   36   93 1    
    72   36   94 1    
    73   37   38 2    
    74   37   39 am   BACKBONE|DICT|INTERRES
    75   39   40 1    
    76   39   95 1    
    77   40   41 1    
    78   40   42 1    
    79   40   96 1    
    80   41   97 1    
    81   41   98 1    
    82   41   99 1    
    83   42   43 2    
    84   42   44 am   BACKBONE|DICT|INTERRES
    85   44   45 1    
    86   44  100 1    
    87   45   46 1    
    88   45   47 1    
    89   45  101 1    
    90   46  102 1    
    91   46  103 1    
    92   46  104 1    
    93   47   48 2    
    94   47   49 am   BACKBONE|DICT|INTERRES
    95   49   50 1    
    96   49  105 1    
    97   50   51 1    
    98   50   52 1    
    99   50  106 1    
   100   51  107 1    
   101   51  108 1    
   102   51  109 1    
   103   52   53 2    
   104   52   54 am   BACKBONE|DICT|INTERRES
   105   54   55 1    
   106   54  110 1    
   107   55   56 1    
   108   55   59 1    
   109   55  111 1    
   110   56   57 am   BACKBONE|DICT|INTERRES
   111   56   58 2    
   112   57  112 1    
   113   57  113 1    
   114   59   60 1    
   115   59  114 1    
   116   59  115 1    
   117   60   61 1    
   118   61  116 1    
   119   61  117 1    
@<TRIPOS>SUBSTRUCTURE
     1 UNK         1 GROUP             0       ****    0 ROOT    
