@<TRIPOS>MOLECULE
3R8
117   119    1
SMALL
USER_CHARGES


@<TRIPOS>ATOM
      1 CA         17.1362  -30.6772  -50.6981 C.3       0 UNK        -0.2013 
      2 C          17.6514  -30.9594  -49.2946 C.2       0 UNK         0.4866 
      3 O          17.6121  -32.1055  -48.8459 O.2       0 UNK        -0.5176 
      4 N          18.1369  -29.9265  -48.6015 N.am      1 UNK        -0.4884 
      5 CA         18.6759  -29.9946  -47.2442 C.3       1 UNK         0.0853 
      6 C6         17.5716  -30.0516  -46.1479 C.3       10 UNK        -0.0849 
      7 S7         16.3336  -28.7085  -46.2480 S.3       10 UNK        -0.2776 
      8 C8         15.3885  -28.9608  -44.7114 C.3       10 UNK         0.0316 
      9 C9         16.0750  -28.3537  -43.4939 C.ar      10 UNK        -0.0863 
     10 C10        16.6001  -29.1744  -42.4907 C.ar      10 UNK        -0.1009 
     11 C11        17.1870  -28.6147  -41.3507 C.ar      10 UNK        -0.0712 
     12 C12        17.2281  -27.2248  -41.2107 C.ar      10 UNK        -0.0894 
     13 C13        16.7294  -26.3888  -42.2166 C.ar      10 UNK        -0.0745 
     14 C14        16.1483  -26.9638  -43.3517 C.ar      10 UNK        -0.0972 
     15 C15        16.7661  -24.8680  -42.0770 C.3       10 UNK         0.0209 
     16 S16        18.3149  -24.2149  -41.3620 S.3       10 UNK        -0.2568 
     17 C17        19.5394  -24.5614  -42.6734 C.3       10 UNK        -0.0983 
     18 CA         20.4368  -25.7913  -42.3675 C.3       3 UNK         0.0876 
     19 N          21.0158  -26.3417  -43.5942 N.am      3 UNK        -0.4424 
     20 C          20.5797  -27.4490  -44.1987 C.2       2 UNK         0.4918 
     21 O          19.6348  -28.1189  -43.7838 O.2       2 UNK        -0.4875 
     22 CA         21.3210  -27.8889  -45.4742 C.3       2 UNK         0.0481 
     23 CB         22.7443  -28.3802  -45.1625 C.3       2 UNK        -0.1831 
     24 N          20.5696  -28.9772  -46.0985 N.am      2 UNK        -0.4498 
     25 C          19.6357  -28.8113  -47.0392 C.2       1 UNK         0.5027 
     26 O          19.4981  -27.7818  -47.7083 O.2       1 UNK        -0.4969 
     27 C          21.5631  -25.5091  -41.3539 C.2       3 UNK         0.5005 
     28 O          22.7351  -25.7700  -41.6399 O.2       3 UNK        -0.5279 
     29 N          21.1811  -25.0254  -40.1623 N.am      4 UNK        -0.4463 
     30 CA         22.0350  -24.7220  -39.0029 C.3       4 UNK         0.0283 
     31 CB         22.9638  -23.5284  -39.3114 C.3       4 UNK        -0.1875 
     32 C          22.8075  -25.9464  -38.4672 C.2       4 UNK         0.4949 
     33 O          23.8832  -25.7870  -37.8893 O.2       4 UNK        -0.5039 
     34 N          22.2488  -27.1462  -38.6932 N.am      5 UNK        -0.4663 
     35 CA         22.8067  -28.4721  -38.3973 C.3       5 UNK         0.0242 
     36 CB         22.9603  -28.6816  -36.8761 C.3       5 UNK        -0.1982 
     37 C          24.1007  -28.8083  -39.1684 C.2       5 UNK         0.5017 
     38 O          24.7734  -29.7763  -38.8064 O.2       5 UNK        -0.5012 
     39 N          24.4225  -28.0481  -40.2287 N.am      6 UNK        -0.4439 
     40 CA         25.5694  -28.2893  -41.1073 C.3       6 UNK         0.0297 
     41 CB         25.7143  -27.1287  -42.1036 C.3       6 UNK        -0.2006 
     42 C          25.3982  -29.6253  -41.8416 C.2       6 UNK         0.4892 
     43 O          24.3789  -29.8144  -42.5068 O.2       6 UNK        -0.5089 
     44 N          26.3536  -30.5447  -41.6397 N.am      7 UNK        -0.4243 
     45 CA         26.3302  -31.9432  -42.0956 C.3       7 UNK         0.0196 
     46 CB         26.5033  -32.0124  -43.6283 C.3       7 UNK        -0.2007 
     47 C          25.0873  -32.7191  -41.6042 C.2       7 UNK         0.5020 
     48 O          24.5689  -33.5687  -42.3302 O.2       7 UNK        -0.5147 
     49 N          24.5976  -32.3728  -40.4013 N.am      8 UNK        -0.4734 
     50 CA         23.3484  -32.8441  -39.7847 C.3       8 UNK         0.0238 
     51 CB         23.4569  -34.3347  -39.3979 C.3       8 UNK        -0.1912 
     52 C          22.0990  -32.5334  -40.6379 C.2       8 UNK         0.5038 
     53 O          21.1502  -33.3192  -40.6402 O.2       8 UNK        -0.5046 
     54 N          22.1421  -31.4032  -41.3577 N.am      9 UNK        -0.4200 
     55 CA         21.1647  -30.9463  -42.3577 C.3       9 UNK         0.0839 
     56 C          21.2252  -31.7164  -43.7112 C.2       9 UNK         0.5513 
     57 N          22.1682  -32.6242  -43.9342 N.am      9 UNK        -0.7519 
     58 O          20.4286  -31.4488  -44.6072 O.2       9 UNK        -0.4960 
     59 C59        19.7123  -30.8021  -41.8205 C.3       10 UNK        -0.0876 
     60 S60        19.5801  -29.6592  -40.4038 S.3       10 UNK        -0.2414 
     61 C61        17.7704  -29.5040  -40.2611 C.3       10 UNK         0.0169 
     62 H62        17.2302  -29.6241  -50.9627 H         1 UNK         0.0903 
     63 H63        17.6954  -31.2618  -51.4282 H         1 UNK         0.0903 
     64 H64        16.0846  -30.9527  -50.7736 H         1 UNK         0.0903 
     65 H65        18.1814  -28.9986  -49.0059 H         1 UNK         0.3096 
     66 H66        19.2782  -30.9036  -47.1689 H         1 UNK         0.1121 
     67 H67        18.0219  -30.0411  -45.1531 H         1 UNK         0.0849 
     68 H68        17.0422  -31.0027  -46.2194 H         1 UNK         0.0849 
     69 H69        14.4075  -28.4977  -44.8272 H         1 UNK         0.0865 
     70 H70        15.2022  -30.0262  -44.5677 H         1 UNK         0.0865 
     71 H71        16.5521  -30.2495  -42.5954 H         1 UNK         0.1346 
     72 H72        17.6655  -26.7957  -40.3202 H         1 UNK         0.1412 
     73 H73        15.7416  -26.3303  -44.1284 H         1 UNK         0.1426 
     74 H74        15.9368  -24.5646  -41.4369 H         1 UNK         0.0716 
     75 H75        16.5994  -24.3875  -43.0424 H         1 UNK         0.0716 
     76 H76        20.1439  -23.6681  -42.8413 H         1 UNK         0.0695 
     77 H77        18.9925  -24.7244  -43.6037 H         1 UNK         0.0695 
     78 H78        19.8211  -26.5600  -41.8971 H         1 UNK         0.0983 
     79 H79        21.8544  -25.8825  -43.9211 H         1 UNK         0.3095 
     80 H80        21.3859  -27.0319  -46.1476 H         1 UNK         0.0454 
     81 H81        22.7404  -29.2466  -44.5033 H         1 UNK         0.0851 
     82 H82        23.3373  -27.6055  -44.6760 H         1 UNK         0.0851 
     83 H83        23.2710  -28.6631  -46.0737 H         1 UNK         0.0851 
     84 H84        20.5473  -29.8454  -45.5678 H         1 UNK         0.2976 
     85 H85        20.1947  -24.8263  -40.0419 H         1 UNK         0.3116 
     86 H86        21.3619  -24.4170  -38.2004 H         1 UNK         0.0646 
     87 H87        23.7152  -23.7833  -40.0596 H         1 UNK         0.0847 
     88 H88        23.4954  -23.2028  -38.4165 H         1 UNK         0.0847 
     89 H89        22.4004  -22.6714  -39.6801 H         1 UNK         0.0847 
     90 H90        21.3613  -27.1529  -39.1766 H         1 UNK         0.3040 
     91 H91        22.0678  -29.1932  -38.7492 H         1 UNK         0.1015 
     92 H92        23.7439  -28.0503  -36.4562 H         1 UNK         0.0786 
     93 H93        23.2213  -29.7155  -36.6466 H         1 UNK         0.0786 
     94 H94        22.0320  -28.4608  -36.3494 H         1 UNK         0.0786 
     95 H95        23.8032  -27.2906  -40.4952 H         1 UNK         0.3172 
     96 H96        26.4679  -28.3248  -40.4877 H         1 UNK         0.0595 
     97 H97        26.5926  -27.2645  -42.7358 H         1 UNK         0.0839 
     98 H98        25.8261  -26.1740  -41.5893 H         1 UNK         0.0839 
     99 H99        24.8483  -27.0527  -42.7619 H         1 UNK         0.0839 
    100 H100       27.1355  -30.2933  -41.0498 H         1 UNK         0.2998 
    101 H101       27.1922  -32.4336  -41.6407 H         1 UNK         0.0822 
    102 H102       26.6186  -33.0438  -43.9639 H         1 UNK         0.0787 
    103 H103       25.6417  -31.5954  -44.1513 H         1 UNK         0.0787 
    104 H104       27.3891  -31.4668  -43.9531 H         1 UNK         0.0787 
    105 H105       25.0648  -31.6261  -39.8967 H         1 UNK         0.3055 
    106 H106       23.2274  -32.2727  -38.8627 H         1 UNK         0.1106 
    107 H107       22.5896  -34.6528  -38.8181 H         1 UNK         0.0828 
    108 H108       23.5129  -34.9786  -40.2762 H         1 UNK         0.0828 
    109 H109       24.3393  -34.5230  -38.7866 H         1 UNK         0.0828 
    110 H110       23.0066  -30.8746  -41.3638 H         1 UNK         0.2931 
    111 H111       21.4995  -29.9401  -42.6081 H         1 UNK         0.0412 
    112 H112       22.8641  -32.8491  -43.2326 H         1 UNK         0.3472 
    113 H113       22.1920  -33.0929  -44.8253 H         1 UNK         0.3472 
    114 H114       19.2966  -31.7704  -41.5407 H         1 UNK         0.0970 
    115 H115       19.0682  -30.4203  -42.6127 H         1 UNK         0.0970 
    116 H116       17.3155  -30.4955  -40.2853 H         1 UNK         0.0612 
    117 H117       17.5319  -29.0837  -39.2830 H         1 UNK         0.0612 
@<TRIPOS>BOND
     1    1    2 1    
     2    1   62 1    
     3    1   63 1    
     4    1   64 1    
     5    2    3 2    
     6    2    4 am   BACKBONE|DICT|INTERRES
     7    4    5 1    
     8    4   65 1    
     9    5    6 1    
    10    5   25 1    
    11    5   66 1    
    12    6    7 1    
    13    6   67 1    
    14    6   68 1    
    15    7    8 1    
    16    8    9 1    
    17    8   69 1    
    18    8   70 1    
    19    9   10 ar   
    20    9   14 ar   
    21   10   11 ar   
    22   10   71 1    
    23   11   12 ar   
    24   11   61 1    
    25   12   13 ar   
    26   12   72 1    
    27   13   14 ar   
    28   13   15 1    
    29   14   73 1    
    30   15   16 1    
    31   15   74 1    
    32   15   75 1    
    33   16   17 1    
    34   17   18 1    
    35   17   76 1    
    36   17   77 1    
    37   18   19 1    
    38   18   27 1    
    39   18   78 1    
    40   19   20 am   BACKBONE|DICT|INTERRES
    41   19   79 1    
    42   20   21 2    
    43   20   22 1    
    44   22   23 1    
    45   22   24 1    
    46   22   80 1    
    47   23   81 1    
    48   23   82 1    
    49   23   83 1    
    50   24   25 am   BACKBONE|DICT|INTERRES
    51   24   84 1    
    52   25   26 2    
    53   27   28 2    
    54   27   29 am   BACKBONE|DICT|INTERRES
    55   29   30 1    
    56   29   85 1    
    57   30   31 1    
    58   30   32 1    
    59   30   86 1    
    60   31   87 1    
    61   31   88 1    
    62   31   89 1    
    63   32   33 2    
    64   32   34 am   BACKBONE|DICT|INTERRES
    65   34   35 1    
    66   34   90 1    
    67   35   36 1    
    68   35   37 1    
    69   35   91 1    
    70   36   92 1    
    71   36   93 1    
    72   36   94 1    
    73   37   38 2    
    74   37   39 am   BACKBONE|DICT|INTERRES
    75   39   40 1    
    76   39   95 1    
    77   40   41 1    
    78   40   42 1    
    79   40   96 1    
    80   41   97 1    
    81   41   98 1    
    82   41   99 1    
    83   42   43 2    
    84   42   44 am   BACKBONE|DICT|INTERRES
    85   44   45 1    
    86   44  100 1    
    87   45   46 1    
    88   45   47 1    
    89   45  101 1    
    90   46  102 1    
    91   46  103 1    
    92   46  104 1    
    93   47   48 2    
    94   47   49 am   BACKBONE|DICT|INTERRES
    95   49   50 1    
    96   49  105 1    
    97   50   51 1    
    98   50   52 1    
    99   50  106 1    
   100   51  107 1    
   101   51  108 1    
   102   51  109 1    
   103   52   53 2    
   104   52   54 am   BACKBONE|DICT|INTERRES
   105   54   55 1    
   106   54  110 1    
   107   55   56 1    
   108   55   59 1    
   109   55  111 1    
   110   56   57 am   BACKBONE|DICT|INTERRES
   111   56   58 2    
   112   57  112 1    
   113   57  113 1    
   114   59   60 1    
   115   59  114 1    
   116   59  115 1    
   117   60   61 1    
   118   61  116 1    
   119   61  117 1    
@<TRIPOS>SUBSTRUCTURE
     1 UNK         1 GROUP             0       ****    0 ROOT    
