@<TRIPOS>MOLECULE
3R8
117   119    1
SMALL
USER_CHARGES


@<TRIPOS>ATOM
      1 CA         13.9795  -24.4258  -41.2415 C.3       0 UNK        -0.2013 
      2 C          14.8113  -24.7488  -42.4736 C.2       0 UNK         0.4866 
      3 O          15.5330  -23.8831  -42.9685 O.2       0 UNK        -0.5176 
      4 N          14.7143  -25.9881  -42.9743 N.am      1 UNK        -0.4884 
      5 CA         15.4593  -26.4785  -44.1427 C.3       1 UNK         0.0853 
      6 C6         14.8233  -27.7800  -44.6979 C.3       10 UNK        -0.0849 
      7 S7         15.2165  -28.0715  -46.4566 S.3       10 UNK        -0.2776 
      8 C8         15.9016  -29.7614  -46.4284 C.3       10 UNK         0.0316 
      9 C9         17.3029  -29.8259  -45.8327 C.ar      10 UNK        -0.0863 
     10 C10        17.5189  -30.4299  -44.5905 C.ar      10 UNK        -0.1009 
     11 C11        18.8111  -30.5384  -44.0660 C.ar      10 UNK        -0.0712 
     12 C12        19.8941  -30.0273  -44.7903 C.ar      10 UNK        -0.0894 
     13 C13        19.6910  -29.4186  -46.0333 C.ar      10 UNK        -0.0745 
     14 C14        18.3939  -29.3229  -46.5476 C.ar      10 UNK        -0.0972 
     15 C15        20.8668  -28.9032  -46.8526 C.3       10 UNK         0.0209 
     16 S16        21.1462  -27.1169  -46.6191 S.3       10 UNK        -0.2568 
     17 C17        22.3146  -27.0810  -45.2188 C.3       10 UNK        -0.0983 
     18 CA         21.7602  -26.3337  -43.9812 C.3       3 UNK         0.0876 
     19 N          20.5408  -26.9593  -43.4704 N.am      3 UNK        -0.4424 
     20 C          19.7596  -26.4705  -42.4999 C.2       2 UNK         0.4918 
     21 O          19.9206  -25.3723  -41.9634 O.2       2 UNK        -0.4875 
     22 CA         18.5988  -27.3780  -42.0563 C.3       2 UNK         0.0481 
     23 CB         18.5132  -27.4533  -40.5225 C.3       2 UNK        -0.1831 
     24 N          17.2849  -27.0048  -42.5886 N.am      2 UNK        -0.4498 
     25 C          16.9643  -26.6659  -43.8490 C.2       1 UNK         0.5027 
     26 O          17.7750  -26.5031  -44.7596 O.2       1 UNK        -0.4969 
     27 C          22.8291  -26.2983  -42.8738 C.2       3 UNK         0.5005 
     28 O          23.1204  -27.3480  -42.2971 O.2       3 UNK        -0.5279 
     29 N          23.4198  -25.1235  -42.6135 N.am      4 UNK        -0.4463 
     30 CA         24.3821  -24.8905  -41.5257 C.3       4 UNK         0.0283 
     31 CB         24.7729  -23.4041  -41.5003 C.3       4 UNK        -0.1875 
     32 C          25.6433  -25.7740  -41.5735 C.2       4 UNK         0.4949 
     33 O          26.1936  -26.0971  -40.5211 O.2       4 UNK        -0.5039 
     34 N          26.0634  -26.1644  -42.7841 N.am      5 UNK        -0.4663 
     35 CA         27.1862  -27.0757  -43.0169 C.3       5 UNK         0.0242 
     36 CB         27.6751  -26.9022  -44.4644 C.3       5 UNK        -0.1982 
     37 C          26.8477  -28.5535  -42.7420 C.2       5 UNK         0.5017 
     38 O          27.7689  -29.3374  -42.5101 O.2       5 UNK        -0.5012 
     39 N          25.5575  -28.9136  -42.7944 N.am      6 UNK        -0.4439 
     40 CA         25.0626  -30.2809  -42.6094 C.3       6 UNK         0.0297 
     41 CB         24.0274  -30.5878  -43.7015 C.3       6 UNK        -0.2006 
     42 C          24.4463  -30.4928  -41.2171 C.2       6 UNK         0.4892 
     43 O          24.4621  -31.6229  -40.7263 O.2       6 UNK        -0.5089 
     44 N          23.9134  -29.4187  -40.6141 N.am      7 UNK        -0.4243 
     45 CA         23.2679  -29.3516  -39.3014 C.3       7 UNK         0.0196 
     46 CB         24.3011  -29.5660  -38.1718 C.3       7 UNK        -0.2007 
     47 C          22.0503  -30.2885  -39.2316 C.2       7 UNK         0.5020 
     48 O          21.0123  -29.9688  -39.8097 O.2       7 UNK        -0.5147 
     49 N          22.1998  -31.4304  -38.5487 N.am      8 UNK        -0.4734 
     50 CA         21.1818  -32.4779  -38.4368 C.3       8 UNK         0.0238 
     51 CB         21.5665  -33.4253  -37.2879 C.3       8 UNK        -0.1912 
     52 C          20.9539  -33.2720  -39.7379 C.2       8 UNK         0.5038 
     53 O          19.9264  -33.9426  -39.8346 O.2       8 UNK        -0.5046 
     54 N          21.9092  -33.2004  -40.6799 N.am      9 UNK        -0.4200 
     55 CA         21.9292  -33.8357  -42.0122 C.3       9 UNK         0.0839 
     56 C          21.7330  -35.3827  -42.0638 C.2       9 UNK         0.5513 
     57 N          21.9290  -36.1088  -40.9701 N.am      9 UNK        -0.7519 
     58 O          21.4508  -35.9443  -43.1195 O.2       9 UNK        -0.4960 
     59 C59        21.1362  -33.0442  -43.0965 C.3       10 UNK        -0.0876 
     60 S60        19.3222  -32.9917  -42.8891 S.3       10 UNK        -0.2414 
     61 C61        19.0223  -31.2051  -42.7131 C.3       10 UNK         0.0169 
     62 H62        13.3004  -23.6003  -41.4534 H         1 UNK         0.0903 
     63 H63        13.3843  -25.2782  -40.9145 H         1 UNK         0.0903 
     64 H64        14.6287  -24.1298  -40.4179 H         1 UNK         0.0903 
     65 H65        14.0913  -26.6518  -42.5345 H         1 UNK         0.3096 
     66 H66        15.3828  -25.7075  -44.9135 H         1 UNK         0.1121 
     67 H67        13.7355  -27.7158  -44.6376 H         1 UNK         0.0849 
     68 H68        15.0996  -28.6451  -44.0920 H         1 UNK         0.0849 
     69 H69        15.2176  -30.4214  -45.8924 H         1 UNK         0.0865 
     70 H70        15.9378  -30.1378  -47.4518 H         1 UNK         0.0865 
     71 H71        16.6825  -30.8314  -44.0349 H         1 UNK         0.1346 
     72 H72        20.8951  -30.1154  -44.3945 H         1 UNK         0.1412 
     73 H73        18.2317  -28.8581  -47.5107 H         1 UNK         0.1426 
     74 H74        21.7741  -29.4649  -46.6257 H         1 UNK         0.0716 
     75 H75        20.6697  -29.0811  -47.9108 H         1 UNK         0.0716 
     76 H76        23.2262  -26.5970  -45.5747 H         1 UNK         0.0695 
     77 H77        22.6014  -28.1000  -44.9558 H         1 UNK         0.0695 
     78 H78        21.5117  -25.3103  -44.2702 H         1 UNK         0.0983 
     79 H79        20.2791  -27.8309  -43.9067 H         1 UNK         0.3095 
     80 H80        18.8086  -28.3842  -42.4136 H         1 UNK         0.0454 
     81 H81        18.2050  -26.5018  -40.0875 H         1 UNK         0.0851 
     82 H82        17.8073  -28.2183  -40.1991 H         1 UNK         0.0851 
     83 H83        19.4818  -27.7091  -40.0907 H         1 UNK         0.0851 
     84 H84        16.5202  -27.0573  -41.9325 H         1 UNK         0.2976 
     85 H85        23.1346  -24.3096  -43.1401 H         1 UNK         0.3116 
     86 H86        23.8682  -25.1209  -40.5900 H         1 UNK         0.0646 
     87 H87        23.9027  -22.7655  -41.3481 H         1 UNK         0.0847 
     88 H88        25.4683  -23.1971  -40.6854 H         1 UNK         0.0847 
     89 H89        25.2587  -23.0976  -42.4275 H         1 UNK         0.0847 
     90 H90        25.5609  -25.8350  -43.5956 H         1 UNK         0.3040 
     91 H91        28.0029  -26.8000  -42.3455 H         1 UNK         0.1015 
     92 H92        26.8997  -27.1594  -45.1873 H         1 UNK         0.0786 
     93 H93        28.5338  -27.5443  -44.6661 H         1 UNK         0.0786 
     94 H94        27.9889  -25.8761  -44.6574 H         1 UNK         0.0786 
     95 H95        24.8560  -28.1909  -42.9105 H         1 UNK         0.3172 
     96 H96        25.8830  -30.9931  -42.7196 H         1 UNK         0.0595 
     97 H97        23.1150  -30.0078  -43.5631 H         1 UNK         0.0839 
     98 H98        23.7584  -31.6437  -43.6876 H         1 UNK         0.0839 
     99 H99        24.4184  -30.3709  -44.6957 H         1 UNK         0.0839 
    100 H100       23.8214  -28.5709  -41.1704 H         1 UNK         0.2998 
    101 H101       22.8778  -28.3372  -39.2033 H         1 UNK         0.0822 
    102 H102       23.8290  -29.5053  -37.1902 H         1 UNK         0.0787 
    103 H103       24.8045  -30.5308  -38.2404 H         1 UNK         0.0787 
    104 H104       25.0715  -28.7952  -38.2031 H         1 UNK         0.0787 
    105 H105       23.1002  -31.6194  -38.1314 H         1 UNK         0.3055 
    106 H106       20.2312  -32.0014  -38.1855 H         1 UNK         0.1106 
    107 H107       21.6476  -32.8900  -36.3417 H         1 UNK         0.0828 
    108 H108       20.8129  -34.2026  -37.1529 H         1 UNK         0.0828 
    109 H109       22.5182  -33.9238  -37.4758 H         1 UNK         0.0828 
    110 H110       22.7290  -32.6395  -40.4711 H         1 UNK         0.2931 
    111 H111       22.9744  -33.7305  -42.3054 H         1 UNK         0.0412 
    112 H112       21.8167  -37.1096  -41.0138 H         1 UNK         0.3472 
    113 H113       22.1613  -35.6630  -40.0974 H         1 UNK         0.3472 
    114 H114       21.3463  -33.4500  -44.0875 H         1 UNK         0.0970 
    115 H115       21.5144  -32.0243  -43.1249 H         1 UNK         0.0970 
    116 H116       18.1375  -31.0632  -42.0908 H         1 UNK         0.0612 
    117 H117       19.8436  -30.7329  -42.1723 H         1 UNK         0.0612 
@<TRIPOS>BOND
     1    1    2 1    
     2    1   62 1    
     3    1   63 1    
     4    1   64 1    
     5    2    3 2    
     6    2    4 am   BACKBONE|DICT|INTERRES
     7    4    5 1    
     8    4   65 1    
     9    5    6 1    
    10    5   25 1    
    11    5   66 1    
    12    6    7 1    
    13    6   67 1    
    14    6   68 1    
    15    7    8 1    
    16    8    9 1    
    17    8   69 1    
    18    8   70 1    
    19    9   10 ar   
    20    9   14 ar   
    21   10   11 ar   
    22   10   71 1    
    23   11   12 ar   
    24   11   61 1    
    25   12   13 ar   
    26   12   72 1    
    27   13   14 ar   
    28   13   15 1    
    29   14   73 1    
    30   15   16 1    
    31   15   74 1    
    32   15   75 1    
    33   16   17 1    
    34   17   18 1    
    35   17   76 1    
    36   17   77 1    
    37   18   19 1    
    38   18   27 1    
    39   18   78 1    
    40   19   20 am   BACKBONE|DICT|INTERRES
    41   19   79 1    
    42   20   21 2    
    43   20   22 1    
    44   22   23 1    
    45   22   24 1    
    46   22   80 1    
    47   23   81 1    
    48   23   82 1    
    49   23   83 1    
    50   24   25 am   BACKBONE|DICT|INTERRES
    51   24   84 1    
    52   25   26 2    
    53   27   28 2    
    54   27   29 am   BACKBONE|DICT|INTERRES
    55   29   30 1    
    56   29   85 1    
    57   30   31 1    
    58   30   32 1    
    59   30   86 1    
    60   31   87 1    
    61   31   88 1    
    62   31   89 1    
    63   32   33 2    
    64   32   34 am   BACKBONE|DICT|INTERRES
    65   34   35 1    
    66   34   90 1    
    67   35   36 1    
    68   35   37 1    
    69   35   91 1    
    70   36   92 1    
    71   36   93 1    
    72   36   94 1    
    73   37   38 2    
    74   37   39 am   BACKBONE|DICT|INTERRES
    75   39   40 1    
    76   39   95 1    
    77   40   41 1    
    78   40   42 1    
    79   40   96 1    
    80   41   97 1    
    81   41   98 1    
    82   41   99 1    
    83   42   43 2    
    84   42   44 am   BACKBONE|DICT|INTERRES
    85   44   45 1    
    86   44  100 1    
    87   45   46 1    
    88   45   47 1    
    89   45  101 1    
    90   46  102 1    
    91   46  103 1    
    92   46  104 1    
    93   47   48 2    
    94   47   49 am   BACKBONE|DICT|INTERRES
    95   49   50 1    
    96   49  105 1    
    97   50   51 1    
    98   50   52 1    
    99   50  106 1    
   100   51  107 1    
   101   51  108 1    
   102   51  109 1    
   103   52   53 2    
   104   52   54 am   BACKBONE|DICT|INTERRES
   105   54   55 1    
   106   54  110 1    
   107   55   56 1    
   108   55   59 1    
   109   55  111 1    
   110   56   57 am   BACKBONE|DICT|INTERRES
   111   56   58 2    
   112   57  112 1    
   113   57  113 1    
   114   59   60 1    
   115   59  114 1    
   116   59  115 1    
   117   60   61 1    
   118   61  116 1    
   119   61  117 1    
@<TRIPOS>SUBSTRUCTURE
     1 UNK         1 GROUP             0       ****    0 ROOT    
