@<TRIPOS>MOLECULE
3R8
117   119    1
SMALL
USER_CHARGES


@<TRIPOS>ATOM
      1 CA         18.8849  -28.3838  -39.8360 C.3       0 UNK        -0.2013 
      2 C          18.9385  -27.0914  -40.6349 C.2       0 UNK         0.4866 
      3 O          19.0519  -26.0147  -40.0484 O.2       0 UNK        -0.5176 
      4 N          18.8459  -27.1927  -41.9649 N.am      1 UNK        -0.4884 
      5 CA         18.8604  -26.0599  -42.8984 C.3       1 UNK         0.0853 
      6 C6         17.7553  -26.1882  -43.9842 C.3       10 UNK        -0.0849 
      7 S7         16.0978  -26.4919  -43.2693 S.3       10 UNK        -0.2776 
      8 C8         15.4079  -27.8080  -44.3330 C.3       10 UNK         0.0316 
      9 C9         16.3527  -28.9878  -44.5357 C.ar      10 UNK        -0.0863 
     10 C10        16.8114  -29.7341  -43.4462 C.ar      10 UNK        -0.1009 
     11 C11        17.7050  -30.7947  -43.6318 C.ar      10 UNK        -0.0712 
     12 C12        18.1338  -31.1073  -44.9293 C.ar      10 UNK        -0.0894 
     13 C13        17.6620  -30.3848  -46.0298 C.ar      10 UNK        -0.0745 
     14 C14        16.7732  -29.3264  -45.8246 C.ar      10 UNK        -0.0972 
     15 C15        18.0900  -30.7530  -47.4462 C.3       10 UNK         0.0209 
     16 S16        19.8431  -30.3902  -47.7891 S.3       10 UNK        -0.2568 
     17 C17        19.9374  -28.5774  -47.5373 C.3       10 UNK        -0.0983 
     18 CA         21.3282  -27.9657  -47.1787 C.3       3 UNK         0.0876 
     19 N          21.1456  -26.6753  -46.4988 N.am      3 UNK        -0.4424 
     20 C          22.1088  -25.8421  -46.0785 C.2       2 UNK         0.4918 
     21 O          23.3054  -25.9996  -46.3160 O.2       2 UNK        -0.4875 
     22 CA         21.6721  -24.6741  -45.1702 C.3       2 UNK         0.0481 
     23 CB         21.5061  -23.3891  -45.9956 C.3       2 UNK        -0.1831 
     24 N          20.4423  -24.9257  -44.4025 N.am      2 UNK        -0.4498 
     25 C          20.2584  -25.9376  -43.5394 C.2       1 UNK         0.5027 
     26 O          21.1326  -26.7750  -43.2919 O.2       1 UNK        -0.4969 
     27 C          22.2509  -28.9194  -46.3776 C.2       3 UNK         0.5005 
     28 O          23.1095  -29.5772  -46.9685 O.2       3 UNK        -0.5279 
     29 N          22.0814  -28.9413  -45.0490 N.am      4 UNK        -0.4463 
     30 CA         22.8744  -29.7293  -44.1058 C.3       4 UNK         0.0283 
     31 CB         21.9195  -30.3417  -43.0657 C.3       4 UNK        -0.1875 
     32 C          23.9660  -28.8828  -43.4258 C.2       4 UNK         0.4949 
     33 O          24.5121  -29.3173  -42.4136 O.2       4 UNK        -0.5039 
     34 N          24.2413  -27.6756  -43.9474 N.am      5 UNK        -0.4663 
     35 CA         25.1567  -26.6628  -43.4012 C.3       5 UNK         0.0242 
     36 CB         26.6218  -27.1296  -43.5340 C.3       5 UNK        -0.1982 
     37 C          24.7943  -26.2312  -41.9639 C.2       5 UNK         0.5017 
     38 O          25.6864  -25.9253  -41.1715 O.2       5 UNK        -0.5012 
     39 N          23.4881  -26.2423  -41.6558 N.am      6 UNK        -0.4439 
     40 CA         22.8668  -25.9849  -40.3527 C.3       6 UNK         0.0297 
     41 CB         23.1603  -24.5520  -39.8599 C.3       6 UNK        -0.2006 
     42 C          23.1550  -27.0550  -39.2772 C.2       6 UNK         0.4892 
     43 O          22.8386  -26.8207  -38.1091 O.2       6 UNK        -0.5089 
     44 N          23.7073  -28.2155  -39.6648 N.am      7 UNK        -0.4243 
     45 CA         23.8162  -29.3963  -38.8042 C.3       7 UNK         0.0196 
     46 CB         24.9390  -30.3092  -39.3234 C.3       7 UNK        -0.2007 
     47 C          22.4783  -30.1508  -38.7761 C.2       7 UNK         0.5020 
     48 O          21.6517  -29.9724  -39.6732 O.2       7 UNK        -0.5147 
     49 N          22.2946  -31.0135  -37.7689 N.am      8 UNK        -0.4734 
     50 CA         21.0668  -31.7772  -37.4982 C.3       8 UNK         0.0238 
     51 CB         21.1010  -32.2613  -36.0357 C.3       8 UNK        -0.1912 
     52 C          20.7843  -32.9267  -38.4945 C.2       8 UNK         0.5038 
     53 O          20.4442  -34.0345  -38.0757 O.2       8 UNK        -0.5046 
     54 N          20.9117  -32.6366  -39.7940 N.am      9 UNK        -0.4200 
     55 CA         20.6179  -33.5136  -40.9378 C.3       9 UNK         0.0839 
     56 C          21.5374  -34.7642  -41.0843 C.2       9 UNK         0.5513 
     57 N          22.6841  -34.8193  -40.4175 N.am      9 UNK        -0.7519 
     58 O          21.2285  -35.6839  -41.8376 O.2       9 UNK        -0.4960 
     59 C59        19.0922  -33.8273  -41.0533 C.3       10 UNK        -0.0876 
     60 S60        18.4066  -33.3497  -42.6735 S.3       10 UNK        -0.2414 
     61 C61        18.2237  -31.5530  -42.4128 C.3       10 UNK         0.0169 
     62 H62        19.1129  -29.2510  -40.4548 H         1 UNK         0.0903 
     63 H63        19.6102  -28.3521  -39.0233 H         1 UNK         0.0903 
     64 H64        17.8941  -28.5187  -39.4038 H         1 UNK         0.0903 
     65 H65        18.7890  -28.1034  -42.3962 H         1 UNK         0.3096 
     66 H66        18.6826  -25.1317  -42.3507 H         1 UNK         0.1121 
     67 H67        17.6869  -25.2732  -44.5747 H         1 UNK         0.0849 
     68 H68        18.0096  -26.9778  -44.6913 H         1 UNK         0.0849 
     69 H69        14.4799  -28.1700  -43.8884 H         1 UNK         0.0865 
     70 H70        15.1314  -27.3654  -45.2913 H         1 UNK         0.0865 
     71 H71        16.4827  -29.4716  -42.4495 H         1 UNK         0.1346 
     72 H72        18.8342  -31.9153  -45.0891 H         1 UNK         0.1412 
     73 H73        16.4131  -28.7601  -46.6730 H         1 UNK         0.1426 
     74 H74        17.4744  -30.2363  -48.1843 H         1 UNK         0.0716 
     75 H75        17.9175  -31.8188  -47.6019 H         1 UNK         0.0716 
     76 H76        19.5439  -28.0902  -48.4306 H         1 UNK         0.0695 
     77 H77        19.2341  -28.3322  -46.7419 H         1 UNK         0.0695 
     78 H78        21.8504  -27.7598  -48.1156 H         1 UNK         0.0983 
     79 H79        20.1945  -26.4306  -46.2712 H         1 UNK         0.3095 
     80 H80        22.4750  -24.5116  -44.4481 H         1 UNK         0.0454 
     81 H81        22.4152  -23.1644  -46.5556 H         1 UNK         0.0851 
     82 H82        20.6923  -23.4727  -46.7170 H         1 UNK         0.0851 
     83 H83        21.3033  -22.5292  -45.3570 H         1 UNK         0.0851 
     84 H84        19.6881  -24.2693  -44.5484 H         1 UNK         0.2976 
     85 H85        21.4172  -28.3006  -44.6286 H         1 UNK         0.3116 
     86 H86        23.3776  -30.5468  -44.6256 H         1 UNK         0.0646 
     87 H87        22.4575  -30.9785  -42.3624 H         1 UNK         0.0847 
     88 H88        21.1611  -30.9597  -43.5460 H         1 UNK         0.0847 
     89 H89        21.4110  -29.5726  -42.4823 H         1 UNK         0.0847 
     90 H90        23.7536  -27.4025  -44.7928 H         1 UNK         0.3040 
     91 H91        25.0361  -25.7728  -44.0210 H         1 UNK         0.1015 
     92 H92        26.8348  -27.9830  -42.8894 H         1 UNK         0.0786 
     93 H93        27.3139  -26.3331  -43.2579 H         1 UNK         0.0786 
     94 H94        26.8544  -27.4171  -44.5593 H         1 UNK         0.0786 
     95 H95        22.8344  -26.5317  -42.3796 H         1 UNK         0.3172 
     96 H96        21.7942  -26.0449  -40.5364 H         1 UNK         0.0595 
     97 H97        22.5511  -24.3071  -38.9890 H         1 UNK         0.0839 
     98 H98        24.2033  -24.4271  -39.5685 H         1 UNK         0.0839 
     99 H99        22.9332  -23.8132  -40.6284 H         1 UNK         0.0839 
    100 H100       23.9117  -28.3627  -40.6473 H         1 UNK         0.2998 
    101 H101       24.0650  -29.0779  -37.7896 H         1 UNK         0.0822 
    102 H102       25.1454  -31.1149  -38.6181 H         1 UNK         0.0787 
    103 H103       24.6767  -30.7742  -40.2742 H         1 UNK         0.0787 
    104 H104       25.8683  -29.7571  -39.4656 H         1 UNK         0.0787 
    105 H105       23.0450  -31.1353  -37.1035 H         1 UNK         0.3055 
    106 H106       20.2239  -31.0885  -37.5927 H         1 UNK         0.1106 
    107 H107       21.2275  -31.4289  -35.3432 H         1 UNK         0.0828 
    108 H108       20.1702  -32.7615  -35.7643 H         1 UNK         0.0828 
    109 H109       21.9133  -32.9688  -35.8646 H         1 UNK         0.0828 
    110 H110       21.2009  -31.6867  -40.0182 H         1 UNK         0.2931 
    111 H111       20.9047  -32.9014  -41.7925 H         1 UNK         0.0412 
    112 H112       23.2803  -35.6250  -40.5243 H         1 UNK         0.3472 
    113 H113       22.9501  -34.0708  -39.7984 H         1 UNK         0.3472 
    114 H114       18.8827  -34.8851  -40.8843 H         1 UNK         0.0970 
    115 H115       18.5181  -33.3078  -40.2846 H         1 UNK         0.0970 
    116 H116       19.1873  -31.1313  -42.1278 H         1 UNK         0.0612 
    117 H117       17.5553  -31.3994  -41.5640 H         1 UNK         0.0612 
@<TRIPOS>BOND
     1    1    2 1    
     2    1   62 1    
     3    1   63 1    
     4    1   64 1    
     5    2    3 2    
     6    2    4 am   BACKBONE|DICT|INTERRES
     7    4    5 1    
     8    4   65 1    
     9    5    6 1    
    10    5   25 1    
    11    5   66 1    
    12    6    7 1    
    13    6   67 1    
    14    6   68 1    
    15    7    8 1    
    16    8    9 1    
    17    8   69 1    
    18    8   70 1    
    19    9   10 ar   
    20    9   14 ar   
    21   10   11 ar   
    22   10   71 1    
    23   11   12 ar   
    24   11   61 1    
    25   12   13 ar   
    26   12   72 1    
    27   13   14 ar   
    28   13   15 1    
    29   14   73 1    
    30   15   16 1    
    31   15   74 1    
    32   15   75 1    
    33   16   17 1    
    34   17   18 1    
    35   17   76 1    
    36   17   77 1    
    37   18   19 1    
    38   18   27 1    
    39   18   78 1    
    40   19   20 am   BACKBONE|DICT|INTERRES
    41   19   79 1    
    42   20   21 2    
    43   20   22 1    
    44   22   23 1    
    45   22   24 1    
    46   22   80 1    
    47   23   81 1    
    48   23   82 1    
    49   23   83 1    
    50   24   25 am   BACKBONE|DICT|INTERRES
    51   24   84 1    
    52   25   26 2    
    53   27   28 2    
    54   27   29 am   BACKBONE|DICT|INTERRES
    55   29   30 1    
    56   29   85 1    
    57   30   31 1    
    58   30   32 1    
    59   30   86 1    
    60   31   87 1    
    61   31   88 1    
    62   31   89 1    
    63   32   33 2    
    64   32   34 am   BACKBONE|DICT|INTERRES
    65   34   35 1    
    66   34   90 1    
    67   35   36 1    
    68   35   37 1    
    69   35   91 1    
    70   36   92 1    
    71   36   93 1    
    72   36   94 1    
    73   37   38 2    
    74   37   39 am   BACKBONE|DICT|INTERRES
    75   39   40 1    
    76   39   95 1    
    77   40   41 1    
    78   40   42 1    
    79   40   96 1    
    80   41   97 1    
    81   41   98 1    
    82   41   99 1    
    83   42   43 2    
    84   42   44 am   BACKBONE|DICT|INTERRES
    85   44   45 1    
    86   44  100 1    
    87   45   46 1    
    88   45   47 1    
    89   45  101 1    
    90   46  102 1    
    91   46  103 1    
    92   46  104 1    
    93   47   48 2    
    94   47   49 am   BACKBONE|DICT|INTERRES
    95   49   50 1    
    96   49  105 1    
    97   50   51 1    
    98   50   52 1    
    99   50  106 1    
   100   51  107 1    
   101   51  108 1    
   102   51  109 1    
   103   52   53 2    
   104   52   54 am   BACKBONE|DICT|INTERRES
   105   54   55 1    
   106   54  110 1    
   107   55   56 1    
   108   55   59 1    
   109   55  111 1    
   110   56   57 am   BACKBONE|DICT|INTERRES
   111   56   58 2    
   112   57  112 1    
   113   57  113 1    
   114   59   60 1    
   115   59  114 1    
   116   59  115 1    
   117   60   61 1    
   118   61  116 1    
   119   61  117 1    
@<TRIPOS>SUBSTRUCTURE
     1 UNK         1 GROUP             0       ****    0 ROOT    
