@<TRIPOS>MOLECULE
3R8
117   119    1
SMALL
USER_CHARGES


@<TRIPOS>ATOM
      1 CA         16.6126  -27.7141  -37.7757 C.3       0 UNK        -0.2013 
      2 C          16.6034  -27.1422  -39.1852 C.2       0 UNK         0.4866 
      3 O          15.8548  -26.2046  -39.4630 O.2       0 UNK        -0.5176 
      4 N          17.4307  -27.6950  -40.0740 N.am      1 UNK        -0.4884 
      5 CA         17.5868  -27.2834  -41.4682 C.3       1 UNK         0.0853 
      6 C6         16.4530  -27.8025  -42.3973 C.3       10 UNK        -0.0849 
      7 S7         16.2119  -29.6161  -42.3595 S.3       10 UNK        -0.2776 
      8 C8         16.1618  -30.0585  -44.1300 C.3       10 UNK         0.0316 
      9 C9         17.5200  -30.1205  -44.8315 C.ar      10 UNK        -0.0863 
     10 C10        18.6339  -30.7209  -44.2297 C.ar      10 UNK        -0.1009 
     11 C11        19.8417  -30.8620  -44.9286 C.ar      10 UNK        -0.0712 
     12 C12        19.9176  -30.4098  -46.2510 C.ar      10 UNK        -0.0894 
     13 C13        18.8146  -29.8141  -46.8679 C.ar      10 UNK        -0.0745 
     14 C14        17.6259  -29.6623  -46.1486 C.ar      10 UNK        -0.0972 
     15 C15        18.8727  -29.4043  -48.3340 C.3       10 UNK         0.0209 
     16 S16        19.1247  -27.6148  -48.5529 S.3       10 UNK        -0.2568 
     17 C17        20.9418  -27.4530  -48.4940 C.3       10 UNK        -0.0983 
     18 CA         21.4006  -26.5890  -47.2967 C.3       3 UNK         0.0876 
     19 N          21.1065  -27.2330  -46.0150 N.am      3 UNK        -0.4424 
     20 C          20.9190  -26.5719  -44.8704 C.2       2 UNK         0.4918 
     21 O          20.8893  -25.3438  -44.7715 O.2       2 UNK        -0.4875 
     22 CA         20.7626  -27.4287  -43.6169 C.3       2 UNK         0.0481 
     23 CB         21.9808  -27.2544  -42.6969 C.3       2 UNK        -0.1831 
     24 N          19.5200  -27.0649  -42.9486 N.am      2 UNK        -0.4498 
     25 C          18.9737  -27.7428  -41.9348 C.2       1 UNK         0.5027 
     26 O          19.5100  -28.6988  -41.3736 O.2       1 UNK        -0.4969 
     27 C          22.8976  -26.2303  -47.4081 C.2       3 UNK         0.5005 
     28 O          23.2254  -25.1697  -47.9427 O.2       3 UNK        -0.5279 
     29 N          23.7732  -27.1052  -46.8932 N.am      4 UNK        -0.4463 
     30 CA         25.2303  -26.9652  -46.8830 C.3       4 UNK         0.0283 
     31 CB         25.8083  -27.1030  -48.3092 C.3       4 UNK        -0.1875 
     32 C          25.8004  -28.0088  -45.9118 C.2       4 UNK         0.4949 
     33 O          26.4906  -28.9382  -46.3332 O.2       4 UNK        -0.5039 
     34 N          25.4455  -27.8726  -44.6305 N.am      5 UNK        -0.4663 
     35 CA         25.7758  -28.8016  -43.5493 C.3       5 UNK         0.0242 
     36 CB         24.8782  -30.0554  -43.6530 C.3       5 UNK        -0.1982 
     37 C          25.5877  -28.0912  -42.1996 C.2       5 UNK         0.5017 
     38 O          25.2378  -26.9076  -42.1734 O.2       5 UNK        -0.5012 
     39 N          25.7837  -28.8337  -41.1031 N.am      6 UNK        -0.4439 
     40 CA         25.3175  -28.4556  -39.7673 C.3       6 UNK         0.0297 
     41 CB         26.0897  -29.2653  -38.7129 C.3       6 UNK        -0.2006 
     42 C          23.8079  -28.7285  -39.6545 C.2       6 UNK         0.4892 
     43 O          23.3207  -29.6761  -40.2724 O.2       6 UNK        -0.5089 
     44 N          23.1053  -27.9249  -38.8439 N.am      7 UNK        -0.4243 
     45 CA         21.6410  -27.9292  -38.6861 C.3       7 UNK         0.0196 
     46 CB         21.2312  -26.7352  -37.8077 C.3       7 UNK        -0.2007 
     47 C          21.0145  -29.2333  -38.1472 C.2       7 UNK         0.5020 
     48 O          19.7892  -29.3620  -38.1596 O.2       7 UNK        -0.5147 
     49 N          21.8477  -30.1728  -37.6802 N.am      8 UNK        -0.4734 
     50 CA         21.4647  -31.4794  -37.1390 C.3       8 UNK         0.0238 
     51 CB         22.7245  -32.1903  -36.6178 C.3       8 UNK        -0.1912 
     52 C          20.6999  -32.3910  -38.1181 C.2       8 UNK         0.5038 
     53 O          19.9833  -33.2785  -37.6522 O.2       8 UNK        -0.5046 
     54 N          20.8453  -32.1675  -39.4329 N.am      9 UNK        -0.4200 
     55 CA         20.0407  -32.8341  -40.4704 C.3       9 UNK         0.0839 
     56 C          18.5725  -32.3274  -40.5843 C.2       9 UNK         0.5513 
     57 N          18.1685  -31.2710  -39.8891 N.am      9 UNK        -0.7519 
     58 O          17.7754  -32.9308  -41.2980 O.2       9 UNK        -0.4960 
     59 C59        20.7666  -32.9010  -41.8416 C.3       10 UNK        -0.0876 
     60 S60        21.2786  -31.2843  -42.5193 S.3       10 UNK        -0.2414 
     61 C61        21.0699  -31.5378  -44.3155 C.3       10 UNK         0.0169 
     62 H62        17.0131  -26.9815  -37.0756 H         1 UNK         0.0903 
     63 H63        15.5991  -27.9666  -37.4653 H         1 UNK         0.0903 
     64 H64        17.2198  -28.6167  -37.7081 H         1 UNK         0.0903 
     65 H65        18.0725  -28.4346  -39.8056 H         1 UNK         0.3096 
     66 H66        17.5857  -26.1912  -41.4949 H         1 UNK         0.1121 
     67 H67        16.6311  -27.4801  -43.4248 H         1 UNK         0.0849 
     68 H68        15.5090  -27.3388  -42.1080 H         1 UNK         0.0849 
     69 H69        15.7006  -31.0431  -44.2161 H         1 UNK         0.0865 
     70 H70        15.4910  -29.3670  -44.6424 H         1 UNK         0.0865 
     71 H71        18.5516  -31.0922  -43.2185 H         1 UNK         0.1346 
     72 H72        20.8307  -30.5497  -46.8138 H         1 UNK         0.1412 
     73 H73        16.7665  -29.2220  -46.6363 H         1 UNK         0.1426 
     74 H74        17.9324  -29.6776  -48.8152 H         1 UNK         0.0716 
     75 H75        19.6467  -29.9600  -48.8655 H         1 UNK         0.0716 
     76 H76        21.2523  -26.9954  -49.4355 H         1 UNK         0.0695 
     77 H77        21.4113  -28.4378  -48.4670 H         1 UNK         0.0695 
     78 H78        20.8520  -25.6448  -47.3434 H         1 UNK         0.0983 
     79 H79        21.0293  -28.2392  -46.0181 H         1 UNK         0.3095 
     80 H80        20.7004  -28.4765  -43.9103 H         1 UNK         0.0454 
     81 H81        22.0060  -26.2704  -42.2283 H         1 UNK         0.0851 
     82 H82        22.9020  -27.3741  -43.2632 H         1 UNK         0.0851 
     83 H83        21.9940  -28.0089  -41.9130 H         1 UNK         0.0851 
     84 H84        19.0323  -26.2767  -43.3540 H         1 UNK         0.2976 
     85 H85        23.4205  -27.9442  -46.4541 H         1 UNK         0.3116 
     86 H86        25.4889  -25.9778  -46.4950 H         1 UNK         0.0646 
     87 H87        25.5288  -28.0527  -48.7667 H         1 UNK         0.0847 
     88 H88        26.8979  -27.0550  -48.2947 H         1 UNK         0.0847 
     89 H89        25.4642  -26.3028  -48.9640 H         1 UNK         0.0847 
     90 H90        24.9475  -27.0442  -44.3267 H         1 UNK         0.3040 
     91 H91        26.8261  -29.0896  -43.6338 H         1 UNK         0.1015 
     92 H92        24.9790  -30.5466  -44.6206 H         1 UNK         0.0786 
     93 H93        23.8259  -29.8036  -43.5154 H         1 UNK         0.0786 
     94 H94        25.1328  -30.7986  -42.8970 H         1 UNK         0.0786 
     95 H95        26.0273  -29.8060  -41.2247 H         1 UNK         0.3172 
     96 H96        25.5063  -27.3921  -39.6047 H         1 UNK         0.0595 
     97 H97        25.7872  -28.9833  -37.7035 H         1 UNK         0.0839 
     98 H98        27.1634  -29.0912  -38.7874 H         1 UNK         0.0839 
     99 H99        25.9158  -30.3374  -38.8170 H         1 UNK         0.0839 
    100 H100       23.6003  -27.1965  -38.3489 H         1 UNK         0.2998 
    101 H101       21.2158  -27.7717  -39.6769 H         1 UNK         0.0822 
    102 H102       20.1460  -26.6747  -37.7098 H         1 UNK         0.0787 
    103 H103       21.6454  -26.8149  -36.8019 H         1 UNK         0.0787 
    104 H104       21.5657  -25.7910  -38.2379 H         1 UNK         0.0787 
    105 H105       22.8369  -29.9829  -37.7426 H         1 UNK         0.3055 
    106 H106       20.7973  -31.2965  -36.2939 H         1 UNK         0.1106 
    107 H107       22.4749  -33.1579  -36.1797 H         1 UNK         0.0828 
    108 H108       23.4448  -32.3708  -37.4169 H         1 UNK         0.0828 
    109 H109       23.2202  -31.6058  -35.8425 H         1 UNK         0.0828 
    110 H110       21.4325  -31.4044  -39.7449 H         1 UNK         0.2931 
    111 H111       19.9381  -33.8745  -40.1552 H         1 UNK         0.0412 
    112 H112       18.8235  -30.7395  -39.3274 H         1 UNK         0.3472 
    113 H113       17.2199  -30.9533  -40.0033 H         1 UNK         0.3472 
    114 H114       20.1408  -33.4223  -42.5681 H         1 UNK         0.0970 
    115 H115       21.6652  -33.5114  -41.7426 H         1 UNK         0.0970 
    116 H116       21.0436  -32.6028  -44.5473 H         1 UNK         0.0612 
    117 H117       21.9708  -31.1502  -44.7934 H         1 UNK         0.0612 
@<TRIPOS>BOND
     1    1    2 1    
     2    1   62 1    
     3    1   63 1    
     4    1   64 1    
     5    2    3 2    
     6    2    4 am   BACKBONE|DICT|INTERRES
     7    4    5 1    
     8    4   65 1    
     9    5    6 1    
    10    5   25 1    
    11    5   66 1    
    12    6    7 1    
    13    6   67 1    
    14    6   68 1    
    15    7    8 1    
    16    8    9 1    
    17    8   69 1    
    18    8   70 1    
    19    9   10 ar   
    20    9   14 ar   
    21   10   11 ar   
    22   10   71 1    
    23   11   12 ar   
    24   11   61 1    
    25   12   13 ar   
    26   12   72 1    
    27   13   14 ar   
    28   13   15 1    
    29   14   73 1    
    30   15   16 1    
    31   15   74 1    
    32   15   75 1    
    33   16   17 1    
    34   17   18 1    
    35   17   76 1    
    36   17   77 1    
    37   18   19 1    
    38   18   27 1    
    39   18   78 1    
    40   19   20 am   BACKBONE|DICT|INTERRES
    41   19   79 1    
    42   20   21 2    
    43   20   22 1    
    44   22   23 1    
    45   22   24 1    
    46   22   80 1    
    47   23   81 1    
    48   23   82 1    
    49   23   83 1    
    50   24   25 am   BACKBONE|DICT|INTERRES
    51   24   84 1    
    52   25   26 2    
    53   27   28 2    
    54   27   29 am   BACKBONE|DICT|INTERRES
    55   29   30 1    
    56   29   85 1    
    57   30   31 1    
    58   30   32 1    
    59   30   86 1    
    60   31   87 1    
    61   31   88 1    
    62   31   89 1    
    63   32   33 2    
    64   32   34 am   BACKBONE|DICT|INTERRES
    65   34   35 1    
    66   34   90 1    
    67   35   36 1    
    68   35   37 1    
    69   35   91 1    
    70   36   92 1    
    71   36   93 1    
    72   36   94 1    
    73   37   38 2    
    74   37   39 am   BACKBONE|DICT|INTERRES
    75   39   40 1    
    76   39   95 1    
    77   40   41 1    
    78   40   42 1    
    79   40   96 1    
    80   41   97 1    
    81   41   98 1    
    82   41   99 1    
    83   42   43 2    
    84   42   44 am   BACKBONE|DICT|INTERRES
    85   44   45 1    
    86   44  100 1    
    87   45   46 1    
    88   45   47 1    
    89   45  101 1    
    90   46  102 1    
    91   46  103 1    
    92   46  104 1    
    93   47   48 2    
    94   47   49 am   BACKBONE|DICT|INTERRES
    95   49   50 1    
    96   49  105 1    
    97   50   51 1    
    98   50   52 1    
    99   50  106 1    
   100   51  107 1    
   101   51  108 1    
   102   51  109 1    
   103   52   53 2    
   104   52   54 am   BACKBONE|DICT|INTERRES
   105   54   55 1    
   106   54  110 1    
   107   55   56 1    
   108   55   59 1    
   109   55  111 1    
   110   56   57 am   BACKBONE|DICT|INTERRES
   111   56   58 2    
   112   57  112 1    
   113   57  113 1    
   114   59   60 1    
   115   59  114 1    
   116   59  115 1    
   117   60   61 1    
   118   61  116 1    
   119   61  117 1    
@<TRIPOS>SUBSTRUCTURE
     1 UNK         1 GROUP             0       ****    0 ROOT    
