@<TRIPOS>MOLECULE
3R8
117   119    1
SMALL
USER_CHARGES


@<TRIPOS>ATOM
      1 CA         19.2295  -24.1178  -39.5668 C.3       0 UNK        -0.2013 
      2 C          18.9528  -24.0719  -41.0620 C.2       0 UNK         0.4866 
      3 O          18.9607  -22.9912  -41.6506 O.2       0 UNK        -0.5176 
      4 N          18.6995  -25.2347  -41.6777 N.am      1 UNK        -0.4884 
      5 CA         18.3594  -25.3726  -43.1002 C.3       1 UNK         0.0853 
      6 C6         17.8300  -26.7879  -43.4230 C.3       10 UNK        -0.0849 
      7 S7         16.1404  -27.0671  -42.7838 S.3       10 UNK        -0.2776 
      8 C8         16.0662  -28.8661  -42.4306 C.3       10 UNK         0.0316 
      9 C9         16.8856  -29.7495  -43.3703 C.ar      10 UNK        -0.0863 
     10 C10        17.6430  -30.7998  -42.8422 C.ar      10 UNK        -0.1009 
     11 C11        18.4671  -31.5706  -43.6661 C.ar      10 UNK        -0.0712 
     12 C12        18.5269  -31.2921  -45.0335 C.ar      10 UNK        -0.0894 
     13 C13        17.7801  -30.2411  -45.5731 C.ar      10 UNK        -0.0745 
     14 C14        16.9245  -29.5086  -44.7477 C.ar      10 UNK        -0.0972 
     15 C15        17.9544  -29.8374  -47.0283 C.3       10 UNK         0.0209 
     16 S16        19.0863  -28.4122  -47.1733 S.3       10 UNK        -0.2568 
     17 C17        20.6669  -29.1734  -46.6793 C.3       10 UNK        -0.0983 
     18 CA         21.8471  -28.1662  -46.6677 C.3       3 UNK         0.0876 
     19 N          21.7225  -27.1828  -45.5876 N.am      3 UNK        -0.4424 
     20 C          22.0794  -25.8949  -45.6740 C.2       2 UNK         0.4918 
     21 O          22.4409  -25.3478  -46.7178 O.2       2 UNK        -0.4875 
     22 CA         22.0191  -25.0907  -44.3576 C.3       2 UNK         0.0481 
     23 CB         22.3039  -23.5861  -44.5502 C.3       2 UNK        -0.1831 
     24 N          20.7647  -25.2955  -43.6220 N.am      2 UNK        -0.4498 
     25 C          19.5231  -25.0172  -44.0501 C.2       1 UNK         0.5027 
     26 O          19.2663  -24.5097  -45.1426 O.2       1 UNK        -0.4969 
     27 C          23.2250  -28.8399  -46.5030 C.2       3 UNK         0.5005 
     28 O          24.2461  -28.1903  -46.7379 O.2       3 UNK        -0.5279 
     29 N          23.2480  -30.1083  -46.0639 N.am      4 UNK        -0.4463 
     30 CA         24.4642  -30.8194  -45.6526 C.3       4 UNK         0.0283 
     31 CB         24.1641  -32.3228  -45.5401 C.3       4 UNK        -0.1875 
     32 C          25.0340  -30.2828  -44.3254 C.2       4 UNK         0.4949 
     33 O          26.2375  -30.3929  -44.0918 O.2       4 UNK        -0.5039 
     34 N          24.1615  -29.6989  -43.4973 N.am      5 UNK        -0.4663 
     35 CA         24.4658  -29.0092  -42.2521 C.3       5 UNK         0.0242 
     36 CB         24.6440  -30.0338  -41.1169 C.3       5 UNK        -0.1982 
     37 C          23.3108  -28.0458  -41.9491 C.2       5 UNK         0.5017 
     38 O          22.3084  -28.0213  -42.6757 O.2       5 UNK        -0.5012 
     39 N          23.4482  -27.2922  -40.8519 N.am      6 UNK        -0.4439 
     40 CA         22.4154  -26.4302  -40.2750 C.3       6 UNK         0.0297 
     41 CB         23.0810  -25.4360  -39.3059 C.3       6 UNK        -0.2006 
     42 C          21.3121  -27.2665  -39.5970 C.2       6 UNK         0.4892 
     43 O          21.2232  -27.2930  -38.3696 O.2       6 UNK        -0.5089 
     44 N          20.5258  -27.9739  -40.4204 N.am      7 UNK        -0.4243 
     45 CA         19.4262  -28.8970  -40.0996 C.3       7 UNK         0.0196 
     46 CB         18.3043  -28.2084  -39.2970 C.3       7 UNK        -0.2007 
     47 C          19.8596  -30.2133  -39.4277 C.2       7 UNK         0.5020 
     48 O          19.2864  -31.2593  -39.7315 O.2       7 UNK        -0.5147 
     49 N          20.8663  -30.1648  -38.5492 N.am      8 UNK        -0.4734 
     50 CA         21.4520  -31.3130  -37.8519 C.3       8 UNK         0.0238 
     51 CB         22.1279  -30.8107  -36.5620 C.3       8 UNK        -0.1912 
     52 C          22.4166  -32.1052  -38.7581 C.2       8 UNK         0.5038 
     53 O          23.6058  -32.2060  -38.4500 O.2       8 UNK        -0.5046 
     54 N          21.8937  -32.6169  -39.8791 N.am      9 UNK        -0.4200 
     55 CA         22.6218  -33.4028  -40.8871 C.3       9 UNK         0.0839 
     56 C          23.1939  -34.7314  -40.3215 C.2       9 UNK         0.5513 
     57 N          24.3689  -35.1447  -40.7761 N.am      9 UNK        -0.7519 
     58 O          22.5611  -35.4105  -39.5151 O.2       9 UNK        -0.4960 
     59 C59        21.7525  -33.6822  -42.1402 C.3       10 UNK        -0.0876 
     60 S60        21.0518  -32.1708  -42.8900 S.3       10 UNK        -0.2414 
     61 C61        19.3151  -32.6844  -43.0757 C.3       10 UNK         0.0169 
     62 H62        20.2137  -23.7022  -39.3548 H         1 UNK         0.0903 
     63 H63        18.4894  -23.5223  -39.0329 H         1 UNK         0.0903 
     64 H64        19.1931  -25.1320  -39.1704 H         1 UNK         0.0903 
     65 H65        18.6638  -26.0860  -41.1370 H         1 UNK         0.3096 
     66 H66        17.5654  -24.6538  -43.3177 H         1 UNK         0.1121 
     67 H67        18.5114  -27.5495  -43.0397 H         1 UNK         0.0849 
     68 H68        17.7860  -26.9350  -44.5042 H         1 UNK         0.0849 
     69 H69        16.3881  -29.0165  -41.3998 H         1 UNK         0.0865 
     70 H70        15.0244  -29.1865  -42.4700 H         1 UNK         0.0865 
     71 H71        17.6109  -31.0074  -41.7813 H         1 UNK         0.1346 
     72 H72        19.1904  -31.8649  -45.6668 H         1 UNK         0.1412 
     73 H73        16.3459  -28.6981  -45.1692 H         1 UNK         0.1426 
     74 H74        16.9867  -29.5695  -47.4548 H         1 UNK         0.0716 
     75 H75        18.3332  -30.6711  -47.6217 H         1 UNK         0.0716 
     76 H76        20.5473  -29.6192  -45.6912 H         1 UNK         0.0695 
     77 H77        20.8583  -29.9883  -47.3804 H         1 UNK         0.0695 
     78 H78        21.8629  -27.6580  -47.6345 H         1 UNK         0.0983 
     79 H79        21.4996  -27.5469  -44.6699 H         1 UNK         0.3095 
     80 H80        22.8128  -25.4880  -43.7238 H         1 UNK         0.0454 
     81 H81        23.2922  -23.4288  -44.9836 H         1 UNK         0.0851 
     82 H82        22.2790  -23.0530  -43.5998 H         1 UNK         0.0851 
     83 H83        21.5800  -23.1166  -45.2167 H         1 UNK         0.0851 
     84 H84        20.8563  -25.7241  -42.7143 H         1 UNK         0.2976 
     85 H85        22.3718  -30.5849  -45.9056 H         1 UNK         0.3116 
     86 H86        25.2250  -30.6784  -46.4233 H         1 UNK         0.0646 
     87 H87        23.4099  -32.5306  -44.7809 H         1 UNK         0.0847 
     88 H88        23.8103  -32.7305  -46.4871 H         1 UNK         0.0847 
     89 H89        25.0617  -32.8785  -45.2653 H         1 UNK         0.0847 
     90 H90        23.1927  -29.6174  -43.7779 H         1 UNK         0.3040 
     91 H91        25.3803  -28.4260  -42.3803 H         1 UNK         0.1015 
     92 H92        24.9938  -29.5602  -40.1993 H         1 UNK         0.0786 
     93 H93        25.3711  -30.8039  -41.3748 H         1 UNK         0.0786 
     94 H94        23.7002  -30.5263  -40.8877 H         1 UNK         0.0786 
     95 H95        24.2944  -27.3904  -40.3088 H         1 UNK         0.3172 
     96 H96        21.9508  -25.8499  -41.0733 H         1 UNK         0.0595 
     97 H97        23.6055  -25.9463  -38.4969 H         1 UNK         0.0839 
     98 H98        22.3416  -24.7796  -38.8465 H         1 UNK         0.0839 
     99 H99        23.7997  -24.7994  -39.8223 H         1 UNK         0.0839 
    100 H100       20.8183  -27.9895  -41.3934 H         1 UNK         0.2998 
    101 H101       19.0089  -29.1778  -41.0658 H         1 UNK         0.0822 
    102 H102       17.4849  -28.9024  -39.1052 H         1 UNK         0.0787 
    103 H103       17.8836  -27.3620  -39.8376 H         1 UNK         0.0787 
    104 H104       18.6512  -27.8520  -38.3269 H         1 UNK         0.0787 
    105 H105       21.2535  -29.2489  -38.3420 H         1 UNK         0.3055 
    106 H106       20.6506  -31.9971  -37.5627 H         1 UNK         0.1106 
    107 H107       22.9369  -30.1110  -36.7762 H         1 UNK         0.0828 
    108 H108       21.4137  -30.3072  -35.9103 H         1 UNK         0.0828 
    109 H109       22.5534  -31.6394  -35.9944 H         1 UNK         0.0828 
    110 H110       20.9119  -32.4443  -40.0642 H         1 UNK         0.2931 
    111 H111       23.4684  -32.7938  -41.2072 H         1 UNK         0.0412 
    112 H112       24.7487  -36.0138  -40.4336 H         1 UNK         0.3472 
    113 H113       24.8917  -34.5998  -41.4442 H         1 UNK         0.3472 
    114 H114       22.3455  -34.1853  -42.9062 H         1 UNK         0.0970 
    115 H115       20.9457  -34.3728  -41.8868 H         1 UNK         0.0970 
    116 H116       18.9223  -32.9841  -42.1026 H         1 UNK         0.0612 
    117 H117       19.2639  -33.5643  -43.7187 H         1 UNK         0.0612 
@<TRIPOS>BOND
     1    1    2 1    
     2    1   62 1    
     3    1   63 1    
     4    1   64 1    
     5    2    3 2    
     6    2    4 am   BACKBONE|DICT|INTERRES
     7    4    5 1    
     8    4   65 1    
     9    5    6 1    
    10    5   25 1    
    11    5   66 1    
    12    6    7 1    
    13    6   67 1    
    14    6   68 1    
    15    7    8 1    
    16    8    9 1    
    17    8   69 1    
    18    8   70 1    
    19    9   10 ar   
    20    9   14 ar   
    21   10   11 ar   
    22   10   71 1    
    23   11   12 ar   
    24   11   61 1    
    25   12   13 ar   
    26   12   72 1    
    27   13   14 ar   
    28   13   15 1    
    29   14   73 1    
    30   15   16 1    
    31   15   74 1    
    32   15   75 1    
    33   16   17 1    
    34   17   18 1    
    35   17   76 1    
    36   17   77 1    
    37   18   19 1    
    38   18   27 1    
    39   18   78 1    
    40   19   20 am   BACKBONE|DICT|INTERRES
    41   19   79 1    
    42   20   21 2    
    43   20   22 1    
    44   22   23 1    
    45   22   24 1    
    46   22   80 1    
    47   23   81 1    
    48   23   82 1    
    49   23   83 1    
    50   24   25 am   BACKBONE|DICT|INTERRES
    51   24   84 1    
    52   25   26 2    
    53   27   28 2    
    54   27   29 am   BACKBONE|DICT|INTERRES
    55   29   30 1    
    56   29   85 1    
    57   30   31 1    
    58   30   32 1    
    59   30   86 1    
    60   31   87 1    
    61   31   88 1    
    62   31   89 1    
    63   32   33 2    
    64   32   34 am   BACKBONE|DICT|INTERRES
    65   34   35 1    
    66   34   90 1    
    67   35   36 1    
    68   35   37 1    
    69   35   91 1    
    70   36   92 1    
    71   36   93 1    
    72   36   94 1    
    73   37   38 2    
    74   37   39 am   BACKBONE|DICT|INTERRES
    75   39   40 1    
    76   39   95 1    
    77   40   41 1    
    78   40   42 1    
    79   40   96 1    
    80   41   97 1    
    81   41   98 1    
    82   41   99 1    
    83   42   43 2    
    84   42   44 am   BACKBONE|DICT|INTERRES
    85   44   45 1    
    86   44  100 1    
    87   45   46 1    
    88   45   47 1    
    89   45  101 1    
    90   46  102 1    
    91   46  103 1    
    92   46  104 1    
    93   47   48 2    
    94   47   49 am   BACKBONE|DICT|INTERRES
    95   49   50 1    
    96   49  105 1    
    97   50   51 1    
    98   50   52 1    
    99   50  106 1    
   100   51  107 1    
   101   51  108 1    
   102   51  109 1    
   103   52   53 2    
   104   52   54 am   BACKBONE|DICT|INTERRES
   105   54   55 1    
   106   54  110 1    
   107   55   56 1    
   108   55   59 1    
   109   55  111 1    
   110   56   57 am   BACKBONE|DICT|INTERRES
   111   56   58 2    
   112   57  112 1    
   113   57  113 1    
   114   59   60 1    
   115   59  114 1    
   116   59  115 1    
   117   60   61 1    
   118   61  116 1    
   119   61  117 1    
@<TRIPOS>SUBSTRUCTURE
     1 UNK         1 GROUP             0       ****    0 ROOT    
