@<TRIPOS>MOLECULE
3R8
117   119    1
SMALL
USER_CHARGES


@<TRIPOS>ATOM
      1 CA         14.9326  -23.7556  -49.2386 C.3       0 UNK        -0.2013 
      2 C          15.5500  -25.1158  -48.9504 C.2       0 UNK         0.4866 
      3 O          16.0865  -25.7495  -49.8594 O.2       0 UNK        -0.5176 
      4 N          15.4806  -25.5700  -47.6913 N.am      1 UNK        -0.4884 
      5 CA         16.0232  -26.8594  -47.2380 C.3       1 UNK         0.0853 
      6 C6         15.3499  -27.3138  -45.9146 C.3       10 UNK        -0.0849 
      7 S7         15.2879  -29.1301  -45.7598 S.3       10 UNK        -0.2776 
      8 C8         14.7474  -29.3358  -44.0337 C.3       10 UNK         0.0316 
      9 C9         15.8535  -29.0265  -43.0328 C.ar      10 UNK        -0.0863 
     10 C10        16.9382  -29.8988  -42.8928 C.ar      10 UNK        -0.1009 
     11 C11        17.9299  -29.6491  -41.9400 C.ar      10 UNK        -0.0712 
     12 C12        17.8228  -28.5300  -41.1117 C.ar      10 UNK        -0.0894 
     13 C13        16.7596  -27.6337  -41.2599 C.ar      10 UNK        -0.0745 
     14 C14        15.7764  -27.8893  -42.2216 C.ar      10 UNK        -0.0972 
     15 C15        16.6600  -26.3996  -40.3711 C.3       10 UNK         0.0209 
     16 S16        18.2018  -25.4262  -40.3314 S.3       10 UNK        -0.2568 
     17 C17        18.3632  -24.8908  -42.0697 C.3       10 UNK        -0.0983 
     18 CA         19.3754  -25.7238  -42.9003 C.3       3 UNK         0.0876 
     19 N          19.2749  -25.3723  -44.3184 N.am      3 UNK        -0.4424 
     20 C          19.9623  -25.9210  -45.3300 C.2       2 UNK         0.4918 
     21 O          20.8025  -26.8131  -45.2042 O.2       2 UNK        -0.4875 
     22 CA         19.5835  -25.3931  -46.7264 C.3       2 UNK         0.0481 
     23 CB         20.4999  -25.9198  -47.8518 C.3       2 UNK        -0.1831 
     24 N          18.1668  -25.6560  -47.0132 N.am      2 UNK        -0.4498 
     25 C          17.5653  -26.8549  -47.1130 C.2       1 UNK         0.5027 
     26 O          18.1686  -27.9282  -47.1023 O.2       1 UNK        -0.4969 
     27 C          20.8191  -25.5861  -42.3675 C.2       3 UNK         0.5005 
     28 O          21.4871  -24.5867  -42.6485 O.2       3 UNK        -0.5279 
     29 N          21.2544  -26.5853  -41.5958 N.am      4 UNK        -0.4463 
     30 CA         22.5604  -26.6897  -40.9576 C.3       4 UNK         0.0283 
     31 CB         23.6039  -27.1727  -41.9853 C.3       4 UNK        -0.1875 
     32 C          22.4380  -27.6705  -39.7839 C.2       4 UNK         0.4949 
     33 O          21.3877  -28.2974  -39.6136 O.2       4 UNK        -0.5039 
     34 N          23.5218  -27.8091  -39.0095 N.am      5 UNK        -0.4663 
     35 CA         23.6732  -28.8442  -37.9820 C.3       5 UNK         0.0242 
     36 CB         24.9534  -28.5704  -37.1769 C.3       5 UNK        -0.1982 
     37 C          23.7350  -30.2423  -38.6191 C.2       5 UNK         0.5017 
     38 O          24.2636  -30.3746  -39.7246 O.2       5 UNK        -0.5012 
     39 N          23.2257  -31.2594  -37.9116 N.am      6 UNK        -0.4439 
     40 CA         23.0303  -32.6335  -38.4006 C.3       6 UNK         0.0297 
     41 CB         22.4003  -33.4796  -37.2822 C.3       6 UNK        -0.2006 
     42 C          24.2800  -33.3408  -38.9633 C.2       6 UNK         0.4892 
     43 O          24.1333  -34.2419  -39.7888 O.2       6 UNK        -0.5089 
     44 N          25.4751  -32.9217  -38.5263 N.am      7 UNK        -0.4243 
     45 CA         26.7610  -33.3968  -39.0425 C.3       7 UNK         0.0196 
     46 CB         27.8712  -33.0071  -38.0528 C.3       7 UNK        -0.2007 
     47 C          27.0924  -32.8679  -40.4522 C.2       7 UNK         0.5020 
     48 O          27.8598  -33.5161  -41.1644 O.2       7 UNK        -0.5147 
     49 N          26.5374  -31.7062  -40.8231 N.am      8 UNK        -0.4734 
     50 CA         26.7639  -31.0378  -42.1077 C.3       8 UNK         0.0238 
     51 CB         27.1272  -29.5668  -41.8433 C.3       8 UNK        -0.1912 
     52 C          25.5381  -31.1198  -43.0309 C.2       8 UNK         0.5038 
     53 O          25.7124  -31.1700  -44.2491 O.2       8 UNK        -0.5046 
     54 N          24.3334  -31.1077  -42.4454 N.am      9 UNK        -0.4200 
     55 CA         23.0393  -31.1670  -43.1387 C.3       9 UNK         0.0839 
     56 C          22.8342  -32.4673  -43.9653 C.2       9 UNK         0.5513 
     57 N          22.1187  -32.3866  -45.0786 N.am      9 UNK        -0.7519 
     58 O          23.2803  -33.5487  -43.5878 O.2       9 UNK        -0.4960 
     59 C59        21.8745  -30.9378  -42.1385 C.3       10 UNK        -0.0876 
     60 S60        20.4847  -30.0230  -42.8771 S.3       10 UNK        -0.2414 
     61 C61        19.1262  -30.5749  -41.8044 C.3       10 UNK         0.0169 
     62 H62        14.1496  -23.8513  -49.9905 H         1 UNK         0.0903 
     63 H63        14.4929  -23.3087  -48.3472 H         1 UNK         0.0903 
     64 H64        15.6906  -23.0729  -49.6216 H         1 UNK         0.0903 
     65 H65        15.0194  -25.0101  -46.9871 H         1 UNK         0.3096 
     66 H66        15.7805  -27.5916  -48.0123 H         1 UNK         0.1121 
     67 H67        15.8454  -26.8796  -45.0436 H         1 UNK         0.0849 
     68 H68        14.3166  -26.9647  -45.8760 H         1 UNK         0.0849 
     69 H69        13.8683  -28.7152  -43.8521 H         1 UNK         0.0865 
     70 H70        14.4214  -30.3672  -43.8909 H         1 UNK         0.0865 
     71 H71        17.0113  -30.7704  -43.5291 H         1 UNK         0.1346 
     72 H72        18.5837  -28.3428  -40.3655 H         1 UNK         0.1412 
     73 H73        14.9417  -27.2099  -42.3293 H         1 UNK         0.1426 
     74 H74        15.8427  -25.7512  -40.6909 H         1 UNK         0.0716 
     75 H75        16.4211  -26.7188  -39.3559 H         1 UNK         0.0716 
     76 H76        18.6460  -23.8363  -42.0740 H         1 UNK         0.0695 
     77 H77        17.3762  -24.9343  -42.5334 H         1 UNK         0.0695 
     78 H78        19.0919  -26.7761  -42.8401 H         1 UNK         0.0983 
     79 H79        18.6234  -24.6345  -44.5385 H         1 UNK         0.3095 
     80 H80        19.6987  -24.3085  -46.6960 H         1 UNK         0.0454 
     81 H81        20.2084  -25.5170  -48.8215 H         1 UNK         0.0851 
     82 H82        20.4839  -27.0076  -47.9224 H         1 UNK         0.0851 
     83 H83        21.5351  -25.6257  -47.6754 H         1 UNK         0.0851 
     84 H84        17.5697  -24.8424  -47.0605 H         1 UNK         0.2976 
     85 H85        20.6304  -27.3457  -41.3506 H         1 UNK         0.3116 
     86 H86        22.8482  -25.7136  -40.5622 H         1 UNK         0.0646 
     87 H87        23.6706  -26.4938  -42.8354 H         1 UNK         0.0847 
     88 H88        24.5994  -27.2319  -41.5454 H         1 UNK         0.0847 
     89 H89        23.3574  -28.1626  -42.3706 H         1 UNK         0.0847 
     90 H90        24.3476  -27.2722  -39.2305 H         1 UNK         0.3040 
     91 H91        22.8101  -28.7945  -37.3144 H         1 UNK         0.1015 
     92 H92        25.8438  -28.6138  -37.8061 H         1 UNK         0.0786 
     93 H93        25.0812  -29.3049  -36.3805 H         1 UNK         0.0786 
     94 H94        24.9232  -27.5877  -36.7056 H         1 UNK         0.0786 
     95 H95        22.8446  -31.0587  -36.9977 H         1 UNK         0.3172 
     96 H96        22.3119  -32.5734  -39.2208 H         1 UNK         0.0595 
     97 H97        23.0500  -33.5411  -36.4082 H         1 UNK         0.0839 
     98 H98        22.2137  -34.5000  -37.6207 H         1 UNK         0.0839 
     99 H99        21.4421  -33.0694  -36.9625 H         1 UNK         0.0839 
    100 H100       25.5002  -32.1811  -37.8409 H         1 UNK         0.2998 
    101 H101       26.7243  -34.4869  -39.1024 H         1 UNK         0.0822 
    102 H102       27.6929  -33.4358  -37.0664 H         1 UNK         0.0787 
    103 H103       28.8418  -33.3722  -38.3921 H         1 UNK         0.0787 
    104 H104       27.9513  -31.9249  -37.9410 H         1 UNK         0.0787 
    105 H105       25.8730  -31.2598  -40.1972 H         1 UNK         0.3055 
    106 H106       27.5990  -31.5028  -42.6367 H         1 UNK         0.1106 
    107 H107       28.0449  -29.4858  -41.2606 H         1 UNK         0.0828 
    108 H108       27.2885  -29.0282  -42.7782 H         1 UNK         0.0828 
    109 H109       26.3383  -29.0478  -41.2976 H         1 UNK         0.0828 
    110 H110       24.2934  -31.0165  -41.4348 H         1 UNK         0.2931 
    111 H111       23.0600  -30.3311  -43.8415 H         1 UNK         0.0412 
    112 H112       21.7199  -31.5080  -45.3721 H         1 UNK         0.3472 
    113 H113       21.9593  -33.2191  -45.6242 H         1 UNK         0.3472 
    114 H114       21.5281  -31.8788  -41.7058 H         1 UNK         0.0970 
    115 H115       22.2044  -30.3335  -41.2947 H         1 UNK         0.0970 
    116 H116       18.8513  -31.5989  -42.0618 H         1 UNK         0.0612 
    117 H117       19.4647  -30.5920  -40.7667 H         1 UNK         0.0612 
@<TRIPOS>BOND
     1    1    2 1    
     2    1   62 1    
     3    1   63 1    
     4    1   64 1    
     5    2    3 2    
     6    2    4 am   BACKBONE|DICT|INTERRES
     7    4    5 1    
     8    4   65 1    
     9    5    6 1    
    10    5   25 1    
    11    5   66 1    
    12    6    7 1    
    13    6   67 1    
    14    6   68 1    
    15    7    8 1    
    16    8    9 1    
    17    8   69 1    
    18    8   70 1    
    19    9   10 ar   
    20    9   14 ar   
    21   10   11 ar   
    22   10   71 1    
    23   11   12 ar   
    24   11   61 1    
    25   12   13 ar   
    26   12   72 1    
    27   13   14 ar   
    28   13   15 1    
    29   14   73 1    
    30   15   16 1    
    31   15   74 1    
    32   15   75 1    
    33   16   17 1    
    34   17   18 1    
    35   17   76 1    
    36   17   77 1    
    37   18   19 1    
    38   18   27 1    
    39   18   78 1    
    40   19   20 am   BACKBONE|DICT|INTERRES
    41   19   79 1    
    42   20   21 2    
    43   20   22 1    
    44   22   23 1    
    45   22   24 1    
    46   22   80 1    
    47   23   81 1    
    48   23   82 1    
    49   23   83 1    
    50   24   25 am   BACKBONE|DICT|INTERRES
    51   24   84 1    
    52   25   26 2    
    53   27   28 2    
    54   27   29 am   BACKBONE|DICT|INTERRES
    55   29   30 1    
    56   29   85 1    
    57   30   31 1    
    58   30   32 1    
    59   30   86 1    
    60   31   87 1    
    61   31   88 1    
    62   31   89 1    
    63   32   33 2    
    64   32   34 am   BACKBONE|DICT|INTERRES
    65   34   35 1    
    66   34   90 1    
    67   35   36 1    
    68   35   37 1    
    69   35   91 1    
    70   36   92 1    
    71   36   93 1    
    72   36   94 1    
    73   37   38 2    
    74   37   39 am   BACKBONE|DICT|INTERRES
    75   39   40 1    
    76   39   95 1    
    77   40   41 1    
    78   40   42 1    
    79   40   96 1    
    80   41   97 1    
    81   41   98 1    
    82   41   99 1    
    83   42   43 2    
    84   42   44 am   BACKBONE|DICT|INTERRES
    85   44   45 1    
    86   44  100 1    
    87   45   46 1    
    88   45   47 1    
    89   45  101 1    
    90   46  102 1    
    91   46  103 1    
    92   46  104 1    
    93   47   48 2    
    94   47   49 am   BACKBONE|DICT|INTERRES
    95   49   50 1    
    96   49  105 1    
    97   50   51 1    
    98   50   52 1    
    99   50  106 1    
   100   51  107 1    
   101   51  108 1    
   102   51  109 1    
   103   52   53 2    
   104   52   54 am   BACKBONE|DICT|INTERRES
   105   54   55 1    
   106   54  110 1    
   107   55   56 1    
   108   55   59 1    
   109   55  111 1    
   110   56   57 am   BACKBONE|DICT|INTERRES
   111   56   58 2    
   112   57  112 1    
   113   57  113 1    
   114   59   60 1    
   115   59  114 1    
   116   59  115 1    
   117   60   61 1    
   118   61  116 1    
   119   61  117 1    
@<TRIPOS>SUBSTRUCTURE
     1 UNK         1 GROUP             0       ****    0 ROOT    
