@<TRIPOS>MOLECULE
3R8
117   119    1
SMALL
USER_CHARGES


@<TRIPOS>ATOM
      1 CA         15.6464  -24.2132  -40.8871 C.3       0 UNK        -0.2013 
      2 C          15.9048  -24.2852  -42.3847 C.2       0 UNK         0.4866 
      3 O          15.9202  -23.2515  -43.0544 O.2       0 UNK        -0.5176 
      4 N          16.0979  -25.4984  -42.9161 N.am      1 UNK        -0.4884 
      5 CA         16.4164  -25.7573  -44.3250 C.3       1 UNK         0.0853 
      6 C6         16.2419  -27.2523  -44.6887 C.3       10 UNK        -0.0849 
      7 S7         14.5780  -27.9054  -44.3111 S.3       10 UNK        -0.2776 
      8 C8         14.4369  -29.2955  -45.4873 C.3       10 UNK         0.0316 
      9 C9         15.6811  -30.1750  -45.4988 C.ar      10 UNK        -0.0863 
     10 C10        16.0576  -30.8844  -44.3535 C.ar      10 UNK        -0.1009 
     11 C11        17.2378  -31.6334  -44.3399 C.ar      10 UNK        -0.0712 
     12 C12        18.0257  -31.6979  -45.4918 C.ar      10 UNK        -0.0894 
     13 C13        17.6652  -30.9837  -46.6388 C.ar      10 UNK        -0.0745 
     14 C14        16.4846  -30.2365  -46.6419 C.ar      10 UNK        -0.0972 
     15 C15        18.5896  -30.9618  -47.8485 C.3       10 UNK         0.0209 
     16 S16        19.5169  -29.3926  -47.9665 S.3       10 UNK        -0.2568 
     17 C17        20.3498  -29.3452  -46.3422 C.3       10 UNK        -0.0983 
     18 CA         21.0585  -28.0072  -46.0182 C.3       3 UNK         0.0876 
     19 N          20.1637  -26.8633  -46.2086 N.am      3 UNK        -0.4424 
     20 C          20.5439  -25.5830  -46.2959 C.2       2 UNK         0.4918 
     21 O          21.7178  -25.2140  -46.2677 O.2       2 UNK        -0.4875 
     22 CA         19.4232  -24.5305  -46.4286 C.3       2 UNK         0.0481 
     23 CB         19.2770  -24.0926  -47.8947 C.3       2 UNK        -0.1831 
     24 N          18.1112  -24.9600  -45.9203 N.am      2 UNK        -0.4498 
     25 C          17.8573  -25.3123  -44.6512 C.2       1 UNK         0.5027 
     26 O          18.7251  -25.3594  -43.7763 O.2       1 UNK        -0.4969 
     27 C          21.6304  -28.0974  -44.5848 C.2       3 UNK         0.5005 
     28 O          22.6192  -28.8070  -44.3924 O.2       3 UNK        -0.5279 
     29 N          20.9745  -27.4557  -43.6024 N.am      4 UNK        -0.4463 
     30 CA         21.2734  -27.5930  -42.1748 C.3       4 UNK         0.0283 
     31 CB         20.1928  -26.8783  -41.3481 C.3       4 UNK        -0.1875 
     32 C          22.6720  -27.0754  -41.8037 C.2       4 UNK         0.4949 
     33 O          23.0859  -26.0188  -42.2864 O.2       4 UNK        -0.5039 
     34 N          23.3576  -27.8251  -40.9373 N.am      5 UNK        -0.4663 
     35 CA         24.7299  -27.6030  -40.4862 C.3       5 UNK         0.0242 
     36 CB         25.7210  -27.8299  -41.6484 C.3       5 UNK        -0.1982 
     37 C          25.0217  -28.5860  -39.3472 C.2       5 UNK         0.5017 
     38 O          24.2777  -29.5524  -39.1744 O.2       5 UNK        -0.5012 
     39 N          26.1305  -28.3710  -38.6266 N.am      6 UNK        -0.4439 
     40 CA         26.6040  -29.2517  -37.5480 C.3       6 UNK         0.0297 
     41 CB         27.8103  -28.6004  -36.8524 C.3       6 UNK        -0.2006 
     42 C          26.9567  -30.6818  -38.0086 C.2       6 UNK         0.4892 
     43 O          26.8762  -31.6111  -37.2050 O.2       6 UNK        -0.5089 
     44 N          27.3249  -30.8288  -39.2883 N.am      7 UNK        -0.4243 
     45 CA         27.6067  -32.1043  -39.9510 C.3       7 UNK         0.0196 
     46 CB         28.7743  -31.8921  -40.9316 C.3       7 UNK        -0.2007 
     47 C          26.3795  -32.6879  -40.6823 C.2       7 UNK         0.5020 
     48 O          26.5158  -33.7280  -41.3281 O.2       7 UNK        -0.5147 
     49 N          25.2208  -32.0214  -40.6029 N.am      8 UNK        -0.4734 
     50 CA         23.9710  -32.4049  -41.2606 C.3       8 UNK         0.0238 
     51 CB         23.7210  -31.4486  -42.4460 C.3       8 UNK        -0.1912 
     52 C          22.8285  -32.4079  -40.2295 C.2       8 UNK         0.5038 
     53 O          23.0811  -32.6104  -39.0387 O.2       8 UNK        -0.5046 
     54 N          21.5904  -32.2127  -40.6992 N.am      9 UNK        -0.4200 
     55 CA         20.4012  -32.0202  -39.8591 C.3       9 UNK         0.0839 
     56 C          20.3822  -30.6388  -39.1428 C.2       9 UNK         0.5513 
     57 N          19.5994  -30.5069  -38.0803 N.am      9 UNK        -0.7519 
     58 O          21.0453  -29.6859  -39.5468 O.2       9 UNK        -0.4960 
     59 C59        19.0928  -32.3066  -40.6448 C.3       10 UNK        -0.0876 
     60 S60        18.8720  -31.2960  -42.1502 S.3       10 UNK        -0.2414 
     61 C61        17.6900  -32.3324  -43.0686 C.3       10 UNK         0.0169 
     62 H62        15.6485  -25.2003  -40.4249 H         1 UNK         0.0903 
     63 H63        16.4149  -23.6110  -40.4031 H         1 UNK         0.0903 
     64 H64        14.6787  -23.7507  -40.6947 H         1 UNK         0.0903 
     65 H65        16.0754  -26.3140  -42.3213 H         1 UNK         0.3096 
     66 H66        15.7300  -25.1670  -44.9365 H         1 UNK         0.1121 
     67 H67        16.9719  -27.8683  -44.1579 H         1 UNK         0.0849 
     68 H68        16.4339  -27.4004  -45.7532 H         1 UNK         0.0849 
     69 H69        13.5691  -29.9010  -45.2222 H         1 UNK         0.0865 
     70 H70        14.2367  -28.8947  -46.4823 H         1 UNK         0.0865 
     71 H71        15.4517  -30.8176  -43.4599 H         1 UNK         0.1346 
     72 H72        18.9496  -32.2601  -45.4752 H         1 UNK         0.1412 
     73 H73        16.2167  -29.6706  -47.5240 H         1 UNK         0.1426 
     74 H74        19.2962  -31.7923  -47.8093 H         1 UNK         0.0716 
     75 H75        18.0045  -31.0995  -48.7589 H         1 UNK         0.0716 
     76 H76        19.6070  -29.5404  -45.5682 H         1 UNK         0.0695 
     77 H77        21.0588  -30.1749  -46.3042 H         1 UNK         0.0695 
     78 H78        21.9042  -27.8909  -46.6995 H         1 UNK         0.0983 
     79 H79        19.1820  -27.0798  -46.2868 H         1 UNK         0.3095 
     80 H80        19.7293  -23.6606  -45.8438 H         1 UNK         0.0454 
     81 H81        18.9452  -24.9142  -48.5308 H         1 UNK         0.0851 
     82 H82        18.5625  -23.2759  -47.9977 H         1 UNK         0.0851 
     83 H83        20.2286  -23.7375  -48.2932 H         1 UNK         0.0851 
     84 H84        17.3524  -24.9595  -46.5876 H         1 UNK         0.2976 
     85 H85        20.2077  -26.8372  -43.8418 H         1 UNK         0.3116 
     86 H86        21.2257  -28.6600  -41.9483 H         1 UNK         0.0646 
     87 H87        20.1897  -25.8035  -41.5331 H         1 UNK         0.0847 
     88 H88        20.3603  -27.0253  -40.2804 H         1 UNK         0.0847 
     89 H89        19.1985  -27.2633  -41.5748 H         1 UNK         0.0847 
     90 H90        22.9138  -28.6373  -40.5152 H         1 UNK         0.3040 
     91 H91        24.8181  -26.5831  -40.1060 H         1 UNK         0.1015 
     92 H92        25.5488  -27.1319  -42.4675 H         1 UNK         0.0786 
     93 H93        25.6402  -28.8399  -42.0531 H         1 UNK         0.0786 
     94 H94        26.7530  -27.6872  -41.3264 H         1 UNK         0.0786 
     95 H95        26.6959  -27.5584  -38.8301 H         1 UNK         0.3172 
     96 H96        25.7968  -29.3385  -36.8174 H         1 UNK         0.0595 
     97 H97        27.5518  -27.6274  -36.4340 H         1 UNK         0.0839 
     98 H98        28.6471  -28.4615  -37.5382 H         1 UNK         0.0839 
     99 H99        28.1660  -29.2198  -36.0276 H         1 UNK         0.0839 
    100 H100       27.3627  -30.0035  -39.8682 H         1 UNK         0.2998 
    101 H101       27.9179  -32.8424  -39.2087 H         1 UNK         0.0822 
    102 H102       29.6571  -31.5084  -40.4197 H         1 UNK         0.0787 
    103 H103       29.0632  -32.8297  -41.4086 H         1 UNK         0.0787 
    104 H104       28.5132  -31.1899  -41.7244 H         1 UNK         0.0787 
    105 H105       25.1427  -31.2294  -39.9719 H         1 UNK         0.3055 
    106 H106       24.0424  -33.4249  -41.6442 H         1 UNK         0.1106 
    107 H107       22.8805  -31.7739  -43.0598 H         1 UNK         0.0828 
    108 H108       23.5103  -30.4333  -42.1088 H         1 UNK         0.0828 
    109 H109       24.5881  -31.4015  -43.1050 H         1 UNK         0.0828 
    110 H110       21.4605  -32.0270  -41.6822 H         1 UNK         0.2931 
    111 H111       20.4561  -32.7697  -39.0665 H         1 UNK         0.0412 
    112 H112       19.0497  -31.2780  -37.7345 H         1 UNK         0.3472 
    113 H113       19.5678  -29.6173  -37.6076 H         1 UNK         0.3472 
    114 H114       18.2198  -32.1699  -40.0040 H         1 UNK         0.0970 
    115 H115       19.0797  -33.3593  -40.9316 H         1 UNK         0.0970 
    116 H116       18.1552  -33.2887  -43.3127 H         1 UNK         0.0612 
    117 H117       16.8313  -32.5547  -42.4330 H         1 UNK         0.0612 
@<TRIPOS>BOND
     1    1    2 1    
     2    1   62 1    
     3    1   63 1    
     4    1   64 1    
     5    2    3 2    
     6    2    4 am   BACKBONE|DICT|INTERRES
     7    4    5 1    
     8    4   65 1    
     9    5    6 1    
    10    5   25 1    
    11    5   66 1    
    12    6    7 1    
    13    6   67 1    
    14    6   68 1    
    15    7    8 1    
    16    8    9 1    
    17    8   69 1    
    18    8   70 1    
    19    9   10 ar   
    20    9   14 ar   
    21   10   11 ar   
    22   10   71 1    
    23   11   12 ar   
    24   11   61 1    
    25   12   13 ar   
    26   12   72 1    
    27   13   14 ar   
    28   13   15 1    
    29   14   73 1    
    30   15   16 1    
    31   15   74 1    
    32   15   75 1    
    33   16   17 1    
    34   17   18 1    
    35   17   76 1    
    36   17   77 1    
    37   18   19 1    
    38   18   27 1    
    39   18   78 1    
    40   19   20 am   BACKBONE|DICT|INTERRES
    41   19   79 1    
    42   20   21 2    
    43   20   22 1    
    44   22   23 1    
    45   22   24 1    
    46   22   80 1    
    47   23   81 1    
    48   23   82 1    
    49   23   83 1    
    50   24   25 am   BACKBONE|DICT|INTERRES
    51   24   84 1    
    52   25   26 2    
    53   27   28 2    
    54   27   29 am   BACKBONE|DICT|INTERRES
    55   29   30 1    
    56   29   85 1    
    57   30   31 1    
    58   30   32 1    
    59   30   86 1    
    60   31   87 1    
    61   31   88 1    
    62   31   89 1    
    63   32   33 2    
    64   32   34 am   BACKBONE|DICT|INTERRES
    65   34   35 1    
    66   34   90 1    
    67   35   36 1    
    68   35   37 1    
    69   35   91 1    
    70   36   92 1    
    71   36   93 1    
    72   36   94 1    
    73   37   38 2    
    74   37   39 am   BACKBONE|DICT|INTERRES
    75   39   40 1    
    76   39   95 1    
    77   40   41 1    
    78   40   42 1    
    79   40   96 1    
    80   41   97 1    
    81   41   98 1    
    82   41   99 1    
    83   42   43 2    
    84   42   44 am   BACKBONE|DICT|INTERRES
    85   44   45 1    
    86   44  100 1    
    87   45   46 1    
    88   45   47 1    
    89   45  101 1    
    90   46  102 1    
    91   46  103 1    
    92   46  104 1    
    93   47   48 2    
    94   47   49 am   BACKBONE|DICT|INTERRES
    95   49   50 1    
    96   49  105 1    
    97   50   51 1    
    98   50   52 1    
    99   50  106 1    
   100   51  107 1    
   101   51  108 1    
   102   51  109 1    
   103   52   53 2    
   104   52   54 am   BACKBONE|DICT|INTERRES
   105   54   55 1    
   106   54  110 1    
   107   55   56 1    
   108   55   59 1    
   109   55  111 1    
   110   56   57 am   BACKBONE|DICT|INTERRES
   111   56   58 2    
   112   57  112 1    
   113   57  113 1    
   114   59   60 1    
   115   59  114 1    
   116   59  115 1    
   117   60   61 1    
   118   61  116 1    
   119   61  117 1    
@<TRIPOS>SUBSTRUCTURE
     1 UNK         1 GROUP             0       ****    0 ROOT    
