@<TRIPOS>MOLECULE
3R8
117   119    1
SMALL
USER_CHARGES


@<TRIPOS>ATOM
      1 CA         21.3343  -27.5541  -50.4913 C.3       0 UNK        -0.2013 
      2 C          20.7324  -28.0106  -49.1709 C.2       0 UNK         0.4866 
      3 O          20.4933  -29.2037  -48.9862 O.2       0 UNK        -0.5176 
      4 N          20.4862  -27.0731  -48.2513 N.am      1 UNK        -0.4884 
      5 CA         19.9369  -27.3154  -46.9205 C.3       1 UNK         0.0853 
      6 C6         18.3982  -27.5440  -46.9675 C.3       10 UNK        -0.0849 
      7 S7         17.5949  -27.6866  -45.3321 S.3       10 UNK        -0.2776 
      8 C8         17.5573  -29.4881  -45.0709 C.3       10 UNK         0.0316 
      9 C9         17.6186  -29.8300  -43.5871 C.ar      10 UNK        -0.0863 
     10 C10        18.6390  -30.6464  -43.0913 C.ar      10 UNK        -0.1009 
     11 C11        18.7092  -30.9547  -41.7304 C.ar      10 UNK        -0.0712 
     12 C12        17.7505  -30.4367  -40.8558 C.ar      10 UNK        -0.0894 
     13 C13        16.7356  -29.6025  -41.3355 C.ar      10 UNK        -0.0745 
     14 C14        16.6631  -29.3206  -42.7026 C.ar      10 UNK        -0.0972 
     15 C15        15.7378  -28.9727  -40.3752 C.3       10 UNK         0.0209 
     16 S16        16.5241  -27.7410  -39.2843 S.3       10 UNK        -0.2568 
     17 C17        17.2740  -26.5648  -40.4680 C.3       10 UNK        -0.0983 
     18 CA         18.7996  -26.7764  -40.6660 C.3       3 UNK         0.0876 
     19 N          19.2880  -26.0733  -41.8607 N.am      3 UNK        -0.4424 
     20 C          20.5218  -26.1803  -42.3724 C.2       2 UNK         0.4918 
     21 O          21.4160  -26.8757  -41.8867 O.2       2 UNK        -0.4875 
     22 CA         20.7862  -25.4328  -43.6805 C.3       2 UNK         0.0481 
     23 CB         22.2068  -24.8389  -43.7393 C.3       2 UNK        -0.1831 
     24 N          20.5715  -26.4008  -44.7470 N.am      2 UNK        -0.4498 
     25 C          20.3519  -26.1243  -46.0363 C.2       1 UNK         0.5027 
     26 O          20.4368  -24.9958  -46.5300 O.2       1 UNK        -0.4969 
     27 C          19.6033  -26.4258  -39.3941 C.2       3 UNK         0.5005 
     28 O          19.8906  -27.3165  -38.5943 O.2       3 UNK        -0.5279 
     29 N          19.9949  -25.1494  -39.2543 N.am      4 UNK        -0.4463 
     30 CA         20.7968  -24.6404  -38.1354 C.3       4 UNK         0.0283 
     31 CB         20.8603  -23.1063  -38.2071 C.3       4 UNK        -0.1875 
     32 C          22.2161  -25.2347  -38.0731 C.2       4 UNK         0.4949 
     33 O          22.7392  -25.4354  -36.9771 O.2       4 UNK        -0.5039 
     34 N          22.8044  -25.5127  -39.2441 N.am      5 UNK        -0.4663 
     35 CA         24.1087  -26.1672  -39.3808 C.3       5 UNK         0.0242 
     36 CB         24.7778  -25.6620  -40.6700 C.3       5 UNK        -0.1982 
     37 C          23.9993  -27.7022  -39.4123 C.2       5 UNK         0.5017 
     38 O          25.0065  -28.3771  -39.1987 O.2       5 UNK        -0.5012 
     39 N          22.7970  -28.2133  -39.7191 N.am      6 UNK        -0.4439 
     40 CA         22.4530  -29.6051  -40.0280 C.3       6 UNK         0.0297 
     41 CB         22.6008  -30.5044  -38.7832 C.3       6 UNK        -0.2006 
     42 C          23.2212  -30.1341  -41.2571 C.2       6 UNK         0.4892 
     43 O          23.6391  -31.2924  -41.2712 O.2       6 UNK        -0.5089 
     44 N          23.4036  -29.2591  -42.2577 N.am      7 UNK        -0.4243 
     45 CA         24.3500  -29.4232  -43.3660 C.3       7 UNK         0.0196 
     46 CB         24.3739  -28.1365  -44.2060 C.3       7 UNK        -0.2007 
     47 C          24.1151  -30.6447  -44.2691 C.2       7 UNK         0.5020 
     48 O          25.0878  -31.2586  -44.7084 O.2       7 UNK        -0.5147 
     49 N          22.8451  -30.9632  -44.5491 N.am      8 UNK        -0.4734 
     50 CA         22.4645  -32.0543  -45.4554 C.3       8 UNK         0.0238 
     51 CB         21.2512  -31.6160  -46.2938 C.3       8 UNK        -0.1912 
     52 C          22.1873  -33.3858  -44.7336 C.2       8 UNK         0.5038 
     53 O          21.9740  -34.3907  -45.4141 O.2       8 UNK        -0.5046 
     54 N          22.1766  -33.3828  -43.3947 N.am      9 UNK        -0.4200 
     55 CA         21.9568  -34.5766  -42.5642 C.3       9 UNK         0.0839 
     56 C          23.2733  -35.3643  -42.3272 C.2       9 UNK         0.5513 
     57 N          23.1721  -36.6450  -41.9983 N.am      9 UNK        -0.7519 
     58 O          24.3780  -34.8317  -42.4117 O.2       9 UNK        -0.4960 
     59 C59        21.2560  -34.2245  -41.2258 C.3       10 UNK        -0.0876 
     60 S60        19.5687  -33.5766  -41.4908 S.3       10 UNK        -0.2414 
     61 C61        19.8524  -31.8076  -41.2096 C.3       10 UNK         0.0169 
     62 H62        21.4894  -26.4756  -50.5178 H         1 UNK         0.0903 
     63 H63        22.2965  -28.0394  -50.6525 H         1 UNK         0.0903 
     64 H64        20.6749  -27.8221  -51.3163 H         1 UNK         0.0903 
     65 H65        20.7195  -26.1015  -48.4222 H         1 UNK         0.3096 
     66 H66        20.4127  -28.2117  -46.5157 H         1 UNK         0.1121 
     67 H67        17.9198  -26.7153  -47.4928 H         1 UNK         0.0849 
     68 H68        18.1685  -28.4342  -47.5553 H         1 UNK         0.0849 
     69 H69        16.6442  -29.8988  -45.5040 H         1 UNK         0.0865 
     70 H70        18.3893  -29.9507  -45.6034 H         1 UNK         0.0865 
     71 H71        19.3860  -31.0476  -43.7582 H         1 UNK         0.1346 
     72 H72        17.8108  -30.6529  -39.7977 H         1 UNK         0.1412 
     73 H73        15.8798  -28.6764  -43.0788 H         1 UNK         0.1426 
     74 H74        15.2857  -29.7533  -39.7618 H         1 UNK         0.0716 
     75 H75        14.9199  -28.4963  -40.9180 H         1 UNK         0.0716 
     76 H76        16.7545  -26.6630  -41.4224 H         1 UNK         0.0695 
     77 H77        17.0666  -25.5496  -40.1247 H         1 UNK         0.0695 
     78 H78        18.9700  -27.8380  -40.8561 H         1 UNK         0.0983 
     79 H79        18.6110  -25.5067  -42.3510 H         1 UNK         0.3095 
     80 H80        20.0610  -24.6221  -43.7776 H         1 UNK         0.0454 
     81 H81        22.9718  -25.6130  -43.7158 H         1 UNK         0.0851 
     82 H82        22.3565  -24.2534  -44.6462 H         1 UNK         0.0851 
     83 H83        22.3878  -24.1745  -42.8937 H         1 UNK         0.0851 
     84 H84        20.4459  -27.3515  -44.4267 H         1 UNK         0.2976 
     85 H85        19.7164  -24.4823  -39.9596 H         1 UNK         0.3116 
     86 H86        20.2861  -24.9164  -37.2102 H         1 UNK         0.0646 
     87 H87        21.4319  -22.7010  -37.3708 H         1 UNK         0.0847 
     88 H88        19.8652  -22.6638  -38.1594 H         1 UNK         0.0847 
     89 H89        21.3392  -22.7619  -39.1245 H         1 UNK         0.0847 
     90 H90        22.2989  -25.3207  -40.0972 H         1 UNK         0.3040 
     91 H91        24.7460  -25.8991  -38.5348 H         1 UNK         0.1015 
     92 H92        24.9146  -24.5807  -40.6490 H         1 UNK         0.0786 
     93 H93        24.1882  -25.9092  -41.5529 H         1 UNK         0.0786 
     94 H94        25.7638  -26.1101  -40.8010 H         1 UNK         0.0786 
     95 H95        22.0559  -27.5479  -39.8985 H         1 UNK         0.3172 
     96 H96        21.3989  -29.5874  -40.3051 H         1 UNK         0.0595 
     97 H97        22.0266  -30.1129  -37.9436 H         1 UNK         0.0839 
     98 H98        23.6409  -30.5920  -38.4680 H         1 UNK         0.0839 
     99 H99        22.2381  -31.5133  -38.9812 H         1 UNK         0.0839 
    100 H100       22.9637  -28.3504  -42.1653 H         1 UNK         0.2998 
    101 H101       25.3386  -29.5488  -42.9188 H         1 UNK         0.0822 
    102 H102       24.7104  -27.2858  -43.6139 H         1 UNK         0.0787 
    103 H103       25.0615  -28.2301  -45.0480 H         1 UNK         0.0787 
    104 H104       23.3901  -27.9010  -44.6135 H         1 UNK         0.0787 
    105 H105       22.1050  -30.4113  -44.1415 H         1 UNK         0.3055 
    106 H106       23.2822  -32.2491  -46.1535 H         1 UNK         0.1106 
    107 H107       21.0106  -32.3647  -47.0498 H         1 UNK         0.0828 
    108 H108       20.3595  -31.4782  -45.6870 H         1 UNK         0.0828 
    109 H109       21.4492  -30.6835  -46.8222 H         1 UNK         0.0828 
    110 H110       22.4754  -32.5494  -42.9077 H         1 UNK         0.2931 
    111 H111       21.2878  -35.2475  -43.1079 H         1 UNK         0.0412 
    112 H112       22.2733  -37.0967  -41.9258 H         1 UNK         0.3472 
    113 H113       24.0131  -37.1756  -41.8302 H         1 UNK         0.3472 
    114 H114       21.1622  -35.1125  -40.5979 H         1 UNK         0.0970 
    115 H115       21.8526  -33.5141  -40.6503 H         1 UNK         0.0970 
    116 H116       20.7681  -31.5128  -41.7192 H         1 UNK         0.0612 
    117 H117       20.0104  -31.6352  -40.1442 H         1 UNK         0.0612 
@<TRIPOS>BOND
     1    1    2 1    
     2    1   62 1    
     3    1   63 1    
     4    1   64 1    
     5    2    3 2    
     6    2    4 am   BACKBONE|DICT|INTERRES
     7    4    5 1    
     8    4   65 1    
     9    5    6 1    
    10    5   25 1    
    11    5   66 1    
    12    6    7 1    
    13    6   67 1    
    14    6   68 1    
    15    7    8 1    
    16    8    9 1    
    17    8   69 1    
    18    8   70 1    
    19    9   10 ar   
    20    9   14 ar   
    21   10   11 ar   
    22   10   71 1    
    23   11   12 ar   
    24   11   61 1    
    25   12   13 ar   
    26   12   72 1    
    27   13   14 ar   
    28   13   15 1    
    29   14   73 1    
    30   15   16 1    
    31   15   74 1    
    32   15   75 1    
    33   16   17 1    
    34   17   18 1    
    35   17   76 1    
    36   17   77 1    
    37   18   19 1    
    38   18   27 1    
    39   18   78 1    
    40   19   20 am   BACKBONE|DICT|INTERRES
    41   19   79 1    
    42   20   21 2    
    43   20   22 1    
    44   22   23 1    
    45   22   24 1    
    46   22   80 1    
    47   23   81 1    
    48   23   82 1    
    49   23   83 1    
    50   24   25 am   BACKBONE|DICT|INTERRES
    51   24   84 1    
    52   25   26 2    
    53   27   28 2    
    54   27   29 am   BACKBONE|DICT|INTERRES
    55   29   30 1    
    56   29   85 1    
    57   30   31 1    
    58   30   32 1    
    59   30   86 1    
    60   31   87 1    
    61   31   88 1    
    62   31   89 1    
    63   32   33 2    
    64   32   34 am   BACKBONE|DICT|INTERRES
    65   34   35 1    
    66   34   90 1    
    67   35   36 1    
    68   35   37 1    
    69   35   91 1    
    70   36   92 1    
    71   36   93 1    
    72   36   94 1    
    73   37   38 2    
    74   37   39 am   BACKBONE|DICT|INTERRES
    75   39   40 1    
    76   39   95 1    
    77   40   41 1    
    78   40   42 1    
    79   40   96 1    
    80   41   97 1    
    81   41   98 1    
    82   41   99 1    
    83   42   43 2    
    84   42   44 am   BACKBONE|DICT|INTERRES
    85   44   45 1    
    86   44  100 1    
    87   45   46 1    
    88   45   47 1    
    89   45  101 1    
    90   46  102 1    
    91   46  103 1    
    92   46  104 1    
    93   47   48 2    
    94   47   49 am   BACKBONE|DICT|INTERRES
    95   49   50 1    
    96   49  105 1    
    97   50   51 1    
    98   50   52 1    
    99   50  106 1    
   100   51  107 1    
   101   51  108 1    
   102   51  109 1    
   103   52   53 2    
   104   52   54 am   BACKBONE|DICT|INTERRES
   105   54   55 1    
   106   54  110 1    
   107   55   56 1    
   108   55   59 1    
   109   55  111 1    
   110   56   57 am   BACKBONE|DICT|INTERRES
   111   56   58 2    
   112   57  112 1    
   113   57  113 1    
   114   59   60 1    
   115   59  114 1    
   116   59  115 1    
   117   60   61 1    
   118   61  116 1    
   119   61  117 1    
@<TRIPOS>SUBSTRUCTURE
     1 UNK         1 GROUP             0       ****    0 ROOT    
