@<TRIPOS>MOLECULE
3R8
117   119    1
SMALL
USER_CHARGES


@<TRIPOS>ATOM
      1 CA         15.2064  -23.6633  -41.5402 C.3       0 UNK        -0.2013 
      2 C          15.5726  -23.9565  -42.9877 C.2       0 UNK         0.4866 
      3 O          14.9481  -23.4105  -43.8979 O.2       0 UNK        -0.5176 
      4 N          16.5805  -24.8083  -43.2004 N.am      1 UNK        -0.4884 
      5 CA         17.1162  -25.1849  -44.5099 C.3       1 UNK         0.0853 
      6 C6         16.8341  -26.6690  -44.8439 C.3       10 UNK        -0.0849 
      7 S7         15.0722  -27.0271  -45.1555 S.3       10 UNK        -0.2776 
      8 C8         14.7992  -28.5258  -44.1403 C.3       10 UNK         0.0316 
      9 C9         15.8496  -29.6249  -44.3200 C.ar      10 UNK        -0.0863 
     10 C10        16.2238  -30.3971  -43.2145 C.ar      10 UNK        -0.1009 
     11 C11        17.2095  -31.3824  -43.3291 C.ar      10 UNK        -0.0712 
     12 C12        17.8191  -31.5997  -44.5672 C.ar      10 UNK        -0.0894 
     13 C13        17.4935  -30.8028  -45.6676 C.ar      10 UNK        -0.0745 
     14 C14        16.4774  -29.8517  -45.5520 C.ar      10 UNK        -0.0972 
     15 C15        18.3147  -30.8978  -46.9465 C.3       10 UNK         0.0209 
     16 S16        19.4937  -29.5036  -47.1005 S.3       10 UNK        -0.2568 
     17 C17        20.3097  -29.5084  -45.4643 C.3       10 UNK        -0.0983 
     18 CA         21.3384  -28.3719  -45.2327 C.3       3 UNK         0.0876 
     19 N          20.8116  -27.0554  -45.6114 N.am      3 UNK        -0.4424 
     20 C          21.4686  -25.8881  -45.5284 C.2       2 UNK         0.4918 
     21 O          22.6388  -25.7849  -45.1617 O.2       2 UNK        -0.4875 
     22 CA         20.6750  -24.6137  -45.8771 C.3       2 UNK         0.0481 
     23 CB         20.9502  -24.1950  -47.3298 C.3       2 UNK        -0.1831 
     24 N          19.2259  -24.7407  -45.6719 N.am      2 UNK        -0.4498 
     25 C          18.6361  -24.9625  -44.4876 C.2       1 UNK         0.5027 
     26 O          19.2537  -25.0731  -43.4249 O.2       1 UNK        -0.4969 
     27 C          21.7919  -28.4180  -43.7573 C.2       3 UNK         0.5005 
     28 O          22.8055  -29.0461  -43.4490 O.2       3 UNK        -0.5279 
     29 N          21.0354  -27.7410  -42.8787 N.am      4 UNK        -0.4463 
     30 CA         21.2107  -27.7214  -41.4235 C.3       4 UNK         0.0283 
     31 CB         19.9161  -27.2059  -40.7725 C.3       4 UNK        -0.1875 
     32 C          22.4371  -26.9265  -40.9346 C.2       4 UNK         0.4949 
     33 O          22.6609  -26.8574  -39.7258 O.2       4 UNK        -0.5039 
     34 N          23.2226  -26.3547  -41.8593 N.am      5 UNK        -0.4663 
     35 CA         24.5331  -25.7605  -41.5849 C.3       5 UNK         0.0242 
     36 CB         25.0060  -24.9889  -42.8269 C.3       5 UNK        -0.1982 
     37 C          25.5868  -26.8030  -41.1609 C.2       5 UNK         0.5017 
     38 O          26.5430  -26.4384  -40.4753 O.2       5 UNK        -0.5012 
     39 N          25.3900  -28.0681  -41.5578 N.am      6 UNK        -0.4439 
     40 CA         26.1648  -29.2197  -41.1015 C.3       6 UNK         0.0297 
     41 CB         26.4798  -30.1197  -42.3054 C.3       6 UNK        -0.2006 
     42 C          25.3588  -29.9904  -40.0455 C.2       6 UNK         0.4892 
     43 O          24.1252  -29.9972  -40.0946 O.2       6 UNK        -0.5089 
     44 N          26.0753  -30.6386  -39.1170 N.am      7 UNK        -0.4243 
     45 CA         25.5104  -31.4409  -38.0286 C.3       7 UNK         0.0196 
     46 CB         26.6423  -31.9200  -37.1051 C.3       7 UNK        -0.2007 
     47 C          24.6974  -32.6341  -38.5574 C.2       7 UNK         0.5020 
     48 O          25.1945  -33.3759  -39.4067 O.2       7 UNK        -0.5147 
     49 N          23.4642  -32.7758  -38.0499 N.am      8 UNK        -0.4734 
     50 CA         22.4449  -33.7604  -38.4497 C.3       8 UNK         0.0238 
     51 CB         22.9015  -35.1967  -38.1122 C.3       8 UNK        -0.1912 
     52 C          21.9713  -33.6158  -39.9140 C.2       8 UNK         0.5038 
     53 O          21.4436  -34.5792  -40.4722 O.2       8 UNK        -0.5046 
     54 N          22.1453  -32.4137  -40.4820 N.am      9 UNK        -0.4200 
     55 CA         21.8867  -32.0144  -41.8718 C.3       9 UNK         0.0839 
     56 C          22.9203  -32.6053  -42.8684 C.2       9 UNK         0.5513 
     57 N          23.4531  -31.7798  -43.7563 N.am      9 UNK        -0.7519 
     58 O          23.2003  -33.8011  -42.8915 O.2       9 UNK        -0.4960 
     59 C59        20.4389  -32.2715  -42.3689 C.3       10 UNK        -0.0876 
     60 S60        19.1450  -31.4994  -41.3394 S.3       10 UNK        -0.2414 
     61 C61        17.6379  -32.1850  -42.1074 C.3       10 UNK         0.0169 
     62 H62        14.1690  -23.9397  -41.3530 H         1 UNK         0.0903 
     63 H63        15.3187  -22.5995  -41.3324 H         1 UNK         0.0903 
     64 H64        15.8348  -24.2139  -40.8402 H         1 UNK         0.0903 
     65 H65        17.1137  -25.1631  -42.4175 H         1 UNK         0.3096 
     66 H66        16.6954  -24.5500  -45.2932 H         1 UNK         0.1121 
     67 H67        17.3742  -26.9763  -45.7420 H         1 UNK         0.0849 
     68 H68        17.2053  -27.3060  -44.0383 H         1 UNK         0.0849 
     69 H69        14.7581  -28.2158  -43.0948 H         1 UNK         0.0865 
     70 H70        13.8175  -28.9371  -44.3780 H         1 UNK         0.0865 
     71 H71        15.7591  -30.2202  -42.2538 H         1 UNK         0.1346 
     72 H72        18.5903  -32.3501  -44.6624 H         1 UNK         0.1412 
     73 H73        16.2251  -29.2452  -46.4107 H         1 UNK         0.1426 
     74 H74        17.6503  -30.9027  -47.8116 H         1 UNK         0.0716 
     75 H75        18.8692  -31.8370  -46.9789 H         1 UNK         0.0716 
     76 H76        19.5283  -29.4393  -44.7058 H         1 UNK         0.0695 
     77 H77        20.7872  -30.4808  -45.3300 H         1 UNK         0.0695 
     78 H78        22.2153  -28.5623  -45.8551 H         1 UNK         0.0983 
     79 H79        19.8701  -27.0506  -45.9729 H         1 UNK         0.3095 
     80 H80        21.0331  -23.8183  -45.2201 H         1 UNK         0.0454 
     81 H81        22.0198  -24.0663  -47.5022 H         1 UNK         0.0851 
     82 H82        20.5939  -24.9409  -48.0414 H         1 UNK         0.0851 
     83 H83        20.4709  -23.2454  -47.5681 H         1 UNK         0.0851 
     84 H84        18.6494  -24.6703  -46.4991 H         1 UNK         0.2976 
     85 H85        20.2721  -27.1815  -43.2363 H         1 UNK         0.3116 
     86 H86        21.3596  -28.7520  -41.0954 H         1 UNK         0.0646 
     87 H87        19.9720  -27.2726  -39.6852 H         1 UNK         0.0847 
     88 H88        19.0520  -27.7930  -41.0849 H         1 UNK         0.0847 
     89 H89        19.7265  -26.1621  -41.0234 H         1 UNK         0.0847 
     90 H90        22.9567  -26.4371  -42.8320 H         1 UNK         0.3040 
     91 H91        24.4205  -25.0537  -40.7597 H         1 UNK         0.1015 
     92 H92        24.2964  -24.2089  -43.1040 H         1 UNK         0.0786 
     93 H93        25.1305  -25.6479  -43.6874 H         1 UNK         0.0786 
     94 H94        25.9660  -24.5042  -42.6442 H         1 UNK         0.0786 
     95 H95        24.5355  -28.2851  -42.0580 H         1 UNK         0.3172 
     96 H96        27.1080  -28.8946  -40.6573 H         1 UNK         0.0595 
     97 H97        25.5709  -30.4550  -42.8023 H         1 UNK         0.0839 
     98 H98        27.0325  -31.0092  -41.9998 H         1 UNK         0.0839 
     99 H99        27.0883  -29.5956  -43.0425 H         1 UNK         0.0839 
    100 H100       27.0828  -30.6093  -39.1758 H         1 UNK         0.2998 
    101 H101       24.8510  -30.7886  -37.4517 H         1 UNK         0.0822 
    102 H102       27.1907  -31.0802  -36.6779 H         1 UNK         0.0787 
    103 H103       26.2457  -32.5035  -36.2730 H         1 UNK         0.0787 
    104 H104       27.3550  -32.5532  -37.6356 H         1 UNK         0.0787 
    105 H105       23.1608  -32.1048  -37.3560 H         1 UNK         0.3055 
    106 H106       21.5650  -33.5486  -37.8398 H         1 UNK         0.1106 
    107 H107       23.7269  -35.5197  -38.7472 H         1 UNK         0.0828 
    108 H108       23.2235  -35.2786  -37.0742 H         1 UNK         0.0828 
    109 H109       22.0883  -35.9097  -38.2535 H         1 UNK         0.0828 
    110 H110       22.6325  -31.7106  -39.9412 H         1 UNK         0.2931 
    111 H111       22.0289  -30.9347  -41.8585 H         1 UNK         0.0412 
    112 H112       24.1064  -32.1364  -44.4350 H         1 UNK         0.3472 
    113 H113       23.2497  -30.7828  -43.7154 H         1 UNK         0.3472 
    114 H114       20.2413  -33.3418  -42.4474 H         1 UNK         0.0970 
    115 H115       20.3408  -31.8680  -43.3755 H         1 UNK         0.0970 
    116 H116       16.8401  -32.1834  -41.3633 H         1 UNK         0.0612 
    117 H117       17.7962  -33.2302  -42.3773 H         1 UNK         0.0612 
@<TRIPOS>BOND
     1    1    2 1    
     2    1   62 1    
     3    1   63 1    
     4    1   64 1    
     5    2    3 2    
     6    2    4 am   BACKBONE|DICT|INTERRES
     7    4    5 1    
     8    4   65 1    
     9    5    6 1    
    10    5   25 1    
    11    5   66 1    
    12    6    7 1    
    13    6   67 1    
    14    6   68 1    
    15    7    8 1    
    16    8    9 1    
    17    8   69 1    
    18    8   70 1    
    19    9   10 ar   
    20    9   14 ar   
    21   10   11 ar   
    22   10   71 1    
    23   11   12 ar   
    24   11   61 1    
    25   12   13 ar   
    26   12   72 1    
    27   13   14 ar   
    28   13   15 1    
    29   14   73 1    
    30   15   16 1    
    31   15   74 1    
    32   15   75 1    
    33   16   17 1    
    34   17   18 1    
    35   17   76 1    
    36   17   77 1    
    37   18   19 1    
    38   18   27 1    
    39   18   78 1    
    40   19   20 am   BACKBONE|DICT|INTERRES
    41   19   79 1    
    42   20   21 2    
    43   20   22 1    
    44   22   23 1    
    45   22   24 1    
    46   22   80 1    
    47   23   81 1    
    48   23   82 1    
    49   23   83 1    
    50   24   25 am   BACKBONE|DICT|INTERRES
    51   24   84 1    
    52   25   26 2    
    53   27   28 2    
    54   27   29 am   BACKBONE|DICT|INTERRES
    55   29   30 1    
    56   29   85 1    
    57   30   31 1    
    58   30   32 1    
    59   30   86 1    
    60   31   87 1    
    61   31   88 1    
    62   31   89 1    
    63   32   33 2    
    64   32   34 am   BACKBONE|DICT|INTERRES
    65   34   35 1    
    66   34   90 1    
    67   35   36 1    
    68   35   37 1    
    69   35   91 1    
    70   36   92 1    
    71   36   93 1    
    72   36   94 1    
    73   37   38 2    
    74   37   39 am   BACKBONE|DICT|INTERRES
    75   39   40 1    
    76   39   95 1    
    77   40   41 1    
    78   40   42 1    
    79   40   96 1    
    80   41   97 1    
    81   41   98 1    
    82   41   99 1    
    83   42   43 2    
    84   42   44 am   BACKBONE|DICT|INTERRES
    85   44   45 1    
    86   44  100 1    
    87   45   46 1    
    88   45   47 1    
    89   45  101 1    
    90   46  102 1    
    91   46  103 1    
    92   46  104 1    
    93   47   48 2    
    94   47   49 am   BACKBONE|DICT|INTERRES
    95   49   50 1    
    96   49  105 1    
    97   50   51 1    
    98   50   52 1    
    99   50  106 1    
   100   51  107 1    
   101   51  108 1    
   102   51  109 1    
   103   52   53 2    
   104   52   54 am   BACKBONE|DICT|INTERRES
   105   54   55 1    
   106   54  110 1    
   107   55   56 1    
   108   55   59 1    
   109   55  111 1    
   110   56   57 am   BACKBONE|DICT|INTERRES
   111   56   58 2    
   112   57  112 1    
   113   57  113 1    
   114   59   60 1    
   115   59  114 1    
   116   59  115 1    
   117   60   61 1    
   118   61  116 1    
   119   61  117 1    
@<TRIPOS>SUBSTRUCTURE
     1 UNK         1 GROUP             0       ****    0 ROOT    
