@<TRIPOS>MOLECULE
3R8
117   119    1
SMALL
USER_CHARGES


@<TRIPOS>ATOM
      1 CA         14.4334  -24.9808  -47.9320 C.3       0 UNK        -0.2013 
      2 C          14.7453  -24.9472  -46.4434 C.2       0 UNK         0.4866 
      3 O          14.3126  -24.0257  -45.7514 O.2       0 UNK        -0.5176 
      4 N          15.4942  -25.9453  -45.9519 N.am      1 UNK        -0.4884 
      5 CA         15.9214  -26.0996  -44.5528 C.3       1 UNK         0.0853 
      6 C6         14.7321  -26.3685  -43.5899 C.3       10 UNK        -0.0849 
      7 S7         15.1878  -27.2787  -42.0723 S.3       10 UNK        -0.2776 
      8 C8         15.3069  -29.0060  -42.6475 C.3       10 UNK         0.0316 
      9 C9         16.7470  -29.3907  -42.9609 C.ar      10 UNK        -0.0863 
     10 C10        17.6486  -29.6152  -41.9154 C.ar      10 UNK        -0.1009 
     11 C11        18.9750  -29.9659  -42.1815 C.ar      10 UNK        -0.0712 
     12 C12        19.3986  -30.0878  -43.5074 C.ar      10 UNK        -0.0894 
     13 C13        18.5147  -29.8455  -44.5635 C.ar      10 UNK        -0.0745 
     14 C14        17.1834  -29.5217  -44.2837 C.ar      10 UNK        -0.0972 
     15 C15        18.9972  -29.9280  -46.0063 C.3       10 UNK         0.0209 
     16 S16        19.4552  -28.2910  -46.6734 S.3       10 UNK        -0.2568 
     17 C17        21.0432  -27.9813  -45.8243 C.3       10 UNK        -0.0983 
     18 CA         21.4271  -26.4835  -45.6872 C.3       3 UNK         0.0876 
     19 N          20.3044  -25.6664  -45.2142 N.am      3 UNK        -0.4424 
     20 C          20.2446  -24.3272  -45.2467 C.2       2 UNK         0.4918 
     21 O          21.1757  -23.6135  -45.6208 O.2       2 UNK        -0.4875 
     22 CA         18.9124  -23.6866  -44.8116 C.3       2 UNK         0.0481 
     23 CB         18.6175  -22.3761  -45.5643 C.3       2 UNK        -0.1831 
     24 N          17.8044  -24.6218  -45.0195 N.am      2 UNK        -0.4498 
     25 C          16.8929  -24.9817  -44.1065 C.2       1 UNK         0.5027 
     26 O          16.8204  -24.4874  -42.9802 O.2       1 UNK        -0.4969 
     27 C          22.6675  -26.3753  -44.7762 C.2       3 UNK         0.5005 
     28 O          23.7873  -26.5736  -45.2515 O.2       3 UNK        -0.5279 
     29 N          22.4326  -26.1349  -43.4755 N.am      4 UNK        -0.4463 
     30 CA         23.3596  -26.2368  -42.3410 C.3       4 UNK         0.0283 
     31 CB         24.5695  -25.2896  -42.4745 C.3       4 UNK        -0.1875 
     32 C          23.7796  -27.6927  -42.0797 C.2       4 UNK         0.4949 
     33 O          23.4215  -28.2434  -41.0385 O.2       4 UNK        -0.5039 
     34 N          24.5008  -28.2908  -43.0413 N.am      5 UNK        -0.4663 
     35 CA         24.8847  -29.7081  -43.1362 C.3       5 UNK         0.0242 
     36 CB         23.6628  -30.5320  -43.5868 C.3       5 UNK        -0.1982 
     37 C          25.5415  -30.2731  -41.8600 C.2       5 UNK         0.5017 
     38 O          25.2415  -31.3998  -41.4576 O.2       5 UNK        -0.5012 
     39 N          26.3731  -29.4426  -41.2102 N.am      6 UNK        -0.4439 
     40 CA         27.0604  -29.6775  -39.9306 C.3       6 UNK         0.0297 
     41 CB         28.1624  -30.7432  -40.1110 C.3       6 UNK        -0.2006 
     42 C          26.1199  -30.0144  -38.7500 C.2       6 UNK         0.4892 
     43 O          26.5724  -30.6154  -37.7748 O.2       6 UNK        -0.5089 
     44 N          24.8291  -29.6604  -38.8736 N.am      7 UNK        -0.4243 
     45 CA         23.7025  -30.0434  -38.0118 C.3       7 UNK         0.0196 
     46 CB         23.8685  -29.4753  -36.5863 C.3       7 UNK        -0.2007 
     47 C          23.3927  -31.5577  -38.0106 C.2       7 UNK         0.5020 
     48 O          22.5986  -32.0057  -37.1826 O.2       7 UNK        -0.5147 
     49 N          23.9963  -32.3216  -38.9328 N.am      8 UNK        -0.4734 
     50 CA         23.7592  -33.7552  -39.1157 C.3       8 UNK         0.0238 
     51 CB         25.0484  -34.4177  -39.6282 C.3       8 UNK        -0.1912 
     52 C          22.5962  -34.0193  -40.0839 C.2       8 UNK         0.5038 
     53 O          21.9316  -35.0481  -39.9566 O.2       8 UNK        -0.5046 
     54 N          22.3747  -33.0863  -41.0207 N.am      9 UNK        -0.4200 
     55 CA         21.2931  -33.0926  -42.0212 C.3       9 UNK         0.0839 
     56 C          21.4182  -34.2000  -43.1104 C.2       9 UNK         0.5513 
     57 N          22.5873  -34.7968  -43.3102 N.am      9 UNK        -0.7519 
     58 O          20.4539  -34.5030  -43.8082 O.2       9 UNK        -0.4960 
     59 C59        19.8672  -33.0154  -41.3987 C.3       10 UNK        -0.0876 
     60 S60        19.6519  -31.7222  -40.1224 S.3       10 UNK        -0.2414 
     61 C61        19.9571  -30.1769  -41.0374 C.3       10 UNK         0.0169 
     62 H62        14.8745  -25.8478  -48.4236 H         1 UNK         0.0903 
     63 H63        13.3555  -25.0152  -48.0882 H         1 UNK         0.0903 
     64 H64        14.8191  -24.0840  -48.4161 H         1 UNK         0.0903 
     65 H65        15.8100  -26.6704  -46.5823 H         1 UNK         0.3096 
     66 H66        16.5408  -26.9925  -44.5565 H         1 UNK         0.1121 
     67 H67        14.2508  -25.4310  -43.3054 H         1 UNK         0.0849 
     68 H68        13.9593  -26.9453  -44.1004 H         1 UNK         0.0849 
     69 H69        14.9279  -29.6621  -41.8624 H         1 UNK         0.0865 
     70 H70        14.6595  -29.1670  -43.5108 H         1 UNK         0.0865 
     71 H71        17.3189  -29.5112  -40.8904 H         1 UNK         0.1346 
     72 H72        20.4244  -30.3524  -43.7197 H         1 UNK         0.1412 
     73 H73        16.4937  -29.3511  -45.0993 H         1 UNK         0.1426 
     74 H74        18.2090  -30.3525  -46.6301 H         1 UNK         0.0716 
     75 H75        19.8475  -30.6069  -46.0900 H         1 UNK         0.0716 
     76 H76        21.8230  -28.5209  -46.3655 H         1 UNK         0.0695 
     77 H77        20.9984  -28.4361  -44.8363 H         1 UNK         0.0695 
     78 H78        21.7132  -26.1114  -46.6736 H         1 UNK         0.0983 
     79 H79        19.4923  -26.1776  -44.9025 H         1 UNK         0.3095 
     80 H80        19.0171  -23.4556  -43.7499 H         1 UNK         0.0454 
     81 H81        19.3950  -21.6331  -45.3822 H         1 UNK         0.0851 
     82 H82        17.6730  -21.9387  -45.2402 H         1 UNK         0.0851 
     83 H83        18.5608  -22.5343  -46.6418 H         1 UNK         0.0851 
     84 H84        17.7601  -25.0580  -45.9308 H         1 UNK         0.2976 
     85 H85        21.4656  -25.9996  -43.2157 H         1 UNK         0.3116 
     86 H86        22.7935  -25.9119  -41.4663 H         1 UNK         0.0646 
     87 H87        25.2122  -25.5429  -43.3173 H         1 UNK         0.0847 
     88 H88        24.2468  -24.2565  -42.6030 H         1 UNK         0.0847 
     89 H89        25.1880  -25.3250  -41.5769 H         1 UNK         0.0847 
     90 H90        24.6823  -27.7312  -43.8703 H         1 UNK         0.3040 
     91 H91        25.6415  -29.7801  -43.9189 H         1 UNK         0.1015 
     92 H92        23.9123  -31.5865  -43.7134 H         1 UNK         0.0786 
     93 H93        23.2757  -30.1755  -44.5414 H         1 UNK         0.0786 
     94 H94        22.8604  -30.4625  -42.8553 H         1 UNK         0.0786 
     95 H95        26.5132  -28.5280  -41.6176 H         1 UNK         0.3172 
     96 H96        27.5465  -28.7367  -39.6686 H         1 UNK         0.0595 
     97 H97        27.7410  -31.7290  -40.3113 H         1 UNK         0.0839 
     98 H98        28.7783  -30.8296  -39.2149 H         1 UNK         0.0839 
     99 H99        28.8297  -30.4900  -40.9347 H         1 UNK         0.0839 
    100 H100       24.5533  -29.1663  -39.7186 H         1 UNK         0.2998 
    101 H101       22.8253  -29.5671  -38.4530 H         1 UNK         0.0822 
    102 H102       22.9583  -29.6148  -36.0018 H         1 UNK         0.0787 
    103 H103       24.0769  -28.4056  -36.6072 H         1 UNK         0.0787 
    104 H104       24.6774  -29.9657  -36.0443 H         1 UNK         0.0787 
    105 H105       24.6177  -31.8784  -39.6027 H         1 UNK         0.3055 
    106 H106       23.5007  -34.2080  -38.1556 H         1 UNK         0.1106 
    107 H107       25.8714  -34.2745  -38.9278 H         1 UNK         0.0828 
    108 H108       24.9117  -35.4929  -39.7522 H         1 UNK         0.0828 
    109 H109       25.3576  -34.0142  -40.5932 H         1 UNK         0.0828 
    110 H110       23.0095  -32.3016  -41.0598 H         1 UNK         0.2931 
    111 H111       21.4303  -32.1739  -42.5848 H         1 UNK         0.0412 
    112 H112       23.3892  -34.5509  -42.7525 H         1 UNK         0.3472 
    113 H113       22.6647  -35.5052  -44.0231 H         1 UNK         0.3472 
    114 H114       19.1212  -32.8470  -42.1776 H         1 UNK         0.0970 
    115 H115       19.6071  -33.9729  -40.9448 H         1 UNK         0.0970 
    116 H116       20.9872  -30.1618  -41.3938 H         1 UNK         0.0612 
    117 H117       19.8741  -29.3417  -40.3406 H         1 UNK         0.0612 
@<TRIPOS>BOND
     1    1    2 1    
     2    1   62 1    
     3    1   63 1    
     4    1   64 1    
     5    2    3 2    
     6    2    4 am   BACKBONE|DICT|INTERRES
     7    4    5 1    
     8    4   65 1    
     9    5    6 1    
    10    5   25 1    
    11    5   66 1    
    12    6    7 1    
    13    6   67 1    
    14    6   68 1    
    15    7    8 1    
    16    8    9 1    
    17    8   69 1    
    18    8   70 1    
    19    9   10 ar   
    20    9   14 ar   
    21   10   11 ar   
    22   10   71 1    
    23   11   12 ar   
    24   11   61 1    
    25   12   13 ar   
    26   12   72 1    
    27   13   14 ar   
    28   13   15 1    
    29   14   73 1    
    30   15   16 1    
    31   15   74 1    
    32   15   75 1    
    33   16   17 1    
    34   17   18 1    
    35   17   76 1    
    36   17   77 1    
    37   18   19 1    
    38   18   27 1    
    39   18   78 1    
    40   19   20 am   BACKBONE|DICT|INTERRES
    41   19   79 1    
    42   20   21 2    
    43   20   22 1    
    44   22   23 1    
    45   22   24 1    
    46   22   80 1    
    47   23   81 1    
    48   23   82 1    
    49   23   83 1    
    50   24   25 am   BACKBONE|DICT|INTERRES
    51   24   84 1    
    52   25   26 2    
    53   27   28 2    
    54   27   29 am   BACKBONE|DICT|INTERRES
    55   29   30 1    
    56   29   85 1    
    57   30   31 1    
    58   30   32 1    
    59   30   86 1    
    60   31   87 1    
    61   31   88 1    
    62   31   89 1    
    63   32   33 2    
    64   32   34 am   BACKBONE|DICT|INTERRES
    65   34   35 1    
    66   34   90 1    
    67   35   36 1    
    68   35   37 1    
    69   35   91 1    
    70   36   92 1    
    71   36   93 1    
    72   36   94 1    
    73   37   38 2    
    74   37   39 am   BACKBONE|DICT|INTERRES
    75   39   40 1    
    76   39   95 1    
    77   40   41 1    
    78   40   42 1    
    79   40   96 1    
    80   41   97 1    
    81   41   98 1    
    82   41   99 1    
    83   42   43 2    
    84   42   44 am   BACKBONE|DICT|INTERRES
    85   44   45 1    
    86   44  100 1    
    87   45   46 1    
    88   45   47 1    
    89   45  101 1    
    90   46  102 1    
    91   46  103 1    
    92   46  104 1    
    93   47   48 2    
    94   47   49 am   BACKBONE|DICT|INTERRES
    95   49   50 1    
    96   49  105 1    
    97   50   51 1    
    98   50   52 1    
    99   50  106 1    
   100   51  107 1    
   101   51  108 1    
   102   51  109 1    
   103   52   53 2    
   104   52   54 am   BACKBONE|DICT|INTERRES
   105   54   55 1    
   106   54  110 1    
   107   55   56 1    
   108   55   59 1    
   109   55  111 1    
   110   56   57 am   BACKBONE|DICT|INTERRES
   111   56   58 2    
   112   57  112 1    
   113   57  113 1    
   114   59   60 1    
   115   59  114 1    
   116   59  115 1    
   117   60   61 1    
   118   61  116 1    
   119   61  117 1    
@<TRIPOS>SUBSTRUCTURE
     1 UNK         1 GROUP             0       ****    0 ROOT    
