@<TRIPOS>MOLECULE
3R8
117   119    1
SMALL
USER_CHARGES


@<TRIPOS>ATOM
      1 CA         19.0848  -22.6492  -40.7582 C.3       0 UNK        -0.2013 
      2 C          19.5446  -23.8645  -41.5490 C.2       0 UNK         0.4866 
      3 O          20.6943  -24.2813  -41.3997 O.2       0 UNK        -0.5176 
      4 N          18.6501  -24.4284  -42.3761 N.am      1 UNK        -0.4884 
      5 CA         18.8634  -25.5966  -43.2432 C.3       1 UNK         0.0853 
      6 C6         19.1802  -26.8991  -42.4561 C.3       10 UNK        -0.0849 
      7 S7         17.8321  -27.4444  -41.3526 S.3       10 UNK        -0.2776 
      8 C8         16.7620  -28.4408  -42.4465 C.3       10 UNK         0.0316 
      9 C9         17.5088  -29.5475  -43.1820 C.ar      10 UNK        -0.0863 
     10 C10        17.8250  -30.7489  -42.5413 C.ar      10 UNK        -0.1009 
     11 C11        18.5023  -31.7603  -43.2303 C.ar      10 UNK        -0.0712 
     12 C12        18.8635  -31.5588  -44.5664 C.ar      10 UNK        -0.0894 
     13 C13        18.5702  -30.3584  -45.2203 C.ar      10 UNK        -0.0745 
     14 C14        17.8744  -29.3645  -44.5184 C.ar      10 UNK        -0.0972 
     15 C15        19.0522  -30.1833  -46.6637 C.3       10 UNK         0.0209 
     16 S16        18.6617  -28.5706  -47.4282 S.3       10 UNK        -0.2568 
     17 C17        20.0819  -28.3146  -48.5495 C.3       10 UNK        -0.0983 
     18 CA         21.2119  -27.4267  -47.9558 C.3       3 UNK         0.0876 
     19 N          20.6682  -26.2438  -47.2824 N.am      3 UNK        -0.4424 
     20 C          21.2902  -25.0691  -47.1344 C.2       2 UNK         0.4918 
     21 O          22.4099  -24.8271  -47.5856 O.2       2 UNK        -0.4875 
     22 CA         20.5407  -23.9753  -46.3397 C.3       2 UNK         0.0481 
     23 CB         19.7873  -23.0442  -47.3029 C.3       2 UNK        -0.1831 
     24 N          19.6090  -24.4573  -45.3042 N.am      2 UNK        -0.4498 
     25 C          19.9383  -25.2945  -44.3092 C.2       1 UNK         0.5027 
     26 O          21.0501  -25.8058  -44.2180 O.2       1 UNK        -0.4969 
     27 C          22.1888  -28.2524  -47.0843 C.2       3 UNK         0.5005 
     28 O          22.9420  -29.0493  -47.6473 O.2       3 UNK        -0.5279 
     29 N          22.1744  -28.0816  -45.7546 N.am      4 UNK        -0.4463 
     30 CA         22.9870  -28.8357  -44.7964 C.3       4 UNK         0.0283 
     31 CB         22.4606  -30.2792  -44.6448 C.3       4 UNK        -0.1875 
     32 C          22.9478  -28.0755  -43.4686 C.2       4 UNK         0.4949 
     33 O          22.0631  -28.3370  -42.6545 O.2       4 UNK        -0.5039 
     34 N          23.8439  -27.0867  -43.3307 N.am      5 UNK        -0.4663 
     35 CA         23.8436  -26.0456  -42.2934 C.3       5 UNK         0.0242 
     36 CB         25.1492  -25.2381  -42.3880 C.3       5 UNK        -0.1982 
     37 C          23.6278  -26.5710  -40.8626 C.2       5 UNK         0.5017 
     38 O          24.4532  -27.3421  -40.3688 O.2       5 UNK        -0.5012 
     39 N          22.5202  -26.1377  -40.2433 N.am      6 UNK        -0.4439 
     40 CA         22.0358  -26.5106  -38.9092 C.3       6 UNK         0.0297 
     41 CB         23.0140  -26.0357  -37.8131 C.3       6 UNK        -0.2006 
     42 C          21.6470  -27.9981  -38.7576 C.2       6 UNK         0.4892 
     43 O          21.6023  -28.4899  -37.6282 O.2       6 UNK        -0.5089 
     44 N          21.3396  -28.6745  -39.8753 N.am      7 UNK        -0.4243 
     45 CA         20.9422  -30.0800  -39.9861 C.3       7 UNK         0.0196 
     46 CB         19.5807  -30.3380  -39.2979 C.3       7 UNK        -0.2007 
     47 C          22.0739  -31.0205  -39.5341 C.2       7 UNK         0.5020 
     48 O          23.1143  -31.0581  -40.1918 O.2       7 UNK        -0.5147 
     49 N          21.8419  -31.7792  -38.4498 N.am      8 UNK        -0.4734 
     50 CA         22.7068  -32.8369  -37.9018 C.3       8 UNK         0.0238 
     51 CB         24.0265  -32.2480  -37.3578 C.3       8 UNK        -0.1912 
     52 C          22.9254  -33.9926  -38.9008 C.2       8 UNK         0.5038 
     53 O          24.0205  -34.5533  -38.9756 O.2       8 UNK        -0.5046 
     54 N          21.8690  -34.3073  -39.6611 N.am      9 UNK        -0.4200 
     55 CA         21.8613  -35.2839  -40.7603 C.3       9 UNK         0.0839 
     56 C          21.9121  -36.7754  -40.3176 C.2       9 UNK         0.5513 
     57 N          21.7454  -37.1003  -39.0411 N.am      9 UNK        -0.7519 
     58 O          22.1099  -37.6551  -41.1518 O.2       9 UNK        -0.4960 
     59 C59        20.6751  -35.0338  -41.7298 C.3       10 UNK        -0.0876 
     60 S60        20.6260  -33.3255  -42.3769 S.3       10 UNK        -0.2414 
     61 C61        18.8306  -33.0801  -42.5467 C.3       10 UNK         0.0169 
     62 H62        18.0485  -22.3887  -40.9725 H         1 UNK         0.0903 
     63 H63        19.1714  -22.8445  -39.6897 H         1 UNK         0.0903 
     64 H64        19.7083  -21.7886  -40.9988 H         1 UNK         0.0903 
     65 H65        17.7266  -24.0217  -42.4338 H         1 UNK         0.3096 
     66 H66        17.9318  -25.7638  -43.7861 H         1 UNK         0.1121 
     67 H67        19.4475  -27.7104  -43.1321 H         1 UNK         0.0849 
     68 H68        20.0652  -26.7595  -41.8360 H         1 UNK         0.0849 
     69 H69        15.9641  -28.8813  -41.8469 H         1 UNK         0.0865 
     70 H70        16.2671  -27.7770  -43.1570 H         1 UNK         0.0865 
     71 H71        17.5399  -30.8946  -41.5086 H         1 UNK         0.1346 
     72 H72        19.3961  -32.3390  -45.0935 H         1 UNK         0.1412 
     73 H73        17.6239  -28.4277  -44.9927 H         1 UNK         0.1426 
     74 H74        18.6228  -30.9711  -47.2841 H         1 UNK         0.0716 
     75 H75        20.1320  -30.3333  -46.6781 H         1 UNK         0.0716 
     76 H76        19.6882  -27.8249  -49.4414 H         1 UNK         0.0695 
     77 H77        20.4619  -29.2769  -48.8991 H         1 UNK         0.0695 
     78 H78        21.8110  -27.0751  -48.7992 H         1 UNK         0.0983 
     79 H79        19.7439  -26.3563  -46.8919 H         1 UNK         0.3095 
     80 H80        21.3008  -23.3828  -45.8266 H         1 UNK         0.0454 
     81 H81        20.4569  -22.6473  -48.0675 H         1 UNK         0.0851 
     82 H82        19.3589  -22.1900  -46.7786 H         1 UNK         0.0851 
     83 H83        18.9787  -23.5647  -47.8175 H         1 UNK         0.0851 
     84 H84        18.6803  -24.0599  -45.3151 H         1 UNK         0.2976 
     85 H85        21.5943  -27.3531  -45.3445 H         1 UNK         0.3116 
     86 H86        24.0204  -28.8729  -45.1473 H         1 UNK         0.0646 
     87 H87        21.4158  -30.2935  -44.3340 H         1 UNK         0.0847 
     88 H88        22.5424  -30.8411  -45.5746 H         1 UNK         0.0847 
     89 H89        23.0274  -30.8217  -43.8871 H         1 UNK         0.0847 
     90 H90        24.5177  -26.9620  -44.0719 H         1 UNK         0.3040 
     91 H91        23.0216  -25.3686  -42.5343 H         1 UNK         0.1015 
     92 H92        25.1743  -24.4482  -41.6359 H         1 UNK         0.0786 
     93 H93        25.2519  -24.7589  -43.3617 H         1 UNK         0.0786 
     94 H94        26.0246  -25.8689  -42.2277 H         1 UNK         0.0786 
     95 H95        21.9055  -25.5002  -40.7522 H         1 UNK         0.3172 
     96 H96        21.1071  -25.9537  -38.7767 H         1 UNK         0.0595 
     97 H97        23.9457  -26.6018  -37.8292 H         1 UNK         0.0839 
     98 H98        22.5795  -26.1575  -36.8202 H         1 UNK         0.0839 
     99 H99        23.2592  -24.9800  -37.9289 H         1 UNK         0.0839 
    100 H100       21.5046  -28.2221  -40.7708 H         1 UNK         0.2998 
    101 H101       20.8038  -30.2674  -41.0527 H         1 UNK         0.0822 
    102 H102       19.2470  -31.3635  -39.4617 H         1 UNK         0.0787 
    103 H103       18.8104  -29.6867  -39.7078 H         1 UNK         0.0787 
    104 H104       19.6125  -30.1629  -38.2224 H         1 UNK         0.0787 
    105 H105       20.9627  -31.6395  -37.9707 H         1 UNK         0.3055 
    106 H106       22.1700  -33.2698  -37.0561 H         1 UNK         0.1106 
    107 H107       23.8385  -31.4350  -36.6565 H         1 UNK         0.0828 
    108 H108       24.6034  -33.0065  -36.8273 H         1 UNK         0.0828 
    109 H109       24.6592  -31.8610  -38.1571 H         1 UNK         0.0828 
    110 H110       21.0169  -33.7836  -39.5339 H         1 UNK         0.2931 
    111 H111       22.7780  -35.1175  -41.3297 H         1 UNK         0.0412 
    112 H112       21.7841  -38.0701  -38.7682 H         1 UNK         0.3472 
    113 H113       21.5869  -36.3865  -38.3484 H         1 UNK         0.3472 
    114 H114       20.7321  -35.7094  -42.5856 H         1 UNK         0.0970 
    115 H115       19.7312  -35.2584  -41.2294 H         1 UNK         0.0970 
    116 H116       18.4084  -33.8982  -43.1321 H         1 UNK         0.0612 
    117 H117       18.3692  -33.1299  -41.5592 H         1 UNK         0.0612 
@<TRIPOS>BOND
     1    1    2 1    
     2    1   62 1    
     3    1   63 1    
     4    1   64 1    
     5    2    3 2    
     6    2    4 am   BACKBONE|DICT|INTERRES
     7    4    5 1    
     8    4   65 1    
     9    5    6 1    
    10    5   25 1    
    11    5   66 1    
    12    6    7 1    
    13    6   67 1    
    14    6   68 1    
    15    7    8 1    
    16    8    9 1    
    17    8   69 1    
    18    8   70 1    
    19    9   10 ar   
    20    9   14 ar   
    21   10   11 ar   
    22   10   71 1    
    23   11   12 ar   
    24   11   61 1    
    25   12   13 ar   
    26   12   72 1    
    27   13   14 ar   
    28   13   15 1    
    29   14   73 1    
    30   15   16 1    
    31   15   74 1    
    32   15   75 1    
    33   16   17 1    
    34   17   18 1    
    35   17   76 1    
    36   17   77 1    
    37   18   19 1    
    38   18   27 1    
    39   18   78 1    
    40   19   20 am   BACKBONE|DICT|INTERRES
    41   19   79 1    
    42   20   21 2    
    43   20   22 1    
    44   22   23 1    
    45   22   24 1    
    46   22   80 1    
    47   23   81 1    
    48   23   82 1    
    49   23   83 1    
    50   24   25 am   BACKBONE|DICT|INTERRES
    51   24   84 1    
    52   25   26 2    
    53   27   28 2    
    54   27   29 am   BACKBONE|DICT|INTERRES
    55   29   30 1    
    56   29   85 1    
    57   30   31 1    
    58   30   32 1    
    59   30   86 1    
    60   31   87 1    
    61   31   88 1    
    62   31   89 1    
    63   32   33 2    
    64   32   34 am   BACKBONE|DICT|INTERRES
    65   34   35 1    
    66   34   90 1    
    67   35   36 1    
    68   35   37 1    
    69   35   91 1    
    70   36   92 1    
    71   36   93 1    
    72   36   94 1    
    73   37   38 2    
    74   37   39 am   BACKBONE|DICT|INTERRES
    75   39   40 1    
    76   39   95 1    
    77   40   41 1    
    78   40   42 1    
    79   40   96 1    
    80   41   97 1    
    81   41   98 1    
    82   41   99 1    
    83   42   43 2    
    84   42   44 am   BACKBONE|DICT|INTERRES
    85   44   45 1    
    86   44  100 1    
    87   45   46 1    
    88   45   47 1    
    89   45  101 1    
    90   46  102 1    
    91   46  103 1    
    92   46  104 1    
    93   47   48 2    
    94   47   49 am   BACKBONE|DICT|INTERRES
    95   49   50 1    
    96   49  105 1    
    97   50   51 1    
    98   50   52 1    
    99   50  106 1    
   100   51  107 1    
   101   51  108 1    
   102   51  109 1    
   103   52   53 2    
   104   52   54 am   BACKBONE|DICT|INTERRES
   105   54   55 1    
   106   54  110 1    
   107   55   56 1    
   108   55   59 1    
   109   55  111 1    
   110   56   57 am   BACKBONE|DICT|INTERRES
   111   56   58 2    
   112   57  112 1    
   113   57  113 1    
   114   59   60 1    
   115   59  114 1    
   116   59  115 1    
   117   60   61 1    
   118   61  116 1    
   119   61  117 1    
@<TRIPOS>SUBSTRUCTURE
     1 UNK         1 GROUP             0       ****    0 ROOT    
