@<TRIPOS>MOLECULE
3R8
117   119    1
SMALL
USER_CHARGES


@<TRIPOS>ATOM
      1 CA         21.9891  -22.4409  -48.3918 C.3       0 UNK        -0.2013 
      2 C          21.4173  -23.5160  -47.4803 C.2       0 UNK         0.4866 
      3 O          20.5165  -24.2480  -47.8922 O.2       0 UNK        -0.5176 
      4 N          21.9280  -23.6089  -46.2437 N.am      1 UNK        -0.4884 
      5 CA         21.5545  -24.5476  -45.1744 C.3       1 UNK         0.0853 
      6 C6         21.7360  -26.0406  -45.5722 C.3       10 UNK        -0.0849 
      7 S7         21.4491  -27.2224  -44.2082 S.3       10 UNK        -0.2776 
      8 C8         21.4419  -28.8006  -45.1189 C.3       10 UNK         0.0316 
      9 C9         20.4780  -29.7870  -44.4797 C.ar      10 UNK        -0.0863 
     10 C10        20.9439  -30.7911  -43.6274 C.ar      10 UNK        -0.1009 
     11 C11        20.0511  -31.6816  -43.0244 C.ar      10 UNK        -0.0712 
     12 C12        18.6799  -31.5468  -43.2655 C.ar      10 UNK        -0.0894 
     13 C13        18.1972  -30.5471  -44.1166 C.ar      10 UNK        -0.0745 
     14 C14        19.1095  -29.6898  -44.7431 C.ar      10 UNK        -0.0972 
     15 C15        16.6936  -30.4335  -44.3652 C.3       10 UNK         0.0209 
     16 S16        16.0851  -28.7215  -44.5600 S.3       10 UNK        -0.2568 
     17 C17        16.3479  -28.0104  -42.8965 C.3       10 UNK        -0.0983 
     18 CA         17.6603  -27.1833  -42.7737 C.3       3 UNK         0.0876 
     19 N          17.8577  -26.2024  -43.8510 N.am      3 UNK        -0.4424 
     20 C          17.1184  -25.1129  -44.1084 C.2       2 UNK         0.4918 
     21 O          16.0541  -24.8593  -43.5433 O.2       2 UNK        -0.4875 
     22 CA         17.6937  -24.1076  -45.1321 C.3       2 UNK         0.0481 
     23 CB         17.4208  -22.6485  -44.7118 C.3       2 UNK        -0.1831 
     24 N          19.1246  -24.2856  -45.4284 N.am      2 UNK        -0.4498 
     25 C          20.1618  -24.2560  -44.5772 C.2       1 UNK         0.5027 
     26 O          20.0519  -24.0667  -43.3626 O.2       1 UNK        -0.4969 
     27 C          17.8486  -26.5670  -41.3638 C.2       3 UNK         0.5005 
     28 O          17.4578  -27.1869  -40.3731 O.2       3 UNK        -0.5279 
     29 N          18.4515  -25.3702  -41.2909 N.am      4 UNK        -0.4463 
     30 CA         18.7162  -24.6209  -40.0649 C.3       4 UNK         0.0283 
     31 CB         18.3845  -23.1372  -40.2955 C.3       4 UNK        -0.1875 
     32 C          20.1777  -24.7859  -39.6334 C.2       4 UNK         0.4949 
     33 O          20.4342  -24.9732  -38.4442 O.2       4 UNK        -0.5039 
     34 N          21.1088  -24.7328  -40.5994 N.am      5 UNK        -0.4663 
     35 CA         22.5391  -24.9654  -40.3631 C.3       5 UNK         0.0242 
     36 CB         23.3498  -24.4702  -41.5704 C.3       5 UNK        -0.1982 
     37 C          22.8527  -26.4456  -40.0840 C.2       5 UNK         0.5017 
     38 O          23.7489  -26.7336  -39.2894 O.2       5 UNK        -0.5012 
     39 N          22.0905  -27.3356  -40.7369 N.am      6 UNK        -0.4439 
     40 CA         22.1721  -28.7980  -40.7025 C.3       6 UNK         0.0297 
     41 CB         21.8934  -29.3295  -39.2784 C.3       6 UNK        -0.2006 
     42 C          23.4802  -29.3511  -41.3074 C.2       6 UNK         0.4892 
     43 O          24.2656  -28.6128  -41.9061 O.2       6 UNK        -0.5089 
     44 N          23.6619  -30.6665  -41.1707 N.am      7 UNK        -0.4243 
     45 CA         24.7873  -31.4610  -41.6502 C.3       7 UNK         0.0196 
     46 CB         24.7092  -31.6480  -43.1804 C.3       7 UNK        -0.2007 
     47 C          24.7306  -32.8105  -40.9231 C.2       7 UNK         0.5020 
     48 O          23.7977  -33.0533  -40.1499 O.2       7 UNK        -0.5147 
     49 N          25.6981  -33.6901  -41.2064 N.am      8 UNK        -0.4734 
     50 CA         25.7779  -35.0595  -40.6828 C.3       8 UNK         0.0238 
     51 CB         27.2333  -35.5519  -40.7994 C.3       8 UNK        -0.1912 
     52 C          24.7701  -36.0158  -41.3598 C.2       8 UNK         0.5038 
     53 O          25.1668  -37.0510  -41.8993 O.2       8 UNK        -0.5046 
     54 N          23.4869  -35.6391  -41.3347 N.am      9 UNK        -0.4200 
     55 CA         22.3479  -36.4233  -41.8268 C.3       9 UNK         0.0839 
     56 C          22.1225  -37.7151  -40.9945 C.2       9 UNK         0.5513 
     57 N          21.6899  -38.7944  -41.6315 N.am      9 UNK        -0.7519 
     58 O          22.2923  -37.7341  -39.7767 O.2       9 UNK        -0.4960 
     59 C59        21.0535  -35.5704  -41.8691 C.3       10 UNK        -0.0876 
     60 S60        21.1389  -34.2160  -43.0912 S.3       10 UNK        -0.2414 
     61 C61        20.5611  -32.7918  -42.1165 C.3       10 UNK         0.0169 
     62 H62        22.7784  -21.8684  -47.9050 H         1 UNK         0.0903 
     63 H63        22.4052  -22.8950  -49.2907 H         1 UNK         0.0903 
     64 H64        21.2036  -21.7482  -48.6926 H         1 UNK         0.0903 
     65 H65        22.6466  -22.9477  -45.9795 H         1 UNK         0.3096 
     66 H66        22.2657  -24.3438  -44.3747 H         1 UNK         0.1121 
     67 H67        22.7485  -26.1992  -45.9465 H         1 UNK         0.0849 
     68 H68        21.0681  -26.2991  -46.3950 H         1 UNK         0.0849 
     69 H69        21.1528  -28.6424  -46.1589 H         1 UNK         0.0865 
     70 H70        22.4550  -29.2056  -45.1413 H         1 UNK         0.0865 
     71 H71        22.0020  -30.8827  -43.4373 H         1 UNK         0.1346 
     72 H72        17.9866  -32.2310  -42.7953 H         1 UNK         0.1412 
     73 H73        18.7538  -28.9223  -45.4166 H         1 UNK         0.1426 
     74 H74        16.1347  -30.9085  -43.5573 H         1 UNK         0.0716 
     75 H75        16.4547  -30.9893  -45.2726 H         1 UNK         0.0716 
     76 H76        15.4846  -27.3849  -42.6641 H         1 UNK         0.0695 
     77 H77        16.3370  -28.8204  -42.1650 H         1 UNK         0.0695 
     78 H78        18.4909  -27.8823  -42.8630 H         1 UNK         0.0983 
     79 H79        18.7069  -26.3178  -44.3847 H         1 UNK         0.3095 
     80 H80        17.1652  -24.2910  -46.0684 H         1 UNK         0.0454 
     81 H81        16.3506  -22.4563  -44.6265 H         1 UNK         0.0851 
     82 H82        17.8151  -21.9442  -45.4441 H         1 UNK         0.0851 
     83 H83        17.8702  -22.4150  -43.7460 H         1 UNK         0.0851 
     84 H84        19.3605  -24.4279  -46.4089 H         1 UNK         0.2976 
     85 H85        18.7801  -24.9430  -42.1514 H         1 UNK         0.3116 
     86 H86        18.0798  -24.9874  -39.2565 H         1 UNK         0.0646 
     87 H87        17.3366  -23.0048  -40.5653 H         1 UNK         0.0847 
     88 H88        18.9906  -22.7018  -41.0912 H         1 UNK         0.0847 
     89 H89        18.5631  -22.5529  -39.3919 H         1 UNK         0.0847 
     90 H90        20.8200  -24.5287  -41.5506 H         1 UNK         0.3040 
     91 H91        22.8397  -24.3865  -39.4867 H         1 UNK         0.1015 
     92 H92        24.4181  -24.4927  -41.3511 H         1 UNK         0.0786 
     93 H93        23.0933  -23.4445  -41.8362 H         1 UNK         0.0786 
     94 H94        23.1905  -25.1025  -42.4437 H         1 UNK         0.0786 
     95 H95        21.4318  -26.9599  -41.4034 H         1 UNK         0.3172 
     96 H96        21.3642  -29.1456  -41.3471 H         1 UNK         0.0595 
     97 H97        21.7106  -30.4044  -39.2789 H         1 UNK         0.0839 
     98 H98        21.0078  -28.8603  -38.8489 H         1 UNK         0.0839 
     99 H99        22.7295  -29.1405  -38.6041 H         1 UNK         0.0839 
    100 H100       23.0136  -31.2072  -40.6103 H         1 UNK         0.2998 
    101 H101       25.7171  -30.9563  -41.3800 H         1 UNK         0.0822 
    102 H102       24.6197  -30.6949  -43.7017 H         1 UNK         0.0787 
    103 H103       25.6072  -32.1332  -43.5638 H         1 UNK         0.0787 
    104 H104       23.8601  -32.2697  -43.4677 H         1 UNK         0.0787 
    105 H105       26.4072  -33.4271  -41.8763 H         1 UNK         0.3055 
    106 H106       25.5221  -35.0396  -39.6206 H         1 UNK         0.1106 
    107 H107       27.9191  -34.8961  -40.2627 H         1 UNK         0.0828 
    108 H108       27.3445  -36.5495  -40.3721 H         1 UNK         0.0828 
    109 H109       27.5609  -35.6037  -41.8384 H         1 UNK         0.0828 
    110 H110       23.2686  -34.7635  -40.8706 H         1 UNK         0.2931 
    111 H111       22.5873  -36.7260  -42.8486 H         1 UNK         0.0412 
    112 H112       21.5383  -38.7853  -42.6287 H         1 UNK         0.3472 
    113 H113       21.5215  -39.6395  -41.1076 H         1 UNK         0.3472 
    114 H114       20.1960  -36.1894  -42.1405 H         1 UNK         0.0970 
    115 H115       20.8332  -35.1710  -40.8773 H         1 UNK         0.0970 
    116 H116       19.7668  -33.1084  -41.4387 H         1 UNK         0.0612 
    117 H117       21.3752  -32.4267  -41.4906 H         1 UNK         0.0612 
@<TRIPOS>BOND
     1    1    2 1    
     2    1   62 1    
     3    1   63 1    
     4    1   64 1    
     5    2    3 2    
     6    2    4 am   BACKBONE|DICT|INTERRES
     7    4    5 1    
     8    4   65 1    
     9    5    6 1    
    10    5   25 1    
    11    5   66 1    
    12    6    7 1    
    13    6   67 1    
    14    6   68 1    
    15    7    8 1    
    16    8    9 1    
    17    8   69 1    
    18    8   70 1    
    19    9   10 ar   
    20    9   14 ar   
    21   10   11 ar   
    22   10   71 1    
    23   11   12 ar   
    24   11   61 1    
    25   12   13 ar   
    26   12   72 1    
    27   13   14 ar   
    28   13   15 1    
    29   14   73 1    
    30   15   16 1    
    31   15   74 1    
    32   15   75 1    
    33   16   17 1    
    34   17   18 1    
    35   17   76 1    
    36   17   77 1    
    37   18   19 1    
    38   18   27 1    
    39   18   78 1    
    40   19   20 am   BACKBONE|DICT|INTERRES
    41   19   79 1    
    42   20   21 2    
    43   20   22 1    
    44   22   23 1    
    45   22   24 1    
    46   22   80 1    
    47   23   81 1    
    48   23   82 1    
    49   23   83 1    
    50   24   25 am   BACKBONE|DICT|INTERRES
    51   24   84 1    
    52   25   26 2    
    53   27   28 2    
    54   27   29 am   BACKBONE|DICT|INTERRES
    55   29   30 1    
    56   29   85 1    
    57   30   31 1    
    58   30   32 1    
    59   30   86 1    
    60   31   87 1    
    61   31   88 1    
    62   31   89 1    
    63   32   33 2    
    64   32   34 am   BACKBONE|DICT|INTERRES
    65   34   35 1    
    66   34   90 1    
    67   35   36 1    
    68   35   37 1    
    69   35   91 1    
    70   36   92 1    
    71   36   93 1    
    72   36   94 1    
    73   37   38 2    
    74   37   39 am   BACKBONE|DICT|INTERRES
    75   39   40 1    
    76   39   95 1    
    77   40   41 1    
    78   40   42 1    
    79   40   96 1    
    80   41   97 1    
    81   41   98 1    
    82   41   99 1    
    83   42   43 2    
    84   42   44 am   BACKBONE|DICT|INTERRES
    85   44   45 1    
    86   44  100 1    
    87   45   46 1    
    88   45   47 1    
    89   45  101 1    
    90   46  102 1    
    91   46  103 1    
    92   46  104 1    
    93   47   48 2    
    94   47   49 am   BACKBONE|DICT|INTERRES
    95   49   50 1    
    96   49  105 1    
    97   50   51 1    
    98   50   52 1    
    99   50  106 1    
   100   51  107 1    
   101   51  108 1    
   102   51  109 1    
   103   52   53 2    
   104   52   54 am   BACKBONE|DICT|INTERRES
   105   54   55 1    
   106   54  110 1    
   107   55   56 1    
   108   55   59 1    
   109   55  111 1    
   110   56   57 am   BACKBONE|DICT|INTERRES
   111   56   58 2    
   112   57  112 1    
   113   57  113 1    
   114   59   60 1    
   115   59  114 1    
   116   59  115 1    
   117   60   61 1    
   118   61  116 1    
   119   61  117 1    
@<TRIPOS>SUBSTRUCTURE
     1 UNK         1 GROUP             0       ****    0 ROOT    
