@<TRIPOS>MOLECULE
3R8
117   119    1
SMALL
USER_CHARGES


@<TRIPOS>ATOM
      1 CA         16.5483  -24.7057  -42.9824 C.3       0 UNK        -0.2013 
      2 C          17.4129  -25.0455  -44.1869 C.2       0 UNK         0.4866 
      3 O          17.8294  -24.1388  -44.9082 O.2       0 UNK        -0.5176 
      4 N          17.6683  -26.3405  -44.4137 N.am      1 UNK        -0.4884 
      5 CA         18.4483  -26.8558  -45.5444 C.3       1 UNK         0.0853 
      6 C6         17.7812  -28.0814  -46.2378 C.3       10 UNK        -0.0849 
      7 S7         15.9950  -27.8172  -46.5637 S.3       10 UNK        -0.2776 
      8 C8         15.1262  -29.1853  -45.7065 C.3       10 UNK         0.0316 
      9 C9         15.8157  -29.6696  -44.4362 C.ar      10 UNK        -0.0863 
     10 C10        16.4726  -30.9026  -44.4365 C.ar      10 UNK        -0.1009 
     11 C11        17.1703  -31.3430  -43.3088 C.ar      10 UNK        -0.0712 
     12 C12        17.1866  -30.5465  -42.1594 C.ar      10 UNK        -0.0894 
     13 C13        16.5057  -29.3241  -42.1345 C.ar      10 UNK        -0.0745 
     14 C14        15.8182  -28.8921  -43.2748 C.ar      10 UNK        -0.0972 
     15 C15        16.4860  -28.4785  -40.8703 C.3       10 UNK         0.0209 
     16 S16        17.8066  -27.2280  -40.8724 S.3       10 UNK        -0.2568 
     17 C17        19.1894  -28.1054  -40.0615 C.3       10 UNK        -0.0983 
     18 CA         20.5750  -27.8227  -40.6930 C.3       3 UNK         0.0876 
     19 N          20.6394  -28.2577  -42.0892 N.am      3 UNK        -0.4424 
     20 C          21.7523  -28.3024  -42.8349 C.2       2 UNK         0.4918 
     21 O          22.8632  -27.9576  -42.4306 O.2       2 UNK        -0.4875 
     22 CA         21.5839  -28.7636  -44.2933 C.3       2 UNK         0.0481 
     23 CB         21.7499  -30.2887  -44.3810 C.3       2 UNK        -0.1831 
     24 N          20.2919  -28.3723  -44.8740 N.am      2 UNK        -0.4498 
     25 C          19.8843  -27.1027  -45.0389 C.2       1 UNK         0.5027 
     26 O          20.5900  -26.1337  -44.7544 O.2       1 UNK        -0.4969 
     27 C          21.0243  -26.3584  -40.4857 C.2       3 UNK         0.5005 
     28 O          21.6059  -26.0528  -39.4443 O.2       3 UNK        -0.5279 
     29 N          20.8124  -25.4922  -41.4905 N.am      4 UNK        -0.4463 
     30 CA         21.2655  -24.0965  -41.4919 C.3       4 UNK         0.0283 
     31 CB         20.5754  -23.3289  -42.6297 C.3       4 UNK        -0.1875 
     32 C          22.7956  -23.9560  -41.5940 C.2       4 UNK         0.4949 
     33 O          23.3391  -22.9518  -41.1351 O.2       4 UNK        -0.5039 
     34 N          23.4628  -24.9711  -42.1593 N.am      5 UNK        -0.4663 
     35 CA         24.9213  -25.0985  -42.2088 C.3       5 UNK         0.0242 
     36 CB         25.3116  -25.7305  -43.5572 C.3       5 UNK        -0.1982 
     37 C          25.4723  -25.9291  -41.0321 C.2       5 UNK         0.5017 
     38 O          26.6761  -26.1869  -41.0005 O.2       5 UNK        -0.5012 
     39 N          24.5939  -26.3492  -40.1057 N.am      6 UNK        -0.4439 
     40 CA         24.8460  -27.2350  -38.9625 C.3       6 UNK         0.0297 
     41 CB         25.7985  -26.5716  -37.9447 C.3       6 UNK        -0.2006 
     42 C          25.2939  -28.6537  -39.3720 C.2       6 UNK         0.4892 
     43 O          26.0175  -29.3054  -38.6162 O.2       6 UNK        -0.5089 
     44 N          24.8503  -29.1113  -40.5494 N.am      7 UNK        -0.4243 
     45 CA         25.1088  -30.4438  -41.0877 C.3       7 UNK         0.0196 
     46 CB         25.5503  -30.2978  -42.5543 C.3       7 UNK        -0.2007 
     47 C          23.8435  -31.3068  -40.9850 C.2       7 UNK         0.5020 
     48 O          22.7380  -30.7796  -40.8442 O.2       7 UNK        -0.5147 
     49 N          24.0274  -32.6261  -41.0846 N.am      8 UNK        -0.4734 
     50 CA         22.9420  -33.6001  -41.1935 C.3       8 UNK         0.0238 
     51 CB         23.3136  -34.8589  -40.3921 C.3       8 UNK        -0.1912 
     52 C          22.7247  -33.9534  -42.6710 C.2       8 UNK         0.5038 
     53 O          23.6943  -33.9989  -43.4334 O.2       8 UNK        -0.5046 
     54 N          21.4686  -34.2248  -43.0390 N.am      9 UNK        -0.4200 
     55 CA         21.0885  -34.7212  -44.3690 C.3       9 UNK         0.0839 
     56 C          21.5135  -36.2001  -44.5778 C.2       9 UNK         0.5513 
     57 N          21.8604  -36.5782  -45.8002 N.am      9 UNK        -0.7519 
     58 O          21.4906  -37.0125  -43.6550 O.2       9 UNK        -0.4960 
     59 C59        19.5725  -34.5440  -44.6328 C.3       10 UNK        -0.0876 
     60 S60        19.0895  -32.7868  -44.6930 S.3       10 UNK        -0.2414 
     61 C61        17.8801  -32.6903  -43.3354 C.3       10 UNK         0.0169 
     62 H62        15.8479  -23.9093  -43.2326 H         1 UNK         0.0903 
     63 H63        15.9685  -25.5643  -42.6453 H         1 UNK         0.0903 
     64 H64        17.1706  -24.3651  -42.1553 H         1 UNK         0.0903 
     65 H65        17.3134  -27.0390  -43.7758 H         1 UNK         0.3096 
     66 H66        18.5307  -26.0784  -46.3076 H         1 UNK         0.1121 
     67 H67        18.2682  -28.2664  -47.1969 H         1 UNK         0.0849 
     68 H68        17.9220  -28.9955  -45.6680 H         1 UNK         0.0849 
     69 H69        14.1132  -28.8606  -45.4646 H         1 UNK         0.0865 
     70 H70        15.0114  -30.0107  -46.4110 H         1 UNK         0.0865 
     71 H71        16.4644  -31.5159  -45.3276 H         1 UNK         0.1346 
     72 H72        17.7138  -30.8855  -41.2783 H         1 UNK         0.1412 
     73 H73        15.2897  -27.9485  -43.2640 H         1 UNK         0.1426 
     74 H74        16.5634  -29.1062  -39.9812 H         1 UNK         0.0716 
     75 H75        15.5258  -27.9665  -40.7910 H         1 UNK         0.0716 
     76 H76        19.1922  -27.8358  -39.0037 H         1 UNK         0.0695 
     77 H77        18.9995  -29.1790  -40.0876 H         1 UNK         0.0695 
     78 H78        21.3017  -28.4354  -40.1540 H         1 UNK         0.0983 
     79 H79        19.7668  -28.5500  -42.5023 H         1 UNK         0.3095 
     80 H80        22.3726  -28.2962  -44.8865 H         1 UNK         0.0454 
     81 H81        22.7425  -30.5945  -44.0499 H         1 UNK         0.0851 
     82 H82        21.0315  -30.8073  -43.7457 H         1 UNK         0.0851 
     83 H83        21.6248  -30.6515  -45.4011 H         1 UNK         0.0851 
     84 H84        19.6653  -29.1239  -45.1231 H         1 UNK         0.2976 
     85 H85        20.3628  -25.8268  -42.3325 H         1 UNK         0.3116 
     86 H86        20.9592  -23.6441  -40.5462 H         1 UNK         0.0646 
     87 H87        20.8754  -22.2802  -42.6302 H         1 UNK         0.0847 
     88 H88        19.4912  -23.3520  -42.5254 H         1 UNK         0.0847 
     89 H89        20.8279  -23.7380  -43.6083 H         1 UNK         0.0847 
     90 H90        22.9399  -25.7738  -42.4893 H         1 UNK         0.3040 
     91 H91        25.3827  -24.1102  -42.1495 H         1 UNK         0.1015 
     92 H92        24.9256  -25.1489  -44.3945 H         1 UNK         0.0786 
     93 H93        24.9326  -26.7486  -43.6527 H         1 UNK         0.0786 
     94 H94        26.3957  -25.7761  -43.6697 H         1 UNK         0.0786 
     95 H95        23.6270  -26.0670  -40.2161 H         1 UNK         0.3172 
     96 H96        23.8819  -27.3624  -38.4685 H         1 UNK         0.0595 
     97 H97        25.4522  -25.5761  -37.6672 H         1 UNK         0.0839 
     98 H98        26.8114  -26.4784  -38.3374 H         1 UNK         0.0839 
     99 H99        25.8605  -27.1581  -37.0273 H         1 UNK         0.0839 
    100 H100       24.1977  -28.5478  -41.0867 H         1 UNK         0.2998 
    101 H101       25.9078  -30.9362  -40.5291 H         1 UNK         0.0822 
    102 H102       26.4784  -29.7307  -42.6291 H         1 UNK         0.0787 
    103 H103       25.7265  -31.2704  -43.0159 H         1 UNK         0.0787 
    104 H104       24.8003  -29.7817  -43.1536 H         1 UNK         0.0787 
    105 H105       24.9570  -32.9776  -41.2684 H         1 UNK         0.3055 
    106 H106       22.0172  -33.1865  -40.7834 H         1 UNK         0.1106 
    107 H107       24.2235  -35.3269  -40.7703 H         1 UNK         0.0828 
    108 H108       23.4693  -34.6261  -39.3386 H         1 UNK         0.0828 
    109 H109       22.5190  -35.6046  -40.4449 H         1 UNK         0.0828 
    110 H110       20.7335  -34.1990  -42.3492 H         1 UNK         0.2931 
    111 H111       21.6245  -34.1194  -45.1068 H         1 UNK         0.0412 
    112 H112       22.1249  -37.5380  -45.9606 H         1 UNK         0.3472 
    113 H113       21.8741  -35.9210  -46.5652 H         1 UNK         0.3472 
    114 H114       18.9850  -35.0758  -43.8820 H         1 UNK         0.0970 
    115 H115       19.2984  -34.9837  -45.5939 H         1 UNK         0.0970 
    116 H116       18.3908  -32.8822  -42.3906 H         1 UNK         0.0612 
    117 H117       17.1334  -33.4761  -43.4580 H         1 UNK         0.0612 
@<TRIPOS>BOND
     1    1    2 1    
     2    1   62 1    
     3    1   63 1    
     4    1   64 1    
     5    2    3 2    
     6    2    4 am   BACKBONE|DICT|INTERRES
     7    4    5 1    
     8    4   65 1    
     9    5    6 1    
    10    5   25 1    
    11    5   66 1    
    12    6    7 1    
    13    6   67 1    
    14    6   68 1    
    15    7    8 1    
    16    8    9 1    
    17    8   69 1    
    18    8   70 1    
    19    9   10 ar   
    20    9   14 ar   
    21   10   11 ar   
    22   10   71 1    
    23   11   12 ar   
    24   11   61 1    
    25   12   13 ar   
    26   12   72 1    
    27   13   14 ar   
    28   13   15 1    
    29   14   73 1    
    30   15   16 1    
    31   15   74 1    
    32   15   75 1    
    33   16   17 1    
    34   17   18 1    
    35   17   76 1    
    36   17   77 1    
    37   18   19 1    
    38   18   27 1    
    39   18   78 1    
    40   19   20 am   BACKBONE|DICT|INTERRES
    41   19   79 1    
    42   20   21 2    
    43   20   22 1    
    44   22   23 1    
    45   22   24 1    
    46   22   80 1    
    47   23   81 1    
    48   23   82 1    
    49   23   83 1    
    50   24   25 am   BACKBONE|DICT|INTERRES
    51   24   84 1    
    52   25   26 2    
    53   27   28 2    
    54   27   29 am   BACKBONE|DICT|INTERRES
    55   29   30 1    
    56   29   85 1    
    57   30   31 1    
    58   30   32 1    
    59   30   86 1    
    60   31   87 1    
    61   31   88 1    
    62   31   89 1    
    63   32   33 2    
    64   32   34 am   BACKBONE|DICT|INTERRES
    65   34   35 1    
    66   34   90 1    
    67   35   36 1    
    68   35   37 1    
    69   35   91 1    
    70   36   92 1    
    71   36   93 1    
    72   36   94 1    
    73   37   38 2    
    74   37   39 am   BACKBONE|DICT|INTERRES
    75   39   40 1    
    76   39   95 1    
    77   40   41 1    
    78   40   42 1    
    79   40   96 1    
    80   41   97 1    
    81   41   98 1    
    82   41   99 1    
    83   42   43 2    
    84   42   44 am   BACKBONE|DICT|INTERRES
    85   44   45 1    
    86   44  100 1    
    87   45   46 1    
    88   45   47 1    
    89   45  101 1    
    90   46  102 1    
    91   46  103 1    
    92   46  104 1    
    93   47   48 2    
    94   47   49 am   BACKBONE|DICT|INTERRES
    95   49   50 1    
    96   49  105 1    
    97   50   51 1    
    98   50   52 1    
    99   50  106 1    
   100   51  107 1    
   101   51  108 1    
   102   51  109 1    
   103   52   53 2    
   104   52   54 am   BACKBONE|DICT|INTERRES
   105   54   55 1    
   106   54  110 1    
   107   55   56 1    
   108   55   59 1    
   109   55  111 1    
   110   56   57 am   BACKBONE|DICT|INTERRES
   111   56   58 2    
   112   57  112 1    
   113   57  113 1    
   114   59   60 1    
   115   59  114 1    
   116   59  115 1    
   117   60   61 1    
   118   61  116 1    
   119   61  117 1    
@<TRIPOS>SUBSTRUCTURE
     1 UNK         1 GROUP             0       ****    0 ROOT    
