@<TRIPOS>MOLECULE
3R8
117   119    1
SMALL
USER_CHARGES


@<TRIPOS>ATOM
      1 CA         15.8652  -25.1818  -49.6799 C.3       0 UNK        -0.2013 
      2 C          16.6089  -25.6730  -48.4463 C.2       0 UNK         0.4866 
      3 O          15.9763  -25.9325  -47.4223 O.2       0 UNK        -0.5176 
      4 N          17.9396  -25.8095  -48.5518 N.am      1 UNK        -0.4884 
      5 CA         18.8878  -26.2026  -47.4971 C.3       1 UNK         0.0853 
      6 C6         18.4855  -27.5196  -46.7727 C.3       10 UNK        -0.0849 
      7 S7         19.9170  -28.4772  -46.1694 S.3       10 UNK        -0.2776 
      8 C8         19.1173  -30.0459  -45.7007 C.3       10 UNK         0.0316 
      9 C9         18.5896  -30.0031  -44.2738 C.ar      10 UNK        -0.0863 
     10 C10        19.3609  -30.5227  -43.2309 C.ar      10 UNK        -0.1009 
     11 C11        18.8909  -30.4945  -41.9152 C.ar      10 UNK        -0.0712 
     12 C12        17.6423  -29.9322  -41.6421 C.ar      10 UNK        -0.0894 
     13 C13        16.8838  -29.3609  -42.6700 C.ar      10 UNK        -0.0745 
     14 C14        17.3456  -29.4311  -43.9887 C.ar      10 UNK        -0.0972 
     15 C15        15.6187  -28.5823  -42.3398 C.3       10 UNK         0.0209 
     16 S16        15.9694  -27.1646  -41.2388 S.3       10 UNK        -0.2568 
     17 C17        17.0707  -26.1032  -42.2461 C.3       10 UNK        -0.0983 
     18 CA         18.5769  -26.4786  -42.1461 C.3       3 UNK         0.0876 
     19 N          19.3766  -25.9052  -43.2308 N.am      3 UNK        -0.4424 
     20 C          19.7503  -24.6255  -43.3836 C.2       2 UNK         0.4918 
     21 O          19.4496  -23.7115  -42.6166 O.2       2 UNK        -0.4875 
     22 CA         20.6086  -24.3137  -44.6236 C.3       2 UNK         0.0481 
     23 CB         22.1024  -24.4578  -44.2914 C.3       2 UNK        -0.1831 
     24 N          20.2729  -25.1797  -45.7578 N.am      2 UNK        -0.4498 
     25 C          19.1586  -25.0588  -46.4928 C.2       1 UNK         0.5027 
     26 O          18.3750  -24.1124  -46.3807 O.2       1 UNK        -0.4969 
     27 C          19.2341  -26.2512  -40.7674 C.2       3 UNK         0.5005 
     28 O          18.7070  -25.5281  -39.9189 O.2       3 UNK        -0.5279 
     29 N          20.4099  -26.8648  -40.5973 N.am      4 UNK        -0.4463 
     30 CA         21.2412  -26.8350  -39.4007 C.3       4 UNK         0.0283 
     31 CB         22.1132  -25.5656  -39.4095 C.3       4 UNK        -0.1875 
     32 C          22.1057  -28.1015  -39.3942 C.2       4 UNK         0.4949 
     33 O          22.1855  -28.7944  -40.4127 O.2       4 UNK        -0.5039 
     34 N          22.7578  -28.3794  -38.2588 N.am      5 UNK        -0.4663 
     35 CA         23.7123  -29.4827  -38.1097 C.3       5 UNK         0.0242 
     36 CB         24.2106  -29.5350  -36.6570 C.3       5 UNK        -0.1982 
     37 C          24.8955  -29.3502  -39.0861 C.2       5 UNK         0.5017 
     38 O          25.3845  -28.2388  -39.2996 O.2       5 UNK        -0.5012 
     39 N          25.3070  -30.4844  -39.6653 N.am      6 UNK        -0.4439 
     40 CA         26.3331  -30.6484  -40.7018 C.3       6 UNK         0.0297 
     41 CB         27.6922  -30.0490  -40.2810 C.3       6 UNK        -0.2006 
     42 C          25.9080  -30.1971  -42.1146 C.2       6 UNK         0.4892 
     43 O          26.6928  -30.3899  -43.0443 O.2       6 UNK        -0.5089 
     44 N          24.6825  -29.6711  -42.2924 N.am      7 UNK        -0.4243 
     45 CA         24.0880  -29.4389  -43.6187 C.3       7 UNK         0.0196 
     46 CB         22.8772  -28.4987  -43.5007 C.3       7 UNK        -0.2007 
     47 C          23.6799  -30.7610  -44.2960 C.2       7 UNK         0.5020 
     48 O          23.7589  -30.8744  -45.5186 O.2       7 UNK        -0.5147 
     49 N          23.2917  -31.7389  -43.4694 N.am      8 UNK        -0.4734 
     50 CA         23.0508  -33.1416  -43.8094 C.3       8 UNK         0.0238 
     51 CB         21.7831  -33.3242  -44.6687 C.3       8 UNK        -0.1912 
     52 C          22.9523  -33.9491  -42.5098 C.2       8 UNK         0.5038 
     53 O          23.5490  -35.0206  -42.4086 O.2       8 UNK        -0.5046 
     54 N          22.2116  -33.3963  -41.5395 N.am      9 UNK        -0.4200 
     55 CA         22.0007  -33.9315  -40.1882 C.3       9 UNK         0.0839 
     56 C          23.3197  -33.9825  -39.3733 C.2       9 UNK         0.5513 
     57 N          23.6039  -35.0912  -38.7060 N.am      9 UNK        -0.7519 
     58 O          24.0554  -32.9986  -39.3064 O.2       9 UNK        -0.4960 
     59 C59        20.9289  -33.1180  -39.4091 C.3       10 UNK        -0.0876 
     60 S60        19.4307  -32.7473  -40.3887 S.3       10 UNK        -0.2414 
     61 C61        19.7643  -31.0046  -40.7834 C.3       10 UNK         0.0169 
     62 H62        15.1227  -25.9174  -49.9879 H         1 UNK         0.0903 
     63 H63        15.3484  -24.2484  -49.4581 H         1 UNK         0.0903 
     64 H64        16.5364  -25.0058  -50.5204 H         1 UNK         0.0903 
     65 H65        18.3755  -25.5550  -49.4281 H         1 UNK         0.3096 
     66 H66        19.8249  -26.3773  -48.0292 H         1 UNK         0.1121 
     67 H67        17.8017  -27.3186  -45.9465 H         1 UNK         0.0849 
     68 H68        17.9386  -28.1644  -47.4626 H         1 UNK         0.0849 
     69 H69        18.3117  -30.2871  -46.3958 H         1 UNK         0.0865 
     70 H70        19.8486  -30.8494  -45.8021 H         1 UNK         0.0865 
     71 H71        20.3372  -30.9335  -43.4425 H         1 UNK         0.1346 
     72 H72        17.2907  -29.8763  -40.6207 H         1 UNK         0.1412 
     73 H73        16.7551  -29.0045  -44.7873 H         1 UNK         0.1426 
     74 H74        14.9081  -29.2478  -41.8479 H         1 UNK         0.0716 
     75 H75        15.1298  -28.2200  -43.2456 H         1 UNK         0.0716 
     76 H76        16.9178  -25.0634  -41.9523 H         1 UNK         0.0695 
     77 H77        16.7405  -26.1696  -43.2842 H         1 UNK         0.0695 
     78 H78        18.6621  -27.5460  -42.3181 H         1 UNK         0.0983 
     79 H79        19.6840  -26.5643  -43.9308 H         1 UNK         0.3095 
     80 H80        20.4243  -23.2757  -44.9091 H         1 UNK         0.0454 
     81 H81        22.3601  -25.4781  -44.0074 H         1 UNK         0.0851 
     82 H82        22.3802  -23.8094  -43.4592 H         1 UNK         0.0851 
     83 H83        22.7265  -24.1776  -45.1400 H         1 UNK         0.0851 
     84 H84        20.8741  -25.9761  -45.9208 H         1 UNK         0.2976 
     85 H85        20.7646  -27.4904  -41.3108 H         1 UNK         0.3116 
     86 H86        20.6045  -26.8466  -38.5136 H         1 UNK         0.0646 
     87 H87        22.7748  -25.5403  -40.2765 H         1 UNK         0.0847 
     88 H88        22.7403  -25.5092  -38.5192 H         1 UNK         0.0847 
     89 H89        21.5019  -24.6632  -39.4301 H         1 UNK         0.0847 
     90 H90        22.6658  -27.7496  -37.4749 H         1 UNK         0.3040 
     91 H91        23.1787  -30.4107  -38.3278 H         1 UNK         0.1015 
     92 H92        23.3860  -29.6759  -35.9579 H         1 UNK         0.0786 
     93 H93        24.7372  -28.6212  -36.3783 H         1 UNK         0.0786 
     94 H94        24.9018  -30.3666  -36.5123 H         1 UNK         0.0786 
     95 H95        24.8271  -31.3513  -39.4196 H         1 UNK         0.3172 
     96 H96        26.4749  -31.7276  -40.7779 H         1 UNK         0.0595 
     97 H97        27.6766  -28.9591  -40.2786 H         1 UNK         0.0839 
     98 H98        28.4807  -30.3542  -40.9701 H         1 UNK         0.0839 
     99 H99        27.9856  -30.3853  -39.2867 H         1 UNK         0.0839 
    100 H100       24.0960  -29.4881  -41.4870 H         1 UNK         0.2998 
    101 H101       24.8349  -28.9519  -44.2497 H         1 UNK         0.0822 
    102 H102       23.1259  -27.5960  -42.9427 H         1 UNK         0.0787 
    103 H103       22.5338  -28.1897  -44.4885 H         1 UNK         0.0787 
    104 H104       22.0347  -28.9813  -43.0051 H         1 UNK         0.0787 
    105 H105       23.3382  -31.5378  -42.4806 H         1 UNK         0.3055 
    106 H106       23.9141  -33.5076  -44.3699 H         1 UNK         0.1106 
    107 H107       20.8784  -33.0359  -44.1347 H         1 UNK         0.0828 
    108 H108       21.8290  -32.7450  -45.5906 H         1 UNK         0.0828 
    109 H109       21.6638  -34.3697  -44.9557 H         1 UNK         0.0828 
    110 H110       21.7049  -32.5506  -41.7451 H         1 UNK         0.2931 
    111 H111       21.6250  -34.9495  -40.3106 H         1 UNK         0.0412 
    112 H112       22.9991  -35.8969  -38.7503 H         1 UNK         0.3472 
    113 H113       24.4494  -35.1294  -38.1581 H         1 UNK         0.3472 
    114 H114       20.6193  -33.6742  -38.5224 H         1 UNK         0.0970 
    115 H115       21.3455  -32.1808  -39.0334 H         1 UNK         0.0970 
    116 H116       20.8122  -30.8921  -41.0612 H         1 UNK         0.0612 
    117 H117       19.6186  -30.3957  -39.8896 H         1 UNK         0.0612 
@<TRIPOS>BOND
     1    1    2 1    
     2    1   62 1    
     3    1   63 1    
     4    1   64 1    
     5    2    3 2    
     6    2    4 am   BACKBONE|DICT|INTERRES
     7    4    5 1    
     8    4   65 1    
     9    5    6 1    
    10    5   25 1    
    11    5   66 1    
    12    6    7 1    
    13    6   67 1    
    14    6   68 1    
    15    7    8 1    
    16    8    9 1    
    17    8   69 1    
    18    8   70 1    
    19    9   10 ar   
    20    9   14 ar   
    21   10   11 ar   
    22   10   71 1    
    23   11   12 ar   
    24   11   61 1    
    25   12   13 ar   
    26   12   72 1    
    27   13   14 ar   
    28   13   15 1    
    29   14   73 1    
    30   15   16 1    
    31   15   74 1    
    32   15   75 1    
    33   16   17 1    
    34   17   18 1    
    35   17   76 1    
    36   17   77 1    
    37   18   19 1    
    38   18   27 1    
    39   18   78 1    
    40   19   20 am   BACKBONE|DICT|INTERRES
    41   19   79 1    
    42   20   21 2    
    43   20   22 1    
    44   22   23 1    
    45   22   24 1    
    46   22   80 1    
    47   23   81 1    
    48   23   82 1    
    49   23   83 1    
    50   24   25 am   BACKBONE|DICT|INTERRES
    51   24   84 1    
    52   25   26 2    
    53   27   28 2    
    54   27   29 am   BACKBONE|DICT|INTERRES
    55   29   30 1    
    56   29   85 1    
    57   30   31 1    
    58   30   32 1    
    59   30   86 1    
    60   31   87 1    
    61   31   88 1    
    62   31   89 1    
    63   32   33 2    
    64   32   34 am   BACKBONE|DICT|INTERRES
    65   34   35 1    
    66   34   90 1    
    67   35   36 1    
    68   35   37 1    
    69   35   91 1    
    70   36   92 1    
    71   36   93 1    
    72   36   94 1    
    73   37   38 2    
    74   37   39 am   BACKBONE|DICT|INTERRES
    75   39   40 1    
    76   39   95 1    
    77   40   41 1    
    78   40   42 1    
    79   40   96 1    
    80   41   97 1    
    81   41   98 1    
    82   41   99 1    
    83   42   43 2    
    84   42   44 am   BACKBONE|DICT|INTERRES
    85   44   45 1    
    86   44  100 1    
    87   45   46 1    
    88   45   47 1    
    89   45  101 1    
    90   46  102 1    
    91   46  103 1    
    92   46  104 1    
    93   47   48 2    
    94   47   49 am   BACKBONE|DICT|INTERRES
    95   49   50 1    
    96   49  105 1    
    97   50   51 1    
    98   50   52 1    
    99   50  106 1    
   100   51  107 1    
   101   51  108 1    
   102   51  109 1    
   103   52   53 2    
   104   52   54 am   BACKBONE|DICT|INTERRES
   105   54   55 1    
   106   54  110 1    
   107   55   56 1    
   108   55   59 1    
   109   55  111 1    
   110   56   57 am   BACKBONE|DICT|INTERRES
   111   56   58 2    
   112   57  112 1    
   113   57  113 1    
   114   59   60 1    
   115   59  114 1    
   116   59  115 1    
   117   60   61 1    
   118   61  116 1    
   119   61  117 1    
@<TRIPOS>SUBSTRUCTURE
     1 UNK         1 GROUP             0       ****    0 ROOT    
