@<TRIPOS>MOLECULE
3R8
117   119    1
SMALL
USER_CHARGES


@<TRIPOS>ATOM
      1 CA         13.4077  -24.8806  -41.3651 C.3       0 UNK        -0.2013 
      2 C          14.3296  -24.7580  -42.5689 C.2       0 UNK         0.4866 
      3 O          15.0319  -23.7562  -42.7040 O.2       0 UNK        -0.5176 
      4 N          14.3359  -25.7711  -43.4446 N.am      1 UNK        -0.4884 
      5 CA         15.1710  -25.8324  -44.6527 C.3       1 UNK         0.0853 
      6 C6         14.5680  -26.7860  -45.7156 C.3       10 UNK        -0.0849 
      7 S7         14.3316  -28.5036  -45.1303 S.3       10 UNK        -0.2776 
      8 C8         15.2623  -29.4673  -46.3673 C.3       10 UNK         0.0316 
      9 C9         16.7418  -29.6174  -46.0287 C.ar      10 UNK        -0.0863 
     10 C10        17.1320  -30.4400  -44.9678 C.ar      10 UNK        -0.1009 
     11 C11        18.4852  -30.6835  -44.7152 C.ar      10 UNK        -0.0712 
     12 C12        19.4570  -30.0840  -45.5223 C.ar      10 UNK        -0.0894 
     13 C13        19.0823  -29.2575  -46.5861 C.ar      10 UNK        -0.0745 
     14 C14        17.7234  -29.0192  -46.8272 C.ar      10 UNK        -0.0972 
     15 C15        20.1362  -28.6998  -47.5348 C.3       10 UNK         0.0209 
     16 S16        20.5366  -26.9550  -47.2093 S.3       10 UNK        -0.2568 
     17 C17        21.8003  -27.0599  -45.8958 C.3       10 UNK        -0.0983 
     18 CA         21.3606  -26.2857  -44.6301 C.3       3 UNK         0.0876 
     19 N          20.2273  -26.9431  -43.9840 N.am      3 UNK        -0.4424 
     20 C          19.4333  -26.3905  -43.0628 C.2       2 UNK         0.4918 
     21 O          19.6009  -25.2723  -42.5705 O.2       2 UNK        -0.4875 
     22 CA         18.2039  -27.2264  -42.6702 C.3       2 UNK         0.0481 
     23 CB         18.1296  -27.4137  -41.1458 C.3       2 UNK        -0.1831 
     24 N          16.9307  -26.6808  -43.1510 N.am      2 UNK        -0.4498 
     25 C          16.6466  -26.1830  -44.3674 C.2       1 UNK         0.5027 
     26 O          17.4686  -26.0129  -45.2676 O.2       1 UNK        -0.4969 
     27 C          22.5444  -26.0633  -43.6668 C.2       3 UNK         0.5005 
     28 O          22.7262  -26.8152  -42.7040 O.2       3 UNK        -0.5279 
     29 N          23.3607  -25.0477  -43.9887 N.am      4 UNK        -0.4463 
     30 CA         24.5193  -24.5699  -43.2205 C.3       4 UNK         0.0283 
     31 CB         25.0493  -23.2816  -43.8726 C.3       4 UNK        -0.1875 
     32 C          25.6633  -25.5861  -43.0324 C.2       4 UNK         0.4949 
     33 O          26.5593  -25.3324  -42.2270 O.2       4 UNK        -0.5039 
     34 N          25.6119  -26.7189  -43.7475 N.am      5 UNK        -0.4663 
     35 CA         26.4885  -27.8780  -43.5585 C.3       5 UNK         0.0242 
     36 CB         26.2198  -28.8976  -44.6774 C.3       5 UNK        -0.1982 
     37 C          26.3374  -28.5443  -42.1758 C.2       5 UNK         0.5017 
     38 O          27.2886  -29.1812  -41.7213 O.2       5 UNK        -0.5012 
     39 N          25.1699  -28.3671  -41.5329 N.am      6 UNK        -0.4439 
     40 CA         24.8161  -28.8461  -40.1936 C.3       6 UNK         0.0297 
     41 CB         25.6360  -28.1022  -39.1139 C.3       6 UNK        -0.2006 
     42 C          24.8791  -30.3827  -40.1027 C.2       6 UNK         0.4892 
     43 O          24.1384  -31.0429  -40.8321 O.2       6 UNK        -0.5089 
     44 N          25.7200  -30.9216  -39.2038 N.am      7 UNK        -0.4243 
     45 CA         25.9502  -32.3536  -38.9496 C.3       7 UNK         0.0196 
     46 CB         26.6956  -32.9948  -40.1397 C.3       7 UNK        -0.2007 
     47 C          24.6608  -33.1135  -38.5768 C.2       7 UNK         0.5020 
     48 O          24.4311  -34.2241  -39.0597 O.2       7 UNK        -0.5147 
     49 N          23.8099  -32.4607  -37.7685 N.am      8 UNK        -0.4734 
     50 CA         22.4606  -32.8871  -37.3629 C.3       8 UNK         0.0238 
     51 CB         22.5364  -34.1220  -36.4393 C.3       8 UNK        -0.1912 
     52 C          21.4886  -33.0979  -38.5456 C.2       8 UNK         0.5038 
     53 O          20.5007  -33.8196  -38.3980 O.2       8 UNK        -0.5046 
     54 N          21.7851  -32.4716  -39.6939 N.am      9 UNK        -0.4200 
     55 CA         21.1075  -32.6486  -40.9849 C.3       9 UNK         0.0839 
     56 C          21.3219  -34.0537  -41.6299 C.2       9 UNK         0.5513 
     57 N          22.3147  -34.8316  -41.2106 N.am      9 UNK        -0.7519 
     58 O          20.5987  -34.4401  -42.5441 O.2       9 UNK        -0.4960 
     59 C59        19.6196  -32.1732  -40.9611 C.3       10 UNK        -0.0876 
     60 S60        19.3227  -30.7673  -42.0827 S.3       10 UNK        -0.2414 
     61 C61        18.8927  -31.6455  -43.6111 C.3       10 UNK         0.0169 
     62 H62        13.9871  -24.8414  -40.4431 H         1 UNK         0.0903 
     63 H63        12.6940  -24.0572  -41.3542 H         1 UNK         0.0903 
     64 H64        12.8467  -25.8149  -41.3738 H         1 UNK         0.0903 
     65 H65        13.7398  -26.5741  -43.2939 H         1 UNK         0.3096 
     66 H66        15.1866  -24.8324  -45.0930 H         1 UNK         0.1121 
     67 H67        15.1802  -26.7796  -46.6196 H         1 UNK         0.0849 
     68 H68        13.5937  -26.4069  -46.0277 H         1 UNK         0.0849 
     69 H69        14.8205  -30.4632  -46.4244 H         1 UNK         0.0865 
     70 H70        15.1273  -29.0309  -47.3581 H         1 UNK         0.0865 
     71 H71        16.3771  -30.9181  -44.3581 H         1 UNK         0.1346 
     72 H72        20.5031  -30.2931  -45.3430 H         1 UNK         0.1412 
     73 H73        17.4327  -28.3961  -47.6621 H         1 UNK         0.1426 
     74 H74        21.0465  -29.3006  -47.5041 H         1 UNK         0.0716 
     75 H75        19.7663  -28.7786  -48.5582 H         1 UNK         0.0716 
     76 H76        22.7205  -26.6441  -46.3107 H         1 UNK         0.0695 
     77 H77        22.0195  -28.1021  -45.6565 H         1 UNK         0.0695 
     78 H78        21.0142  -25.2959  -44.9380 H         1 UNK         0.0983 
     79 H79        19.9784  -27.8499  -44.3506 H         1 UNK         0.3095 
     80 H80        18.3006  -28.2130  -43.1241 H         1 UNK         0.0454 
     81 H81        17.9405  -26.4705  -40.6319 H         1 UNK         0.0851 
     82 H82        19.0669  -27.8147  -40.7574 H         1 UNK         0.0851 
     83 H83        17.3423  -28.1148  -40.8687 H         1 UNK         0.0851 
     84 H84        16.1552  -26.7485  -42.5094 H         1 UNK         0.2976 
     85 H85        23.1418  -24.5121  -44.8173 H         1 UNK         0.3116 
     86 H86        24.1592  -24.3199  -42.2205 H         1 UNK         0.0646 
     87 H87        24.2809  -22.5094  -43.9141 H         1 UNK         0.0847 
     88 H88        25.8848  -22.8689  -43.3050 H         1 UNK         0.0847 
     89 H89        25.4044  -23.4600  -44.8884 H         1 UNK         0.0847 
     90 H90        24.8422  -26.8321  -44.3899 H         1 UNK         0.3040 
     91 H91        27.5219  -27.5342  -43.6420 H         1 UNK         0.1015 
     92 H92        25.1927  -29.2645  -44.6514 H         1 UNK         0.0786 
     93 H93        26.8770  -29.7633  -44.5816 H         1 UNK         0.0786 
     94 H94        26.3990  -28.4648  -45.6618 H         1 UNK         0.0786 
     95 H95        24.4373  -27.8555  -42.0159 H         1 UNK         0.3172 
     96 H96        23.7683  -28.5794  -40.0471 H         1 UNK         0.0595 
     97 H97        26.7052  -28.3032  -39.1907 H         1 UNK         0.0839 
     98 H98        25.3131  -28.3785  -38.1093 H         1 UNK         0.0839 
     99 H99        25.5024  -27.0237  -39.2019 H         1 UNK         0.0839 
    100 H100       26.2806  -30.2854  -38.6540 H         1 UNK         0.2998 
    101 H101       26.6029  -32.4158  -38.0775 H         1 UNK         0.0822 
    102 H102       26.9785  -34.0244  -39.9169 H         1 UNK         0.0787 
    103 H103       26.0792  -33.0137  -41.0393 H         1 UNK         0.0787 
    104 H104       27.6107  -32.4507  -40.3737 H         1 UNK         0.0787 
    105 H105       24.0922  -31.5464  -37.4415 H         1 UNK         0.3055 
    106 H106       22.0403  -32.0656  -36.7802 H         1 UNK         0.1106 
    107 H107       23.2156  -33.9525  -35.6040 H         1 UNK         0.0828 
    108 H108       21.5591  -34.3566  -36.0156 H         1 UNK         0.0828 
    109 H109       22.8777  -35.0082  -36.9752 H         1 UNK         0.0828 
    110 H110       22.6434  -31.9348  -39.7476 H         1 UNK         0.2931 
    111 H111       21.6636  -31.9880  -41.6508 H         1 UNK         0.0412 
    112 H112       22.4479  -35.7322  -41.6424 H         1 UNK         0.3472 
    113 H113       22.9395  -34.5313  -40.4705 H         1 UNK         0.3472 
    114 H114       18.9205  -32.9804  -41.1870 H         1 UNK         0.0970 
    115 H115       19.3329  -31.8354  -39.9646 H         1 UNK         0.0970 
    116 H116       19.7479  -32.2385  -43.9380 H         1 UNK         0.0612 
    117 H117       18.0858  -32.3519  -43.4097 H         1 UNK         0.0612 
@<TRIPOS>BOND
     1    1    2 1    
     2    1   62 1    
     3    1   63 1    
     4    1   64 1    
     5    2    3 2    
     6    2    4 am   BACKBONE|DICT|INTERRES
     7    4    5 1    
     8    4   65 1    
     9    5    6 1    
    10    5   25 1    
    11    5   66 1    
    12    6    7 1    
    13    6   67 1    
    14    6   68 1    
    15    7    8 1    
    16    8    9 1    
    17    8   69 1    
    18    8   70 1    
    19    9   10 ar   
    20    9   14 ar   
    21   10   11 ar   
    22   10   71 1    
    23   11   12 ar   
    24   11   61 1    
    25   12   13 ar   
    26   12   72 1    
    27   13   14 ar   
    28   13   15 1    
    29   14   73 1    
    30   15   16 1    
    31   15   74 1    
    32   15   75 1    
    33   16   17 1    
    34   17   18 1    
    35   17   76 1    
    36   17   77 1    
    37   18   19 1    
    38   18   27 1    
    39   18   78 1    
    40   19   20 am   BACKBONE|DICT|INTERRES
    41   19   79 1    
    42   20   21 2    
    43   20   22 1    
    44   22   23 1    
    45   22   24 1    
    46   22   80 1    
    47   23   81 1    
    48   23   82 1    
    49   23   83 1    
    50   24   25 am   BACKBONE|DICT|INTERRES
    51   24   84 1    
    52   25   26 2    
    53   27   28 2    
    54   27   29 am   BACKBONE|DICT|INTERRES
    55   29   30 1    
    56   29   85 1    
    57   30   31 1    
    58   30   32 1    
    59   30   86 1    
    60   31   87 1    
    61   31   88 1    
    62   31   89 1    
    63   32   33 2    
    64   32   34 am   BACKBONE|DICT|INTERRES
    65   34   35 1    
    66   34   90 1    
    67   35   36 1    
    68   35   37 1    
    69   35   91 1    
    70   36   92 1    
    71   36   93 1    
    72   36   94 1    
    73   37   38 2    
    74   37   39 am   BACKBONE|DICT|INTERRES
    75   39   40 1    
    76   39   95 1    
    77   40   41 1    
    78   40   42 1    
    79   40   96 1    
    80   41   97 1    
    81   41   98 1    
    82   41   99 1    
    83   42   43 2    
    84   42   44 am   BACKBONE|DICT|INTERRES
    85   44   45 1    
    86   44  100 1    
    87   45   46 1    
    88   45   47 1    
    89   45  101 1    
    90   46  102 1    
    91   46  103 1    
    92   46  104 1    
    93   47   48 2    
    94   47   49 am   BACKBONE|DICT|INTERRES
    95   49   50 1    
    96   49  105 1    
    97   50   51 1    
    98   50   52 1    
    99   50  106 1    
   100   51  107 1    
   101   51  108 1    
   102   51  109 1    
   103   52   53 2    
   104   52   54 am   BACKBONE|DICT|INTERRES
   105   54   55 1    
   106   54  110 1    
   107   55   56 1    
   108   55   59 1    
   109   55  111 1    
   110   56   57 am   BACKBONE|DICT|INTERRES
   111   56   58 2    
   112   57  112 1    
   113   57  113 1    
   114   59   60 1    
   115   59  114 1    
   116   59  115 1    
   117   60   61 1    
   118   61  116 1    
   119   61  117 1    
@<TRIPOS>SUBSTRUCTURE
     1 UNK         1 GROUP             0       ****    0 ROOT    
