@<TRIPOS>MOLECULE
3R8
117   119    1
SMALL
USER_CHARGES


@<TRIPOS>ATOM
      1 CA         20.0500  -22.2669  -43.3405 C.3       0 UNK        -0.2013 
      2 C          19.0735  -22.3061  -44.5141 C.2       0 UNK         0.4866 
      3 O          18.4814  -21.2786  -44.8375 O.2       0 UNK        -0.5176 
      4 N          18.8695  -23.4482  -45.1893 N.am      1 UNK        -0.4884 
      5 CA         19.4536  -24.7684  -44.9089 C.3       1 UNK         0.0853 
      6 C6         19.2367  -25.7391  -46.1035 C.3       10 UNK        -0.0849 
      7 S7         20.6049  -26.9265  -46.2923 S.3       10 UNK        -0.2776 
      8 C8         19.9388  -28.0769  -47.5403 C.3       10 UNK         0.0316 
      9 C9         19.3214  -29.3096  -46.8953 C.ar      10 UNK        -0.0863 
     10 C10        20.1531  -30.2895  -46.3451 C.ar      10 UNK        -0.1009 
     11 C11        19.6128  -31.4216  -45.7288 C.ar      10 UNK        -0.0712 
     12 C12        18.2248  -31.5811  -45.6852 C.ar      10 UNK        -0.0894 
     13 C13        17.3796  -30.6095  -46.2335 C.ar      10 UNK        -0.0745 
     14 C14        17.9337  -29.4791  -46.8466 C.ar      10 UNK        -0.0972 
     15 C15        15.8686  -30.7541  -46.1056 C.3       10 UNK         0.0209 
     16 S16        15.1724  -29.6058  -44.8676 S.3       10 UNK        -0.2568 
     17 C17        16.0604  -30.0849  -43.3430 C.3       10 UNK        -0.0983 
     18 CA         17.3586  -29.2563  -43.1562 C.3       3 UNK         0.0876 
     19 N          17.1339  -27.8135  -43.0678 N.am      3 UNK        -0.4424 
     20 C          16.7222  -27.1006  -42.0121 C.2       2 UNK         0.4918 
     21 O          16.2802  -27.5959  -40.9749 O.2       2 UNK        -0.4875 
     22 CA         16.8575  -25.5650  -42.1289 C.3       2 UNK         0.0481 
     23 CB         17.4243  -24.9490  -40.8328 C.3       2 UNK        -0.1831 
     24 N          17.6341  -25.1018  -43.2941 N.am      2 UNK        -0.4498 
     25 C          18.9154  -25.3776  -43.5972 C.2       1 UNK         0.5027 
     26 O          19.6466  -26.0894  -42.9059 O.2       1 UNK        -0.4969 
     27 C          18.2994  -29.7715  -42.0488 C.2       3 UNK         0.5005 
     28 O          18.0083  -30.7757  -41.3963 O.2       3 UNK        -0.5279 
     29 N          19.4123  -29.0495  -41.8617 N.am      4 UNK        -0.4463 
     30 CA         20.4782  -29.3820  -40.9231 C.3       4 UNK         0.0283 
     31 CB         20.1648  -28.8150  -39.5279 C.3       4 UNK        -0.1875 
     32 C          21.8319  -28.8808  -41.4347 C.2       4 UNK         0.4949 
     33 O          22.8064  -29.6301  -41.3613 O.2       4 UNK        -0.5039 
     34 N          21.8754  -27.6394  -41.9453 N.am      5 UNK        -0.4663 
     35 CA         23.0737  -26.9349  -42.4193 C.3       5 UNK         0.0242 
     36 CB         23.5794  -27.5808  -43.7308 C.3       5 UNK        -0.1982 
     37 C          24.1601  -26.8273  -41.3246 C.2       5 UNK         0.5017 
     38 O          23.8318  -26.7898  -40.1362 O.2       5 UNK        -0.5012 
     39 N          25.4342  -26.7914  -41.7352 N.am      6 UNK        -0.4439 
     40 CA         26.5910  -26.9059  -40.8408 C.3       6 UNK         0.0297 
     41 CB         27.8032  -26.2268  -41.4997 C.3       6 UNK        -0.2006 
     42 C          26.9224  -28.3709  -40.4911 C.2       6 UNK         0.4892 
     43 O          27.6460  -28.6085  -39.5236 O.2       6 UNK        -0.5089 
     44 N          26.4165  -29.3197  -41.2925 N.am      7 UNK        -0.4243 
     45 CA         26.6840  -30.7544  -41.1772 C.3       7 UNK         0.0196 
     46 CB         26.3656  -31.4208  -42.5267 C.3       7 UNK        -0.2007 
     47 C          25.8954  -31.4492  -40.0548 C.2       7 UNK         0.5020 
     48 O          26.3228  -32.5119  -39.6038 O.2       7 UNK        -0.5147 
     49 N          24.7518  -30.8679  -39.6620 N.am      8 UNK        -0.4734 
     50 CA         23.7093  -31.4465  -38.8037 C.3       8 UNK         0.0238 
     51 CB         24.2281  -31.7130  -37.3740 C.3       8 UNK        -0.1912 
     52 C          23.0655  -32.6797  -39.4688 C.2       8 UNK         0.5038 
     53 O          22.9393  -33.7312  -38.8386 O.2       8 UNK        -0.5046 
     54 N          22.7004  -32.5252  -40.7494 N.am      9 UNK        -0.4200 
     55 CA         22.1453  -33.5808  -41.6131 C.3       9 UNK         0.0839 
     56 C          20.6835  -34.0217  -41.3011 C.2       9 UNK         0.5513 
     57 N          19.9814  -33.3994  -40.3630 N.am      9 UNK        -0.7519 
     58 O          20.1837  -34.9608  -41.9155 O.2       9 UNK        -0.4960 
     59 C59        22.3668  -33.2585  -43.1159 C.3       10 UNK        -0.0876 
     60 S60        21.4626  -31.7825  -43.7009 S.3       10 UNK        -0.2414 
     61 C61        20.5304  -32.4654  -45.1068 C.3       10 UNK         0.0169 
     62 H62        21.0040  -22.7269  -43.5940 H         1 UNK         0.0903 
     63 H63        20.2548  -21.2354  -43.0543 H         1 UNK         0.0903 
     64 H64        19.6320  -22.7725  -42.4707 H         1 UNK         0.0903 
     65 H65        18.2307  -23.4190  -45.9720 H         1 UNK         0.3096 
     66 H66        20.5283  -24.6257  -44.7798 H         1 UNK         0.1121 
     67 H67        19.1927  -25.1789  -47.0394 H         1 UNK         0.0849 
     68 H68        18.2861  -26.2726  -46.0364 H         1 UNK         0.0849 
     69 H69        20.7532  -28.3899  -48.1954 H         1 UNK         0.0865 
     70 H70        19.2187  -27.5651  -48.1808 H         1 UNK         0.0865 
     71 H71        21.2267  -30.1599  -46.3753 H         1 UNK         0.1346 
     72 H72        17.8006  -32.4493  -45.1991 H         1 UNK         0.1412 
     73 H73        17.2812  -28.7218  -47.2601 H         1 UNK         0.1426 
     74 H74        15.5969  -31.7766  -45.8383 H         1 UNK         0.0716 
     75 H75        15.4035  -30.5571  -47.0725 H         1 UNK         0.0716 
     76 H76        16.2792  -31.1532  -43.3886 H         1 UNK         0.0695 
     77 H77        15.3948  -29.9445  -42.4899 H         1 UNK         0.0695 
     78 H78        17.9611  -29.3715  -44.0526 H         1 UNK         0.0983 
     79 H79        17.4404  -27.2877  -43.8711 H         1 UNK         0.3095 
     80 H80        15.8457  -25.1812  -42.2659 H         1 UNK         0.0454 
     81 H81        16.7801  -25.1660  -39.9799 H         1 UNK         0.0851 
     82 H82        17.5010  -23.8645  -40.9087 H         1 UNK         0.0851 
     83 H83        18.4145  -25.3403  -40.5971 H         1 UNK         0.0851 
     84 H84        17.1289  -24.5065  -43.9371 H         1 UNK         0.2976 
     85 H85        19.5660  -28.2357  -42.4457 H         1 UNK         0.3116 
     86 H86        20.5511  -30.4687  -40.8476 H         1 UNK         0.0646 
     87 H87        19.2554  -29.2543  -39.1177 H         1 UNK         0.0847 
     88 H88        20.0300  -27.7331  -39.5544 H         1 UNK         0.0847 
     89 H89        20.9731  -29.0265  -38.8271 H         1 UNK         0.0847 
     90 H90        21.0265  -27.0829  -41.9701 H         1 UNK         0.3040 
     91 H91        22.7588  -25.9145  -42.6434 H         1 UNK         0.1015 
     92 H92        24.3219  -26.9566  -44.2287 H         1 UNK         0.0786 
     93 H93        22.7617  -27.7172  -44.4374 H         1 UNK         0.0786 
     94 H94        24.0229  -28.5626  -43.5603 H         1 UNK         0.0786 
     95 H95        25.6223  -26.7835  -42.7278 H         1 UNK         0.3172 
     96 H96        26.3782  -26.3828  -39.9059 H         1 UNK         0.0595 
     97 H97        28.0794  -26.7094  -42.4381 H         1 UNK         0.0839 
     98 H98        28.6754  -26.2663  -40.8454 H         1 UNK         0.0839 
     99 H99        27.6051  -25.1750  -41.7074 H         1 UNK         0.0839 
    100 H100       25.8122  -29.0339  -42.0477 H         1 UNK         0.2998 
    101 H101       27.7469  -30.8930  -40.9666 H         1 UNK         0.0822 
    102 H102       26.5694  -32.4921  -42.4922 H         1 UNK         0.0787 
    103 H103       26.9733  -31.0033  -43.3298 H         1 UNK         0.0787 
    104 H104       25.3161  -31.2977  -42.7992 H         1 UNK         0.0787 
    105 H105       24.4642  -30.0338  -40.1631 H         1 UNK         0.3055 
    106 H106       22.9214  -30.6957  -38.7283 H         1 UNK         0.1106 
    107 H107       24.6766  -30.8185  -36.9421 H         1 UNK         0.0828 
    108 H108       23.4126  -32.0168  -36.7167 H         1 UNK         0.0828 
    109 H109       24.9736  -32.5080  -37.3490 H         1 UNK         0.0828 
    110 H110       22.8103  -31.6104  -41.1764 H         1 UNK         0.2931 
    111 H111       22.7442  -34.4709  -41.4108 H         1 UNK         0.0412 
    112 H112       19.0325  -33.6871  -40.1839 H         1 UNK         0.3472 
    113 H113       20.3796  -32.6306  -39.8515 H         1 UNK         0.3472 
    114 H114       22.0994  -34.1226  -43.7269 H         1 UNK         0.0970 
    115 H115       23.4293  -33.0951  -43.3018 H         1 UNK         0.0970 
    116 H116       21.2291  -32.8281  -45.8619 H         1 UNK         0.0612 
    117 H117       19.9569  -33.3293  -44.7665 H         1 UNK         0.0612 
@<TRIPOS>BOND
     1    1    2 1    
     2    1   62 1    
     3    1   63 1    
     4    1   64 1    
     5    2    3 2    
     6    2    4 am   BACKBONE|DICT|INTERRES
     7    4    5 1    
     8    4   65 1    
     9    5    6 1    
    10    5   25 1    
    11    5   66 1    
    12    6    7 1    
    13    6   67 1    
    14    6   68 1    
    15    7    8 1    
    16    8    9 1    
    17    8   69 1    
    18    8   70 1    
    19    9   10 ar   
    20    9   14 ar   
    21   10   11 ar   
    22   10   71 1    
    23   11   12 ar   
    24   11   61 1    
    25   12   13 ar   
    26   12   72 1    
    27   13   14 ar   
    28   13   15 1    
    29   14   73 1    
    30   15   16 1    
    31   15   74 1    
    32   15   75 1    
    33   16   17 1    
    34   17   18 1    
    35   17   76 1    
    36   17   77 1    
    37   18   19 1    
    38   18   27 1    
    39   18   78 1    
    40   19   20 am   BACKBONE|DICT|INTERRES
    41   19   79 1    
    42   20   21 2    
    43   20   22 1    
    44   22   23 1    
    45   22   24 1    
    46   22   80 1    
    47   23   81 1    
    48   23   82 1    
    49   23   83 1    
    50   24   25 am   BACKBONE|DICT|INTERRES
    51   24   84 1    
    52   25   26 2    
    53   27   28 2    
    54   27   29 am   BACKBONE|DICT|INTERRES
    55   29   30 1    
    56   29   85 1    
    57   30   31 1    
    58   30   32 1    
    59   30   86 1    
    60   31   87 1    
    61   31   88 1    
    62   31   89 1    
    63   32   33 2    
    64   32   34 am   BACKBONE|DICT|INTERRES
    65   34   35 1    
    66   34   90 1    
    67   35   36 1    
    68   35   37 1    
    69   35   91 1    
    70   36   92 1    
    71   36   93 1    
    72   36   94 1    
    73   37   38 2    
    74   37   39 am   BACKBONE|DICT|INTERRES
    75   39   40 1    
    76   39   95 1    
    77   40   41 1    
    78   40   42 1    
    79   40   96 1    
    80   41   97 1    
    81   41   98 1    
    82   41   99 1    
    83   42   43 2    
    84   42   44 am   BACKBONE|DICT|INTERRES
    85   44   45 1    
    86   44  100 1    
    87   45   46 1    
    88   45   47 1    
    89   45  101 1    
    90   46  102 1    
    91   46  103 1    
    92   46  104 1    
    93   47   48 2    
    94   47   49 am   BACKBONE|DICT|INTERRES
    95   49   50 1    
    96   49  105 1    
    97   50   51 1    
    98   50   52 1    
    99   50  106 1    
   100   51  107 1    
   101   51  108 1    
   102   51  109 1    
   103   52   53 2    
   104   52   54 am   BACKBONE|DICT|INTERRES
   105   54   55 1    
   106   54  110 1    
   107   55   56 1    
   108   55   59 1    
   109   55  111 1    
   110   56   57 am   BACKBONE|DICT|INTERRES
   111   56   58 2    
   112   57  112 1    
   113   57  113 1    
   114   59   60 1    
   115   59  114 1    
   116   59  115 1    
   117   60   61 1    
   118   61  116 1    
   119   61  117 1    
@<TRIPOS>SUBSTRUCTURE
     1 UNK         1 GROUP             0       ****    0 ROOT    
