@<TRIPOS>MOLECULE
3R8
117   119    1
SMALL
USER_CHARGES


@<TRIPOS>ATOM
      1 CA         18.0725  -27.1440  -49.5656 C.3       0 UNK        -0.2013 
      2 C          18.2206  -27.4852  -48.0908 C.2       0 UNK         0.4866 
      3 O          19.0402  -28.3334  -47.7376 O.2       0 UNK        -0.5176 
      4 N          17.4352  -26.8317  -47.2255 N.am      1 UNK        -0.4884 
      5 CA         17.4396  -27.0161  -45.7706 C.3       1 UNK         0.0853 
      6 C6         16.1052  -26.5529  -45.1268 C.3       10 UNK        -0.0849 
      7 S7         14.7081  -27.6218  -45.6133 S.3       10 UNK        -0.2776 
      8 C8         14.2828  -28.4432  -44.0347 C.3       10 UNK         0.0316 
      9 C9         15.4556  -29.1726  -43.3830 C.ar      10 UNK        -0.0863 
     10 C10        16.2817  -30.0149  -44.1365 C.ar      10 UNK        -0.1009 
     11 C11        17.3747  -30.6494  -43.5435 C.ar      10 UNK        -0.0712 
     12 C12        17.6064  -30.4900  -42.1782 C.ar      10 UNK        -0.0894 
     13 C13        16.7978  -29.6485  -41.4118 C.ar      10 UNK        -0.0745 
     14 C14        15.7179  -28.9972  -42.0178 C.ar      10 UNK        -0.0972 
     15 C15        17.1100  -29.4502  -39.9332 C.3       10 UNK         0.0209 
     16 S16        17.6797  -27.7662  -39.4992 S.3       10 UNK        -0.2568 
     17 C17        18.6770  -27.1967  -40.9214 C.3       10 UNK        -0.0983 
     18 CA         19.9312  -28.0516  -41.2657 C.3       3 UNK         0.0876 
     19 N          20.3665  -27.7925  -42.6396 N.am      3 UNK        -0.4424 
     20 C          20.9658  -26.6746  -43.0783 C.2       2 UNK         0.4918 
     21 O          21.3571  -25.7635  -42.3483 O.2       2 UNK        -0.4875 
     22 CA         21.0787  -26.5227  -44.6044 C.3       2 UNK         0.0481 
     23 CB         22.2677  -27.3280  -45.1493 C.3       2 UNK        -0.1831 
     24 N          19.8424  -26.9291  -45.2805 N.am      2 UNK        -0.4498 
     25 C          18.6577  -26.3167  -45.1358 C.2       1 UNK         0.5027 
     26 O          18.5094  -25.2490  -44.5376 O.2       1 UNK        -0.4969 
     27 C          21.1126  -27.9564  -40.2788 C.2       3 UNK         0.5005 
     28 O          22.1144  -28.6404  -40.4939 O.2       3 UNK        -0.5279 
     29 N          20.9954  -27.1099  -39.2477 N.am      4 UNK        -0.4463 
     30 CA         22.0027  -26.8760  -38.2093 C.3       4 UNK         0.0283 
     31 CB         21.3778  -26.0168  -37.0977 C.3       4 UNK        -0.1875 
     32 C          23.3184  -26.2418  -38.7038 C.2       4 UNK         0.4949 
     33 O          24.3037  -26.2799  -37.9665 O.2       4 UNK        -0.5039 
     34 N          23.3355  -25.6779  -39.9217 N.am      5 UNK        -0.4663 
     35 CA         24.5467  -25.1477  -40.5605 C.3       5 UNK         0.0242 
     36 CB         24.1526  -24.0993  -41.6146 C.3       5 UNK        -0.1982 
     37 C          25.4279  -26.2463  -41.1883 C.2       5 UNK         0.5017 
     38 O          26.5395  -25.9423  -41.6234 O.2       5 UNK        -0.5012 
     39 N          24.9283  -27.4865  -41.2343 N.am      6 UNK        -0.4439 
     40 CA         25.6145  -28.6762  -41.7260 C.3       6 UNK         0.0297 
     41 CB         25.0475  -29.0234  -43.1166 C.3       6 UNK        -0.2006 
     42 C          25.4117  -29.8185  -40.7182 C.2       6 UNK         0.4892 
     43 O          24.8093  -29.6187  -39.6607 O.2       6 UNK        -0.5089 
     44 N          25.8847  -31.0200  -41.0676 N.am      7 UNK        -0.4243 
     45 CA         25.6220  -32.2575  -40.3283 C.3       7 UNK         0.0196 
     46 CB         26.7652  -33.2534  -40.6013 C.3       7 UNK        -0.2007 
     47 C          24.2378  -32.8208  -40.7066 C.2       7 UNK         0.5020 
     48 O          24.1571  -33.9059  -41.2834 O.2       7 UNK        -0.5147 
     49 N          23.1785  -32.0398  -40.4389 N.am      8 UNK        -0.4734 
     50 CA         21.7720  -32.2957  -40.7921 C.3       8 UNK         0.0238 
     51 CB         21.1946  -33.4352  -39.9268 C.3       8 UNK        -0.1912 
     52 C          21.5792  -32.5323  -42.3050 C.2       8 UNK         0.5038 
     53 O          20.9320  -33.5002  -42.7071 O.2       8 UNK        -0.5046 
     54 N          22.1946  -31.6499  -43.1022 N.am      9 UNK        -0.4200 
     55 CA         22.3202  -31.7099  -44.5707 C.3       9 UNK         0.0839 
     56 C          23.3119  -32.7903  -45.0998 C.2       9 UNK         0.5513 
     57 N          24.0126  -33.5421  -44.2591 N.am      9 UNK        -0.7519 
     58 O          23.4787  -32.9272  -46.3089 O.2       9 UNK        -0.4960 
     59 C59        20.9649  -31.7536  -45.3376 C.3       10 UNK        -0.0876 
     60 S60        19.7897  -30.4596  -44.8174 S.3       10 UNK        -0.2414 
     61 C61        18.3436  -31.4706  -44.3713 C.3       10 UNK         0.0169 
     62 H62        17.3089  -26.3849  -49.7348 H         1 UNK         0.0903 
     63 H63        19.0167  -26.7699  -49.9602 H         1 UNK         0.0903 
     64 H64        17.7962  -28.0344  -50.1297 H         1 UNK         0.0903 
     65 H65        16.7851  -26.1403  -47.5720 H         1 UNK         0.3096 
     66 H66        17.5566  -28.0810  -45.5623 H         1 UNK         0.1121 
     67 H67        15.8744  -25.5249  -45.4125 H         1 UNK         0.0849 
     68 H68        16.1818  -26.5479  -44.0375 H         1 UNK         0.0849 
     69 H69        13.8724  -27.6932  -43.3566 H         1 UNK         0.0865 
     70 H70        13.4824  -29.1614  -44.2167 H         1 UNK         0.0865 
     71 H71        16.0958  -30.1471  -45.1937 H         1 UNK         0.1346 
     72 H72        18.4434  -31.0016  -41.7233 H         1 UNK         0.1412 
     73 H73        15.0924  -28.3444  -41.4239 H         1 UNK         0.1426 
     74 H74        16.2177  -29.6770  -39.3481 H         1 UNK         0.0716 
     75 H75        17.8693  -30.1617  -39.6047 H         1 UNK         0.0716 
     76 H76        18.9495  -26.1519  -40.7623 H         1 UNK         0.0695 
     77 H77        18.0066  -27.1738  -41.7823 H         1 UNK         0.0695 
     78 H78        19.6517  -29.1008  -41.2435 H         1 UNK         0.0983 
     79 H79        20.1109  -28.4944  -43.3209 H         1 UNK         0.3095 
     80 H80        21.2522  -25.4677  -44.8262 H         1 UNK         0.0454 
     81 H81        22.3854  -27.1833  -46.2232 H         1 UNK         0.0851 
     82 H82        23.1978  -27.0105  -44.6766 H         1 UNK         0.0851 
     83 H83        22.1546  -28.3964  -44.9664 H         1 UNK         0.0851 
     84 H84        19.8770  -27.7560  -45.8682 H         1 UNK         0.2976 
     85 H85        20.1282  -26.5985  -39.1578 H         1 UNK         0.3116 
     86 H86        22.2621  -27.8477  -37.7836 H         1 UNK         0.0646 
     87 H87        20.4984  -26.4978  -36.6688 H         1 UNK         0.0847 
     88 H88        22.0848  -25.8564  -36.2824 H         1 UNK         0.0847 
     89 H89        21.0793  -25.0347  -37.4667 H         1 UNK         0.0847 
     90 H90        22.4952  -25.6964  -40.4897 H         1 UNK         0.3040 
     91 H91        25.1512  -24.6464  -39.8010 H         1 UNK         0.1015 
     92 H92        23.6470  -24.5515  -42.4678 H         1 UNK         0.0786 
     93 H93        25.0351  -23.5872  -42.0002 H         1 UNK         0.0786 
     94 H94        23.4944  -23.3378  -41.1959 H         1 UNK         0.0786 
     95 H95        24.0373  -27.6730  -40.7826 H         1 UNK         0.3172 
     96 H96        26.6887  -28.4967  -41.8040 H         1 UNK         0.0595 
     97 H97        23.9717  -29.1950  -43.0774 H         1 UNK         0.0839 
     98 H98        25.5123  -29.9146  -43.5391 H         1 UNK         0.0839 
     99 H99        25.2266  -28.2117  -43.8217 H         1 UNK         0.0839 
    100 H100       26.3657  -31.1181  -41.9503 H         1 UNK         0.2998 
    101 H101       25.6109  -32.0506  -39.2558 H         1 UNK         0.0822 
    102 H102       26.6110  -34.1838  -40.0530 H         1 UNK         0.0787 
    103 H103       26.8393  -33.5068  -41.6598 H         1 UNK         0.0787 
    104 H104       27.7269  -32.8487  -40.2853 H         1 UNK         0.0787 
    105 H105       23.3686  -31.1404  -40.0045 H         1 UNK         0.3055 
    106 H106       21.2189  -31.3859  -40.5526 H         1 UNK         0.1106 
    107 H107       20.1283  -33.5672  -40.1148 H         1 UNK         0.0828 
    108 H108       21.6816  -34.3885  -40.1354 H         1 UNK         0.0828 
    109 H109       21.3116  -33.2245  -38.8639 H         1 UNK         0.0828 
    110 H110       22.7086  -30.9060  -42.6557 H         1 UNK         0.2931 
    111 H111       22.7945  -30.7644  -44.8345 H         1 UNK         0.0412 
    112 H112       24.6537  -34.2213  -44.6371 H         1 UNK         0.3472 
    113 H113       23.8747  -33.4941  -43.2566 H         1 UNK         0.3472 
    114 H114       21.1345  -31.6195  -46.4075 H         1 UNK         0.0970 
    115 H115       20.5052  -32.7378  -45.2359 H         1 UNK         0.0970 
    116 H116       17.8646  -31.8419  -45.2785 H         1 UNK         0.0612 
    117 H117       18.6586  -32.3453  -43.8004 H         1 UNK         0.0612 
@<TRIPOS>BOND
     1    1    2 1    
     2    1   62 1    
     3    1   63 1    
     4    1   64 1    
     5    2    3 2    
     6    2    4 am   BACKBONE|DICT|INTERRES
     7    4    5 1    
     8    4   65 1    
     9    5    6 1    
    10    5   25 1    
    11    5   66 1    
    12    6    7 1    
    13    6   67 1    
    14    6   68 1    
    15    7    8 1    
    16    8    9 1    
    17    8   69 1    
    18    8   70 1    
    19    9   10 ar   
    20    9   14 ar   
    21   10   11 ar   
    22   10   71 1    
    23   11   12 ar   
    24   11   61 1    
    25   12   13 ar   
    26   12   72 1    
    27   13   14 ar   
    28   13   15 1    
    29   14   73 1    
    30   15   16 1    
    31   15   74 1    
    32   15   75 1    
    33   16   17 1    
    34   17   18 1    
    35   17   76 1    
    36   17   77 1    
    37   18   19 1    
    38   18   27 1    
    39   18   78 1    
    40   19   20 am   BACKBONE|DICT|INTERRES
    41   19   79 1    
    42   20   21 2    
    43   20   22 1    
    44   22   23 1    
    45   22   24 1    
    46   22   80 1    
    47   23   81 1    
    48   23   82 1    
    49   23   83 1    
    50   24   25 am   BACKBONE|DICT|INTERRES
    51   24   84 1    
    52   25   26 2    
    53   27   28 2    
    54   27   29 am   BACKBONE|DICT|INTERRES
    55   29   30 1    
    56   29   85 1    
    57   30   31 1    
    58   30   32 1    
    59   30   86 1    
    60   31   87 1    
    61   31   88 1    
    62   31   89 1    
    63   32   33 2    
    64   32   34 am   BACKBONE|DICT|INTERRES
    65   34   35 1    
    66   34   90 1    
    67   35   36 1    
    68   35   37 1    
    69   35   91 1    
    70   36   92 1    
    71   36   93 1    
    72   36   94 1    
    73   37   38 2    
    74   37   39 am   BACKBONE|DICT|INTERRES
    75   39   40 1    
    76   39   95 1    
    77   40   41 1    
    78   40   42 1    
    79   40   96 1    
    80   41   97 1    
    81   41   98 1    
    82   41   99 1    
    83   42   43 2    
    84   42   44 am   BACKBONE|DICT|INTERRES
    85   44   45 1    
    86   44  100 1    
    87   45   46 1    
    88   45   47 1    
    89   45  101 1    
    90   46  102 1    
    91   46  103 1    
    92   46  104 1    
    93   47   48 2    
    94   47   49 am   BACKBONE|DICT|INTERRES
    95   49   50 1    
    96   49  105 1    
    97   50   51 1    
    98   50   52 1    
    99   50  106 1    
   100   51  107 1    
   101   51  108 1    
   102   51  109 1    
   103   52   53 2    
   104   52   54 am   BACKBONE|DICT|INTERRES
   105   54   55 1    
   106   54  110 1    
   107   55   56 1    
   108   55   59 1    
   109   55  111 1    
   110   56   57 am   BACKBONE|DICT|INTERRES
   111   56   58 2    
   112   57  112 1    
   113   57  113 1    
   114   59   60 1    
   115   59  114 1    
   116   59  115 1    
   117   60   61 1    
   118   61  116 1    
   119   61  117 1    
@<TRIPOS>SUBSTRUCTURE
     1 UNK         1 GROUP             0       ****    0 ROOT    
