@<TRIPOS>MOLECULE
3R8
117   119    1
SMALL
USER_CHARGES


@<TRIPOS>ATOM
      1 CA         18.0678  -28.4577  -49.6539 C.3       0 UNK        -0.2013 
      2 C          18.0906  -28.5952  -48.1388 C.2       0 UNK         0.4866 
      3 O          18.4418  -29.6574  -47.6267 O.2       0 UNK        -0.5176 
      4 N          17.7113  -27.5317  -47.4190 N.am      1 UNK        -0.4884 
      5 CA         17.7354  -27.4575  -45.9553 C.3       1 UNK         0.0853 
      6 C6         16.8504  -26.2868  -45.4645 C.3       10 UNK        -0.0849 
      7 S7         16.5853  -26.2203  -43.6629 S.3       10 UNK        -0.2776 
      8 C8         15.6225  -27.7352  -43.3401 C.3       10 UNK         0.0316 
      9 C9         16.4722  -28.7680  -42.6140 C.ar      10 UNK        -0.0863 
     10 C10        16.7766  -30.0023  -43.1976 C.ar      10 UNK        -0.1009 
     11 C11        17.5694  -30.9335  -42.5149 C.ar      10 UNK        -0.0712 
     12 C12        18.0605  -30.6152  -41.2427 C.ar      10 UNK        -0.0894 
     13 C13        17.7433  -29.3934  -40.6415 C.ar      10 UNK        -0.0745 
     14 C14        16.9402  -28.4829  -41.3295 C.ar      10 UNK        -0.0972 
     15 C15        18.2212  -29.0749  -39.2309 C.3       10 UNK         0.0209 
     16 S16        19.8679  -28.2976  -39.2018 S.3       10 UNK        -0.2568 
     17 C17        19.5210  -26.5942  -39.7683 C.3       10 UNK        -0.0983 
     18 CA         20.4935  -26.1711  -40.8941 C.3       3 UNK         0.0876 
     19 N          20.3091  -26.9715  -42.1054 N.am      3 UNK        -0.4424 
     20 C          21.2507  -27.7282  -42.6745 C.2       2 UNK         0.4918 
     21 O          22.3699  -27.9053  -42.1894 O.2       2 UNK        -0.4875 
     22 CA         20.9114  -28.4182  -44.0032 C.3       2 UNK         0.0481 
     23 CB         21.1330  -29.9278  -43.8811 C.3       2 UNK        -0.1831 
     24 N          19.5382  -28.1960  -44.4620 N.am      2 UNK        -0.4498 
     25 C          19.1931  -27.3659  -45.4543 C.2       1 UNK         0.5027 
     26 O          19.9693  -26.5704  -45.9903 O.2       1 UNK        -0.4969 
     27 C          20.3194  -24.6900  -41.2946 C.2       3 UNK         0.5005 
     28 O          19.5607  -24.4124  -42.2243 O.2       3 UNK        -0.5279 
     29 N          20.9943  -23.7235  -40.6530 N.am      4 UNK        -0.4463 
     30 CA         21.8709  -23.8211  -39.4781 C.3       4 UNK         0.0283 
     31 CB         21.8428  -22.4693  -38.7423 C.3       4 UNK        -0.1875 
     32 C          23.3229  -24.2474  -39.7801 C.2       4 UNK         0.4949 
     33 O          24.1466  -24.2251  -38.8659 O.2       4 UNK        -0.5039 
     34 N          23.6209  -24.6466  -41.0272 N.am      5 UNK        -0.4663 
     35 CA         24.9265  -25.1752  -41.4548 C.3       5 UNK         0.0242 
     36 CB         24.9022  -25.4131  -42.9738 C.3       5 UNK        -0.1982 
     37 C          25.3688  -26.4572  -40.7165 C.2       5 UNK         0.5017 
     38 O          26.5706  -26.6927  -40.5897 O.2       5 UNK        -0.5012 
     39 N          24.3893  -27.2373  -40.2369 N.am      6 UNK        -0.4439 
     40 CA         24.5068  -28.4676  -39.4492 C.3       6 UNK         0.0297 
     41 CB         25.2318  -28.2121  -38.1104 C.3       6 UNK        -0.2006 
     42 C          25.0967  -29.6423  -40.2496 C.2       6 UNK         0.4892 
     43 O          25.8233  -30.4649  -39.6894 O.2       6 UNK        -0.5089 
     44 N          24.7460  -29.7194  -41.5418 N.am      7 UNK        -0.4243 
     45 CA         25.1090  -30.8337  -42.4256 C.3       7 UNK         0.0196 
     46 CB         25.1709  -30.3352  -43.8801 C.3       7 UNK        -0.2007 
     47 C          24.1731  -32.0509  -42.2740 C.2       7 UNK         0.5020 
     48 O          24.4960  -33.1242  -42.7842 O.2       7 UNK        -0.5147 
     49 N          23.0314  -31.8659  -41.5889 N.am      8 UNK        -0.4734 
     50 CA         22.0368  -32.8767  -41.1889 C.3       8 UNK         0.0238 
     51 CB         22.6460  -33.8284  -40.1377 C.3       8 UNK        -0.1912 
     52 C          21.3696  -33.6515  -42.3460 C.2       8 UNK         0.5038 
     53 O          20.7679  -34.6982  -42.1014 O.2       8 UNK        -0.5046 
     54 N          21.4742  -33.1238  -43.5726 N.am      9 UNK        -0.4200 
     55 CA         20.9926  -33.7198  -44.8304 C.3       9 UNK         0.0839 
     56 C          21.7265  -35.0393  -45.2218 C.2       9 UNK         0.5513 
     57 N          22.9359  -35.2860  -44.7289 N.am      9 UNK        -0.7519 
     58 O          21.2138  -35.8363  -46.0036 O.2       9 UNK        -0.4960 
     59 C59        19.4398  -33.8230  -44.9111 C.3       10 UNK        -0.0876 
     60 S60        18.6294  -32.1920  -44.7658 S.3       10 UNK        -0.2414 
     61 C61        17.8603  -32.3030  -43.1199 C.3       10 UNK         0.0169 
     62 H62        19.0669  -28.6152  -50.0593 H         1 UNK         0.0903 
     63 H63        17.4024  -29.2036  -50.0881 H         1 UNK         0.0903 
     64 H64        17.7249  -27.4727  -49.9700 H         1 UNK         0.0903 
     65 H65        17.4669  -26.6756  -47.8967 H         1 UNK         0.3096 
     66 H66        17.3059  -28.3904  -45.5868 H         1 UNK         0.1121 
     67 H67        15.8683  -26.3403  -45.9376 H         1 UNK         0.0849 
     68 H68        17.2772  -25.3319  -45.7777 H         1 UNK         0.0849 
     69 H69        14.7653  -27.4802  -42.7152 H         1 UNK         0.0865 
     70 H70        15.2112  -28.1375  -44.2671 H         1 UNK         0.0865 
     71 H71        16.3912  -30.2487  -44.1779 H         1 UNK         0.1346 
     72 H72        18.6677  -31.3294  -40.7038 H         1 UNK         0.1412 
     73 H73        16.6726  -27.5429  -40.8677 H         1 UNK         0.1426 
     74 H74        18.2628  -29.9947  -38.6456 H         1 UNK         0.0716 
     75 H75        17.5055  -28.4281  -38.7208 H         1 UNK         0.0716 
     76 H76        19.6156  -25.9377  -38.9026 H         1 UNK         0.0695 
     77 H77        18.4878  -26.4996  -40.0984 H         1 UNK         0.0695 
     78 H78        21.5045  -26.3104  -40.5180 H         1 UNK         0.0983 
     79 H79        19.4404  -26.8182  -42.5988 H         1 UNK         0.3095 
     80 H80        21.6210  -28.0395  -44.7415 H         1 UNK         0.0454 
     81 H81        20.4516  -30.3760  -43.1575 H         1 UNK         0.0851 
     82 H82        22.1444  -30.1487  -43.5536 H         1 UNK         0.0851 
     83 H83        20.9907  -30.4210  -44.8424 H         1 UNK         0.0851 
     84 H84        18.8320  -28.7929  -44.0512 H         1 UNK         0.2976 
     85 H85        20.8595  -22.7825  -40.9948 H         1 UNK         0.3116 
     86 H86        21.4648  -24.5670  -38.7943 H         1 UNK         0.0646 
     87 H87        22.2671  -21.6693  -39.3501 H         1 UNK         0.0847 
     88 H88        22.4158  -22.5107  -37.8148 H         1 UNK         0.0847 
     89 H89        20.8257  -22.1835  -38.4730 H         1 UNK         0.0847 
     90 H90        22.9076  -24.5774  -41.7381 H         1 UNK         0.3040 
     91 H91        25.6761  -24.4104  -41.2396 H         1 UNK         0.1015 
     92 H92        24.1481  -26.1476  -43.2582 H         1 UNK         0.0786 
     93 H93        25.8657  -25.7849  -43.3258 H         1 UNK         0.0786 
     94 H94        24.6958  -24.4911  -43.5176 H         1 UNK         0.0786 
     95 H95        23.4492  -27.0058  -40.5278 H         1 UNK         0.3172 
     96 H96        23.4831  -28.7597  -39.2095 H         1 UNK         0.0595 
     97 H97        25.1727  -29.0866  -37.4613 H         1 UNK         0.0839 
     98 H98        24.7846  -27.3775  -37.5702 H         1 UNK         0.0839 
     99 H99        26.2890  -27.9894  -38.2568 H         1 UNK         0.0839 
    100 H100       24.1261  -29.0076  -41.9151 H         1 UNK         0.2998 
    101 H101       26.1097  -31.1818  -42.1597 H         1 UNK         0.0822 
    102 H102       25.3788  -31.1551  -44.5692 H         1 UNK         0.0787 
    103 H103       24.2443  -29.8635  -44.2017 H         1 UNK         0.0787 
    104 H104       25.9691  -29.6031  -44.0048 H         1 UNK         0.0787 
    105 H105       22.8618  -30.9343  -41.2360 H         1 UNK         0.3055 
    106 H106       21.2275  -32.3283  -40.7038 H         1 UNK         0.1106 
    107 H107       21.8885  -34.4911  -39.7172 H         1 UNK         0.0828 
    108 H108       23.4254  -34.4581  -40.5683 H         1 UNK         0.0828 
    109 H109       23.0837  -33.2747  -39.3070 H         1 UNK         0.0828 
    110 H110       22.0164  -32.2804  -43.6705 H         1 UNK         0.2931 
    111 H111       21.2962  -33.0152  -45.6056 H         1 UNK         0.0412 
    112 H112       23.4129  -36.1342  -44.9913 H         1 UNK         0.3472 
    113 H113       23.3781  -34.6319  -44.0959 H         1 UNK         0.3472 
    114 H114       19.0533  -34.5110  -44.1580 H         1 UNK         0.0970 
    115 H115       19.1379  -34.2387  -45.8739 H         1 UNK         0.0970 
    116 H116       18.5110  -32.8749  -42.4580 H         1 UNK         0.0612 
    117 H117       16.9297  -32.8660  -43.2000 H         1 UNK         0.0612 
@<TRIPOS>BOND
     1    1    2 1    
     2    1   62 1    
     3    1   63 1    
     4    1   64 1    
     5    2    3 2    
     6    2    4 am   BACKBONE|DICT|INTERRES
     7    4    5 1    
     8    4   65 1    
     9    5    6 1    
    10    5   25 1    
    11    5   66 1    
    12    6    7 1    
    13    6   67 1    
    14    6   68 1    
    15    7    8 1    
    16    8    9 1    
    17    8   69 1    
    18    8   70 1    
    19    9   10 ar   
    20    9   14 ar   
    21   10   11 ar   
    22   10   71 1    
    23   11   12 ar   
    24   11   61 1    
    25   12   13 ar   
    26   12   72 1    
    27   13   14 ar   
    28   13   15 1    
    29   14   73 1    
    30   15   16 1    
    31   15   74 1    
    32   15   75 1    
    33   16   17 1    
    34   17   18 1    
    35   17   76 1    
    36   17   77 1    
    37   18   19 1    
    38   18   27 1    
    39   18   78 1    
    40   19   20 am   BACKBONE|DICT|INTERRES
    41   19   79 1    
    42   20   21 2    
    43   20   22 1    
    44   22   23 1    
    45   22   24 1    
    46   22   80 1    
    47   23   81 1    
    48   23   82 1    
    49   23   83 1    
    50   24   25 am   BACKBONE|DICT|INTERRES
    51   24   84 1    
    52   25   26 2    
    53   27   28 2    
    54   27   29 am   BACKBONE|DICT|INTERRES
    55   29   30 1    
    56   29   85 1    
    57   30   31 1    
    58   30   32 1    
    59   30   86 1    
    60   31   87 1    
    61   31   88 1    
    62   31   89 1    
    63   32   33 2    
    64   32   34 am   BACKBONE|DICT|INTERRES
    65   34   35 1    
    66   34   90 1    
    67   35   36 1    
    68   35   37 1    
    69   35   91 1    
    70   36   92 1    
    71   36   93 1    
    72   36   94 1    
    73   37   38 2    
    74   37   39 am   BACKBONE|DICT|INTERRES
    75   39   40 1    
    76   39   95 1    
    77   40   41 1    
    78   40   42 1    
    79   40   96 1    
    80   41   97 1    
    81   41   98 1    
    82   41   99 1    
    83   42   43 2    
    84   42   44 am   BACKBONE|DICT|INTERRES
    85   44   45 1    
    86   44  100 1    
    87   45   46 1    
    88   45   47 1    
    89   45  101 1    
    90   46  102 1    
    91   46  103 1    
    92   46  104 1    
    93   47   48 2    
    94   47   49 am   BACKBONE|DICT|INTERRES
    95   49   50 1    
    96   49  105 1    
    97   50   51 1    
    98   50   52 1    
    99   50  106 1    
   100   51  107 1    
   101   51  108 1    
   102   51  109 1    
   103   52   53 2    
   104   52   54 am   BACKBONE|DICT|INTERRES
   105   54   55 1    
   106   54  110 1    
   107   55   56 1    
   108   55   59 1    
   109   55  111 1    
   110   56   57 am   BACKBONE|DICT|INTERRES
   111   56   58 2    
   112   57  112 1    
   113   57  113 1    
   114   59   60 1    
   115   59  114 1    
   116   59  115 1    
   117   60   61 1    
   118   61  116 1    
   119   61  117 1    
@<TRIPOS>SUBSTRUCTURE
     1 UNK         1 GROUP             0       ****    0 ROOT    
