@<TRIPOS>MOLECULE
3R8
117   119    1
SMALL
USER_CHARGES


@<TRIPOS>ATOM
      1 CA         14.2701  -23.7496  -39.5356 C.3       0 UNK        -0.2013 
      2 C          15.1570  -24.1923  -40.6898 C.2       0 UNK         0.4866 
      3 O          15.7413  -23.3494  -41.3713 O.2       0 UNK        -0.5176 
      4 N          15.2563  -25.5076  -40.9207 N.am      1 UNK        -0.4884 
      5 CA         16.1180  -26.1103  -41.9407 C.3       1 UNK         0.0853 
      6 C6         15.7069  -27.5801  -42.2143 C.3       10 UNK        -0.0849 
      7 S7         16.5782  -28.3598  -43.6234 S.3       10 UNK        -0.2776 
      8 C8         17.9147  -29.2295  -42.7444 C.3       10 UNK         0.0316 
      9 C9         18.6387  -30.2260  -43.6318 C.ar      10 UNK        -0.0863 
     10 C10        18.1932  -31.5470  -43.6832 C.ar      10 UNK        -0.1009 
     11 C11        18.8914  -32.5076  -44.4193 C.ar      10 UNK        -0.0712 
     12 C12        20.0198  -32.1192  -45.1480 C.ar      10 UNK        -0.0894 
     13 C13        20.4685  -30.7928  -45.1305 C.ar      10 UNK        -0.0745 
     14 C14        19.7710  -29.8500  -44.3620 C.ar      10 UNK        -0.0972 
     15 C15        21.6885  -30.4209  -45.9762 C.3       10 UNK         0.0209 
     16 S16        22.7546  -29.1184  -45.2713 S.3       10 UNK        -0.2568 
     17 C17        22.0949  -27.6211  -46.0870 C.3       10 UNK        -0.0983 
     18 CA         22.3102  -26.2980  -45.2997 C.3       3 UNK         0.0876 
     19 N          21.5806  -26.2862  -44.0349 N.am      3 UNK        -0.4424 
     20 C          20.4323  -25.6457  -43.8202 C.2       2 UNK         0.4918 
     21 O          19.7965  -25.0504  -44.6949 O.2       2 UNK        -0.4875 
     22 CA         19.9035  -25.6563  -42.3835 C.3       2 UNK         0.0481 
     23 CB         20.4548  -24.4721  -41.5711 C.3       2 UNK        -0.1831 
     24 N          18.4501  -25.6011  -42.4566 N.am      2 UNK        -0.4498 
     25 C          17.5969  -26.0116  -41.5157 C.2       1 UNK         0.5027 
     26 O          17.9348  -26.3789  -40.3877 O.2       1 UNK        -0.4969 
     27 C          23.7881  -25.9584  -45.0216 C.2       3 UNK         0.5005 
     28 O          24.1494  -25.6335  -43.8864 O.2       3 UNK        -0.5279 
     29 N          24.6288  -26.0309  -46.0622 N.am      4 UNK        -0.4463 
     30 CA         26.0752  -25.8144  -45.9609 C.3       4 UNK         0.0283 
     31 CB         26.6689  -25.6744  -47.3721 C.3       4 UNK        -0.1875 
     32 C          26.8039  -26.9245  -45.1803 C.2       4 UNK         0.4949 
     33 O          27.8593  -26.6579  -44.6049 O.2       4 UNK        -0.5039 
     34 N          26.2460  -28.1434  -45.1881 N.am      5 UNK        -0.4663 
     35 CA         26.8232  -29.3116  -44.5253 C.3       5 UNK         0.0242 
     36 CB         26.3647  -30.5921  -45.2436 C.3       5 UNK        -0.1982 
     37 C          26.4827  -29.3796  -43.0290 C.2       5 UNK         0.5017 
     38 O          27.3713  -29.6886  -42.2337 O.2       5 UNK        -0.5012 
     39 N          25.2167  -29.1254  -42.6690 N.am      6 UNK        -0.4439 
     40 CA         24.6721  -29.3214  -41.3240 C.3       6 UNK         0.0297 
     41 CB         24.6188  -30.8333  -40.9926 C.3       6 UNK        -0.2006 
     42 C          23.2760  -28.6863  -41.2146 C.2       6 UNK         0.4892 
     43 O          22.8158  -28.0211  -42.1440 O.2       6 UNK        -0.5089 
     44 N          22.6156  -28.9357  -40.0811 N.am      7 UNK        -0.4243 
     45 CA         21.1908  -28.7200  -39.8574 C.3       7 UNK         0.0196 
     46 CB         20.9909  -27.5561  -38.8743 C.3       7 UNK        -0.2007 
     47 C          20.6155  -30.0289  -39.3032 C.2       7 UNK         0.5020 
     48 O          21.3659  -30.8300  -38.7384 O.2       7 UNK        -0.5147 
     49 N          19.3069  -30.2420  -39.5044 N.am      8 UNK        -0.4734 
     50 CA         18.5487  -31.4541  -39.1397 C.3       8 UNK         0.0238 
     51 CB         18.3622  -31.5244  -37.6090 C.3       8 UNK        -0.1912 
     52 C          19.1387  -32.7599  -39.7241 C.2       8 UNK         0.5038 
     53 O          19.0695  -33.8098  -39.0825 O.2       8 UNK        -0.5046 
     54 N          19.7298  -32.6509  -40.9213 N.am      9 UNK        -0.4200 
     55 CA         20.4894  -33.6896  -41.6370 C.3       9 UNK         0.0839 
     56 C          21.8443  -34.0813  -40.9713 C.2       9 UNK         0.5513 
     57 N          22.3423  -33.3545  -39.9774 N.am      9 UNK        -0.7519 
     58 O          22.4769  -35.0500  -41.3842 O.2       9 UNK        -0.4960 
     59 C59        19.6493  -34.9404  -42.0387 C.3       10 UNK        -0.0876 
     60 S60        18.0106  -34.5959  -42.7722 S.3       10 UNK        -0.2414 
     61 C61        18.4285  -33.9617  -44.4332 C.3       10 UNK         0.0169 
     62 H62        14.8569  -23.1959  -38.8031 H         1 UNK         0.0903 
     63 H63        13.4771  -23.0973  -39.9004 H         1 UNK         0.0903 
     64 H64        13.8065  -24.5957  -39.0287 H         1 UNK         0.0903 
     65 H65        14.7794  -26.1546  -40.3086 H         1 UNK         0.3096 
     66 H66        15.9802  -25.5439  -42.8651 H         1 UNK         0.1121 
     67 H67        15.8275  -28.1901  -41.3170 H         1 UNK         0.0849 
     68 H68        14.6413  -27.6159  -42.4471 H         1 UNK         0.0849 
     69 H69        18.6317  -28.5103  -42.3509 H         1 UNK         0.0865 
     70 H70        17.4978  -29.7512  -41.8821 H         1 UNK         0.0865 
     71 H71        17.3140  -31.8361  -43.1236 H         1 UNK         0.1346 
     72 H72        20.5524  -32.8556  -45.7344 H         1 UNK         0.1412 
     73 H73        20.1072  -28.8238  -44.3255 H         1 UNK         0.1426 
     74 H74        21.3563  -30.1274  -46.9727 H         1 UNK         0.0716 
     75 H75        22.3158  -31.3028  -46.1147 H         1 UNK         0.0716 
     76 H76        22.5385  -27.5535  -47.0813 H         1 UNK         0.0695 
     77 H77        21.0266  -27.7573  -46.2620 H         1 UNK         0.0695 
     78 H78        21.9482  -25.4800  -45.9267 H         1 UNK         0.0983 
     79 H79        22.0648  -26.7521  -43.2670 H         1 UNK         0.3095 
     80 H80        20.2040  -26.5911  -41.9106 H         1 UNK         0.0454 
     81 H81        21.5446  -24.5017  -41.5318 H         1 UNK         0.0851 
     82 H82        20.1673  -23.5156  -42.0091 H         1 UNK         0.0851 
     83 H83        20.0940  -24.4924  -40.5428 H         1 UNK         0.0851 
     84 H84        18.1038  -25.3364  -43.3716 H         1 UNK         0.2976 
     85 H85        24.2685  -26.2858  -46.9708 H         1 UNK         0.3116 
     86 H86        26.2418  -24.8754  -45.4283 H         1 UNK         0.0646 
     87 H87        27.7422  -25.4842  -47.3256 H         1 UNK         0.0847 
     88 H88        26.2187  -24.8419  -47.9130 H         1 UNK         0.0847 
     89 H89        26.5253  -26.5791  -47.9642 H         1 UNK         0.0847 
     90 H90        25.3689  -28.2730  -45.6718 H         1 UNK         0.3040 
     91 H91        27.9114  -29.2597  -44.6108 H         1 UNK         0.1015 
     92 H92        26.6539  -30.5828  -46.2946 H         1 UNK         0.0786 
     93 H93        25.2839  -30.7254  -45.1939 H         1 UNK         0.0786 
     94 H94        26.8200  -31.4743  -44.7914 H         1 UNK         0.0786 
     95 H95        24.5408  -28.8093  -43.3552 H         1 UNK         0.3172 
     96 H96        25.3218  -28.8135  -40.6086 H         1 UNK         0.0595 
     97 H97        25.5964  -31.3067  -41.0765 H         1 UNK         0.0839 
     98 H98        23.9379  -31.3634  -41.6602 H         1 UNK         0.0839 
     99 H99        24.2817  -31.0148  -39.9718 H         1 UNK         0.0839 
    100 H100       23.0439  -29.5441  -39.3949 H         1 UNK         0.2998 
    101 H101       20.6880  -28.5017  -40.8003 H         1 UNK         0.0822 
    102 H102       21.4101  -26.6311  -39.2706 H         1 UNK         0.0787 
    103 H103       19.9311  -27.3767  -38.6889 H         1 UNK         0.0787 
    104 H104       21.4641  -27.7543  -37.9117 H         1 UNK         0.0787 
    105 H105       18.7687  -29.5035  -39.9353 H         1 UNK         0.3055 
    106 H106       17.5586  -31.3515  -39.5871 H         1 UNK         0.1106 
    107 H107       19.3099  -31.6864  -37.0943 H         1 UNK         0.0828 
    108 H108       17.9220  -30.6065  -37.2198 H         1 UNK         0.0828 
    109 H109       17.6972  -32.3430  -37.3308 H         1 UNK         0.0828 
    110 H110       19.7331  -31.7447  -41.3639 H         1 UNK         0.2931 
    111 H111       20.7958  -33.2063  -42.5635 H         1 UNK         0.0412 
    112 H112       23.2210  -33.6282  -39.5685 H         1 UNK         0.3472 
    113 H113       21.8466  -32.5501  -39.6084 H         1 UNK         0.3472 
    114 H114       19.4834  -35.5681  -41.1616 H         1 UNK         0.0970 
    115 H115       20.2092  -35.5599  -42.7416 H         1 UNK         0.0970 
    116 H116       17.5417  -34.0327  -45.0640 H         1 UNK         0.0612 
    117 H117       19.1820  -34.6101  -44.8829 H         1 UNK         0.0612 
@<TRIPOS>BOND
     1    1    2 1    
     2    1   62 1    
     3    1   63 1    
     4    1   64 1    
     5    2    3 2    
     6    2    4 am   BACKBONE|DICT|INTERRES
     7    4    5 1    
     8    4   65 1    
     9    5    6 1    
    10    5   25 1    
    11    5   66 1    
    12    6    7 1    
    13    6   67 1    
    14    6   68 1    
    15    7    8 1    
    16    8    9 1    
    17    8   69 1    
    18    8   70 1    
    19    9   10 ar   
    20    9   14 ar   
    21   10   11 ar   
    22   10   71 1    
    23   11   12 ar   
    24   11   61 1    
    25   12   13 ar   
    26   12   72 1    
    27   13   14 ar   
    28   13   15 1    
    29   14   73 1    
    30   15   16 1    
    31   15   74 1    
    32   15   75 1    
    33   16   17 1    
    34   17   18 1    
    35   17   76 1    
    36   17   77 1    
    37   18   19 1    
    38   18   27 1    
    39   18   78 1    
    40   19   20 am   BACKBONE|DICT|INTERRES
    41   19   79 1    
    42   20   21 2    
    43   20   22 1    
    44   22   23 1    
    45   22   24 1    
    46   22   80 1    
    47   23   81 1    
    48   23   82 1    
    49   23   83 1    
    50   24   25 am   BACKBONE|DICT|INTERRES
    51   24   84 1    
    52   25   26 2    
    53   27   28 2    
    54   27   29 am   BACKBONE|DICT|INTERRES
    55   29   30 1    
    56   29   85 1    
    57   30   31 1    
    58   30   32 1    
    59   30   86 1    
    60   31   87 1    
    61   31   88 1    
    62   31   89 1    
    63   32   33 2    
    64   32   34 am   BACKBONE|DICT|INTERRES
    65   34   35 1    
    66   34   90 1    
    67   35   36 1    
    68   35   37 1    
    69   35   91 1    
    70   36   92 1    
    71   36   93 1    
    72   36   94 1    
    73   37   38 2    
    74   37   39 am   BACKBONE|DICT|INTERRES
    75   39   40 1    
    76   39   95 1    
    77   40   41 1    
    78   40   42 1    
    79   40   96 1    
    80   41   97 1    
    81   41   98 1    
    82   41   99 1    
    83   42   43 2    
    84   42   44 am   BACKBONE|DICT|INTERRES
    85   44   45 1    
    86   44  100 1    
    87   45   46 1    
    88   45   47 1    
    89   45  101 1    
    90   46  102 1    
    91   46  103 1    
    92   46  104 1    
    93   47   48 2    
    94   47   49 am   BACKBONE|DICT|INTERRES
    95   49   50 1    
    96   49  105 1    
    97   50   51 1    
    98   50   52 1    
    99   50  106 1    
   100   51  107 1    
   101   51  108 1    
   102   51  109 1    
   103   52   53 2    
   104   52   54 am   BACKBONE|DICT|INTERRES
   105   54   55 1    
   106   54  110 1    
   107   55   56 1    
   108   55   59 1    
   109   55  111 1    
   110   56   57 am   BACKBONE|DICT|INTERRES
   111   56   58 2    
   112   57  112 1    
   113   57  113 1    
   114   59   60 1    
   115   59  114 1    
   116   59  115 1    
   117   60   61 1    
   118   61  116 1    
   119   61  117 1    
@<TRIPOS>SUBSTRUCTURE
     1 UNK         1 GROUP             0       ****    0 ROOT    
