@<TRIPOS>MOLECULE
3R8
117   119    1
SMALL
USER_CHARGES


@<TRIPOS>ATOM
      1 CA         15.5663  -25.2070  -45.8037 C.3       0 UNK        -0.2013 
      2 C          14.6230  -25.3036  -44.6076 C.2       0 UNK         0.4866 
      3 O          13.5318  -24.7381  -44.6549 O.2       0 UNK        -0.5176 
      4 N          14.9781  -26.0063  -43.5234 N.am      1 UNK        -0.4884 
      5 CA         16.2546  -26.6903  -43.2813 C.3       1 UNK         0.0853 
      6 C6         16.0370  -28.0882  -42.6338 C.3       10 UNK        -0.0849 
      7 S7         15.1950  -29.2330  -43.7848 S.3       10 UNK        -0.2776 
      8 C8         16.1135  -30.8004  -43.5495 C.3       10 UNK         0.0316 
      9 C9         17.4436  -30.9239  -44.3002 C.ar      10 UNK        -0.0863 
     10 C10        17.9387  -32.2020  -44.5859 C.ar      10 UNK        -0.1009 
     11 C11        19.1736  -32.3698  -45.2218 C.ar      10 UNK        -0.0712 
     12 C12        19.9277  -31.2448  -45.5681 C.ar      10 UNK        -0.0894 
     13 C13        19.4511  -29.9633  -45.2859 C.ar      10 UNK        -0.0745 
     14 C14        18.2074  -29.8112  -44.6711 C.ar      10 UNK        -0.0972 
     15 C15        20.2836  -28.7343  -45.6060 C.3       10 UNK         0.0209 
     16 S16        21.2975  -28.2817  -44.1667 S.3       10 UNK        -0.2568 
     17 C17        21.6567  -26.5193  -44.4913 C.3       10 UNK        -0.0983 
     18 CA         21.6855  -25.6438  -43.2098 C.3       3 UNK         0.0876 
     19 N          20.5109  -25.8755  -42.3675 N.am      3 UNK        -0.4424 
     20 C          20.0893  -25.0791  -41.3780 C.2       2 UNK         0.4918 
     21 O          20.6291  -24.0106  -41.0853 O.2       2 UNK        -0.4875 
     22 CA         18.8468  -25.5631  -40.5972 C.3       2 UNK         0.0481 
     23 CB         18.1815  -24.4394  -39.7740 C.3       2 UNK        -0.1831 
     24 N          17.8558  -26.2545  -41.4393 N.am      2 UNK        -0.4498 
     25 C          17.1950  -25.7471  -42.4939 C.2       1 UNK         0.5027 
     26 O          17.3259  -24.5827  -42.8766 O.2       1 UNK        -0.4969 
     27 C          22.9964  -25.8373  -42.4192 C.2       3 UNK         0.5005 
     28 O          23.0798  -26.7256  -41.5657 O.2       3 UNK        -0.5279 
     29 N          24.0051  -25.0165  -42.7408 N.am      4 UNK        -0.4463 
     30 CA         25.3588  -25.1060  -42.1908 C.3       4 UNK         0.0283 
     31 CB         26.1224  -23.8135  -42.5218 C.3       4 UNK        -0.1875 
     32 C          26.1109  -26.3270  -42.7440 C.2       4 UNK         0.4949 
     33 O          25.8332  -26.7621  -43.8644 O.2       4 UNK        -0.5039 
     34 N          27.0547  -26.8474  -41.9474 N.am      5 UNK        -0.4663 
     35 CA         27.9329  -28.0055  -42.1898 C.3       5 UNK         0.0242 
     36 CB         28.8324  -27.7908  -43.4234 C.3       5 UNK        -0.1982 
     37 C          27.1990  -29.3575  -42.2617 C.2       5 UNK         0.5017 
     38 O          27.6118  -30.3013  -41.5875 O.2       5 UNK        -0.5012 
     39 N          26.1194  -29.4232  -43.0498 N.am      6 UNK        -0.4439 
     40 CA         25.2189  -30.5727  -43.1605 C.3       6 UNK         0.0297 
     41 CB         24.3704  -30.4337  -44.4335 C.3       6 UNK        -0.2006 
     42 C          24.3282  -30.7651  -41.9193 C.2       6 UNK         0.4892 
     43 O          23.8776  -31.8863  -41.6846 O.2       6 UNK        -0.5089 
     44 N          24.0983  -29.6863  -41.1511 N.am      7 UNK        -0.4243 
     45 CA         23.4002  -29.6431  -39.8580 C.3       7 UNK         0.0196 
     46 CB         24.2669  -30.3072  -38.7674 C.3       7 UNK        -0.2007 
     47 C          21.9726  -30.2184  -39.9154 C.2       7 UNK         0.5020 
     48 O          21.5698  -30.9672  -39.0225 O.2       7 UNK        -0.5147 
     49 N          21.2528  -29.8977  -41.0016 N.am      8 UNK        -0.4734 
     50 CA         19.9113  -30.3913  -41.3485 C.3       8 UNK         0.0238 
     51 CB         18.8648  -29.8448  -40.3537 C.3       8 UNK        -0.1912 
     52 C          19.8237  -31.9258  -41.4983 C.2       8 UNK         0.5038 
     53 O          18.7347  -32.4835  -41.3504 O.2       8 UNK        -0.5046 
     54 N          20.9662  -32.5801  -41.7566 N.am      9 UNK        -0.4200 
     55 CA         21.1423  -34.0397  -41.7781 C.3       9 UNK         0.0839 
     56 C          20.8709  -34.7328  -40.4062 C.2       9 UNK         0.5513 
     57 N          20.9378  -34.0243  -39.2834 N.am      9 UNK        -0.7519 
     58 O          20.6295  -35.9361  -40.3483 O.2       9 UNK        -0.4960 
     59 C59        20.4250  -34.7204  -42.9798 C.3       10 UNK        -0.0876 
     60 S60        21.1536  -34.2182  -44.5774 S.3       10 UNK        -0.2414 
     61 C61        19.6881  -33.7624  -45.5566 C.3       10 UNK         0.0169 
     62 H62        15.7238  -26.1883  -46.2507 H         1 UNK         0.0903 
     63 H63        15.1453  -24.5573  -46.5708 H         1 UNK         0.0903 
     64 H64        16.5296  -24.7899  -45.5120 H         1 UNK         0.0903 
     65 H65        14.3307  -26.0339  -42.7485 H         1 UNK         0.3096 
     66 H66        16.7664  -26.8575  -44.2286 H         1 UNK         0.1121 
     67 H67        15.4429  -28.0088  -41.7214 H         1 UNK         0.0849 
     68 H68        16.9840  -28.5441  -42.3459 H         1 UNK         0.0849 
     69 H69        16.2907  -30.9623  -42.4854 H         1 UNK         0.0865 
     70 H70        15.4537  -31.6085  -43.8693 H         1 UNK         0.0865 
     71 H71        17.3645  -33.0731  -44.3009 H         1 UNK         0.1346 
     72 H72        20.8908  -31.3695  -46.0441 H         1 UNK         0.1412 
     73 H73        17.8619  -28.8136  -44.4647 H         1 UNK         0.1426 
     74 H74        19.6251  -27.9093  -45.8815 H         1 UNK         0.0716 
     75 H75        20.9314  -28.9173  -46.4646 H         1 UNK         0.0716 
     76 H76        22.5973  -26.4481  -45.0414 H         1 UNK         0.0695 
     77 H77        20.8952  -26.1230  -45.1640 H         1 UNK         0.0695 
     78 H78        21.6476  -24.5985  -43.5251 H         1 UNK         0.0983 
     79 H79        20.0412  -26.7541  -42.5201 H         1 UNK         0.3095 
     80 H80        19.2145  -26.3068  -39.8891 H         1 UNK         0.0454 
     81 H81        18.8798  -24.0195  -39.0491 H         1 UNK         0.0851 
     82 H82        17.3230  -24.8112  -39.2150 H         1 UNK         0.0851 
     83 H83        17.8406  -23.6194  -40.4067 H         1 UNK         0.0851 
     84 H84        17.6651  -27.2109  -41.1802 H         1 UNK         0.2976 
     85 H85        23.8694  -24.3452  -43.4829 H         1 UNK         0.3116 
     86 H86        25.2823  -25.2004  -41.1053 H         1 UNK         0.0646 
     87 H87        26.2285  -23.6707  -43.5981 H         1 UNK         0.0847 
     88 H88        27.1270  -23.8317  -42.0971 H         1 UNK         0.0847 
     89 H89        25.6176  -22.9373  -42.1143 H         1 UNK         0.0847 
     90 H90        27.1800  -26.4141  -41.0419 H         1 UNK         0.3040 
     91 H91        28.5900  -28.0610  -41.3198 H         1 UNK         0.1015 
     92 H92        28.2587  -27.7419  -44.3492 H         1 UNK         0.0786 
     93 H93        29.5456  -28.6094  -43.5300 H         1 UNK         0.0786 
     94 H94        29.4083  -26.8694  -43.3376 H         1 UNK         0.0786 
     95 H95        25.8688  -28.5749  -43.5554 H         1 UNK         0.3172 
     96 H96        25.8270  -31.4744  -43.2593 H         1 UNK         0.0595 
     97 H97        23.8601  -29.4726  -44.4707 H         1 UNK         0.0839 
     98 H98        23.6102  -31.2146  -44.4935 H         1 UNK         0.0839 
     99 H99        24.9879  -30.5139  -45.3280 H         1 UNK         0.0839 
    100 H100       24.4465  -28.7948  -41.4775 H         1 UNK         0.2998 
    101 H101       23.2918  -28.5892  -39.5979 H         1 UNK         0.0822 
    102 H102       23.8186  -30.1841  -37.7807 H         1 UNK         0.0787 
    103 H103       24.3832  -31.3775  -38.9418 H         1 UNK         0.0787 
    104 H104       25.2622  -29.8644  -38.7280 H         1 UNK         0.0787 
    105 H105       21.6901  -29.2942  -41.6872 H         1 UNK         0.3055 
    106 H106       19.6797  -29.9869  -42.3324 H         1 UNK         0.1106 
    107 H107       18.9422  -28.7644  -40.2480 H         1 UNK         0.0828 
    108 H108       17.8509  -30.0738  -40.6818 H         1 UNK         0.0828 
    109 H109       18.9850  -30.2841  -39.3629 H         1 UNK         0.0828 
    110 H110       21.8293  -32.0519  -41.8142 H         1 UNK         0.2931 
    111 H111       22.2124  -34.1874  -41.9273 H         1 UNK         0.0412 
    112 H112       21.1450  -33.0322  -39.3062 H         1 UNK         0.3472 
    113 H113       20.7727  -34.4822  -38.4012 H         1 UNK         0.3472 
    114 H114       19.3553  -34.5086  -42.9629 H         1 UNK         0.0970 
    115 H115       20.5163  -35.8063  -42.9229 H         1 UNK         0.0970 
    116 H116       18.9098  -34.5150  -45.4210 H         1 UNK         0.0612 
    117 H117       19.9564  -33.7911  -46.6135 H         1 UNK         0.0612 
@<TRIPOS>BOND
     1    1    2 1    
     2    1   62 1    
     3    1   63 1    
     4    1   64 1    
     5    2    3 2    
     6    2    4 am   BACKBONE|DICT|INTERRES
     7    4    5 1    
     8    4   65 1    
     9    5    6 1    
    10    5   25 1    
    11    5   66 1    
    12    6    7 1    
    13    6   67 1    
    14    6   68 1    
    15    7    8 1    
    16    8    9 1    
    17    8   69 1    
    18    8   70 1    
    19    9   10 ar   
    20    9   14 ar   
    21   10   11 ar   
    22   10   71 1    
    23   11   12 ar   
    24   11   61 1    
    25   12   13 ar   
    26   12   72 1    
    27   13   14 ar   
    28   13   15 1    
    29   14   73 1    
    30   15   16 1    
    31   15   74 1    
    32   15   75 1    
    33   16   17 1    
    34   17   18 1    
    35   17   76 1    
    36   17   77 1    
    37   18   19 1    
    38   18   27 1    
    39   18   78 1    
    40   19   20 am   BACKBONE|DICT|INTERRES
    41   19   79 1    
    42   20   21 2    
    43   20   22 1    
    44   22   23 1    
    45   22   24 1    
    46   22   80 1    
    47   23   81 1    
    48   23   82 1    
    49   23   83 1    
    50   24   25 am   BACKBONE|DICT|INTERRES
    51   24   84 1    
    52   25   26 2    
    53   27   28 2    
    54   27   29 am   BACKBONE|DICT|INTERRES
    55   29   30 1    
    56   29   85 1    
    57   30   31 1    
    58   30   32 1    
    59   30   86 1    
    60   31   87 1    
    61   31   88 1    
    62   31   89 1    
    63   32   33 2    
    64   32   34 am   BACKBONE|DICT|INTERRES
    65   34   35 1    
    66   34   90 1    
    67   35   36 1    
    68   35   37 1    
    69   35   91 1    
    70   36   92 1    
    71   36   93 1    
    72   36   94 1    
    73   37   38 2    
    74   37   39 am   BACKBONE|DICT|INTERRES
    75   39   40 1    
    76   39   95 1    
    77   40   41 1    
    78   40   42 1    
    79   40   96 1    
    80   41   97 1    
    81   41   98 1    
    82   41   99 1    
    83   42   43 2    
    84   42   44 am   BACKBONE|DICT|INTERRES
    85   44   45 1    
    86   44  100 1    
    87   45   46 1    
    88   45   47 1    
    89   45  101 1    
    90   46  102 1    
    91   46  103 1    
    92   46  104 1    
    93   47   48 2    
    94   47   49 am   BACKBONE|DICT|INTERRES
    95   49   50 1    
    96   49  105 1    
    97   50   51 1    
    98   50   52 1    
    99   50  106 1    
   100   51  107 1    
   101   51  108 1    
   102   51  109 1    
   103   52   53 2    
   104   52   54 am   BACKBONE|DICT|INTERRES
   105   54   55 1    
   106   54  110 1    
   107   55   56 1    
   108   55   59 1    
   109   55  111 1    
   110   56   57 am   BACKBONE|DICT|INTERRES
   111   56   58 2    
   112   57  112 1    
   113   57  113 1    
   114   59   60 1    
   115   59  114 1    
   116   59  115 1    
   117   60   61 1    
   118   61  116 1    
   119   61  117 1    
@<TRIPOS>SUBSTRUCTURE
     1 UNK         1 GROUP             0       ****    0 ROOT    
