@<TRIPOS>MOLECULE
3R8
117   119    1
SMALL
USER_CHARGES


@<TRIPOS>ATOM
      1 CA         17.2009  -24.6753  -49.0774 C.3       0 UNK        -0.2013 
      2 C          18.2902  -25.4624  -48.3641 C.2       0 UNK         0.4866 
      3 O          19.4657  -25.3305  -48.7071 O.2       0 UNK        -0.5176 
      4 N          17.9093  -26.2871  -47.3810 N.am      1 UNK        -0.4884 
      5 CA         18.8247  -27.0828  -46.5583 C.3       1 UNK         0.0853 
      6 C6         18.0669  -28.1256  -45.7021 C.3       10 UNK        -0.0849 
      7 S7         17.4173  -29.5184  -46.6770 S.3       10 UNK        -0.2776 
      8 C8         16.0233  -30.0694  -45.6361 C.3       10 UNK         0.0316 
      9 C9         16.4127  -30.2467  -44.1719 C.ar      10 UNK        -0.0863 
     10 C10        17.2250  -31.3148  -43.7759 C.ar      10 UNK        -0.1009 
     11 C11        17.5772  -31.4766  -42.4315 C.ar      10 UNK        -0.0712 
     12 C12        17.0989  -30.5696  -41.4817 C.ar      10 UNK        -0.0894 
     13 C13        16.3109  -29.4825  -41.8674 C.ar      10 UNK        -0.0745 
     14 C14        15.9627  -29.3326  -43.2127 C.ar      10 UNK        -0.0972 
     15 C15        15.8294  -28.4757  -40.8307 C.3       10 UNK         0.0209 
     16 S16        17.1971  -27.7217  -39.8872 S.3       10 UNK        -0.2568 
     17 C17        18.0818  -26.7538  -41.1594 C.3       10 UNK        -0.0983 
     18 CA         19.5979  -27.0778  -41.2310 C.3       3 UNK         0.0876 
     19 N          20.1636  -26.5810  -42.4868 N.am      3 UNK        -0.4424 
     20 C          21.3448  -26.9278  -43.0113 C.2       2 UNK         0.4918 
     21 O          22.0610  -27.8295  -42.5720 O.2       2 UNK        -0.4875 
     22 CA         21.7571  -26.1641  -44.2850 C.3       2 UNK         0.0481 
     23 CB         23.2367  -26.3857  -44.6495 C.3       2 UNK        -0.1831 
     24 N          20.9171  -26.5891  -45.4038 N.am      2 UNK        -0.4498 
     25 C          19.6549  -26.1948  -45.6134 C.2       1 UNK         0.5027 
     26 O          19.1178  -25.2611  -45.0106 O.2       1 UNK        -0.4969 
     27 C          20.3681  -26.4736  -40.0346 C.2       3 UNK         0.5005 
     28 O          20.9487  -25.3920  -40.1652 O.2       3 UNK        -0.5279 
     29 N          20.3644  -27.1765  -38.8918 N.am      4 UNK        -0.4463 
     30 CA         20.9659  -26.8281  -37.5898 C.3       4 UNK         0.0283 
     31 CB         20.3602  -25.5283  -37.0243 C.3       4 UNK        -0.1875 
     32 C          22.5079  -26.7758  -37.5568 C.2       4 UNK         0.4949 
     33 O          23.0897  -27.0411  -36.5050 O.2       4 UNK        -0.5039 
     34 N          23.1377  -26.4671  -38.6951 N.am      5 UNK        -0.4663 
     35 CA         24.5799  -26.4939  -38.9388 C.3       5 UNK         0.0242 
     36 CB         24.8745  -25.9992  -40.3667 C.3       5 UNK        -0.1982 
     37 C          25.2849  -27.8395  -38.6441 C.2       5 UNK         0.5017 
     38 O          26.3400  -27.8021  -38.0136 O.2       5 UNK        -0.5012 
     39 N          24.7745  -29.0161  -39.0447 N.am      6 UNK        -0.4439 
     40 CA         23.6335  -29.3073  -39.9136 C.3       6 UNK         0.0297 
     41 CB         22.5832  -30.1019  -39.1147 C.3       6 UNK        -0.2006 
     42 C          24.1629  -30.0843  -41.1267 C.2       6 UNK         0.4892 
     43 O          23.9371  -31.2895  -41.2452 O.2       6 UNK        -0.5089 
     44 N          24.9133  -29.3773  -41.9826 N.am      7 UNK        -0.4243 
     45 CA         25.6601  -29.9213  -43.1216 C.3       7 UNK         0.0196 
     46 CB         26.4682  -28.7894  -43.7768 C.3       7 UNK        -0.2007 
     47 C          24.8087  -30.6527  -44.1743 C.2       7 UNK         0.5020 
     48 O          25.3272  -31.5458  -44.8447 O.2       7 UNK        -0.5147 
     49 N          23.5251  -30.2878  -44.2970 N.am      8 UNK        -0.4734 
     50 CA         22.5751  -30.9527  -45.1957 C.3       8 UNK         0.0238 
     51 CB         21.3692  -30.0309  -45.4298 C.3       8 UNK        -0.1912 
     52 C          22.1006  -32.3262  -44.6899 C.2       8 UNK         0.5038 
     53 O          21.5773  -33.1040  -45.4892 O.2       8 UNK        -0.5046 
     54 N          22.2607  -32.5900  -43.3880 N.am      9 UNK        -0.4200 
     55 CA         21.7283  -33.7764  -42.7023 C.3       9 UNK         0.0839 
     56 C          22.7387  -34.9540  -42.6078 C.2       9 UNK         0.5513 
     57 N          23.9592  -34.8282  -43.1162 N.am      9 UNK        -0.7519 
     58 O          22.4039  -36.0094  -42.0758 O.2       9 UNK        -0.4960 
     59 C59        21.1297  -33.4175  -41.3143 C.3       10 UNK        -0.0876 
     60 S60        20.0590  -31.9388  -41.3536 S.3       10 UNK        -0.2414 
     61 C61        18.4972  -32.6086  -41.9997 C.3       10 UNK         0.0169 
     62 H62        17.3784  -23.6059  -48.9681 H         1 UNK         0.0903 
     63 H63        17.2005  -24.9139  -50.1406 H         1 UNK         0.0903 
     64 H64        16.2105  -24.8967  -48.6802 H         1 UNK         0.0903 
     65 H65        16.9319  -26.3511  -47.1350 H         1 UNK         0.3096 
     66 H66        19.5095  -27.6062  -47.2299 H         1 UNK         0.1121 
     67 H67        17.2506  -27.6427  -45.1616 H         1 UNK         0.0849 
     68 H68        18.7142  -28.5610  -44.9372 H         1 UNK         0.0849 
     69 H69        15.2067  -29.3520  -45.7324 H         1 UNK         0.0865 
     70 H70        15.6418  -31.0143  -46.0259 H         1 UNK         0.0865 
     71 H71        17.5922  -32.0099  -44.5188 H         1 UNK         0.1346 
     72 H72        17.3722  -30.6910  -40.4423 H         1 UNK         0.1412 
     73 H73        15.3438  -28.4987  -43.5153 H         1 UNK         0.1426 
     74 H74        15.1614  -28.9834  -40.1337 H         1 UNK         0.0716 
     75 H75        15.2425  -27.6822  -41.2961 H         1 UNK         0.0716 
     76 H76        17.9144  -25.6910  -40.9730 H         1 UNK         0.0695 
     77 H77        17.6190  -26.9585  -42.1263 H         1 UNK         0.0695 
     78 H78        19.7311  -28.1627  -41.2205 H         1 UNK         0.0983 
     79 H79        19.6506  -25.8378  -42.9440 H         1 UNK         0.3095 
     80 H80        21.6122  -25.0971  -44.1028 H         1 UNK         0.0454 
     81 H81        23.4484  -27.4287  -44.8851 H         1 UNK         0.0851 
     82 H82        23.8884  -26.0984  -43.8234 H         1 UNK         0.0851 
     83 H83        23.5253  -25.7844  -45.5116 H         1 UNK         0.0851 
     84 H84        21.2750  -27.3579  -45.9501 H         1 UNK         0.2976 
     85 H85        19.8530  -28.0492  -38.8945 H         1 UNK         0.3116 
     86 H86        20.6785  -27.6377  -36.9166 H         1 UNK         0.0646 
     87 H87        20.6262  -24.6578  -37.6250 H         1 UNK         0.0847 
     88 H88        20.7187  -25.3415  -36.0112 H         1 UNK         0.0847 
     89 H89        19.2726  -25.5845  -36.9774 H         1 UNK         0.0847 
     90 H90        22.5468  -26.1758  -39.4680 H         1 UNK         0.3040 
     91 H91        25.0163  -25.7675  -38.2496 H         1 UNK         0.1015 
     92 H92        24.3383  -26.5714  -41.1229 H         1 UNK         0.0786 
     93 H93        25.9396  -26.0642  -40.5949 H         1 UNK         0.0786 
     94 H94        24.5857  -24.9543  -40.4839 H         1 UNK         0.0786 
     95 H95        25.3133  -29.8364  -38.8040 H         1 UNK         0.3172 
     96 H96        23.1638  -28.4046  -40.2947 H         1 UNK         0.0595 
     97 H97        21.6841  -30.2505  -39.7105 H         1 UNK         0.0839 
     98 H98        22.2843  -29.5797  -38.2077 H         1 UNK         0.0839 
     99 H99        22.9492  -31.0859  -38.8183 H         1 UNK         0.0839 
    100 H100       25.0332  -28.3921  -41.8043 H         1 UNK         0.2998 
    101 H101       26.3643  -30.6538  -42.7213 H         1 UNK         0.0822 
    102 H102       27.0586  -29.1647  -44.6142 H         1 UNK         0.0787 
    103 H103       25.8214  -28.0011  -44.1627 H         1 UNK         0.0787 
    104 H104       27.1650  -28.3374  -43.0705 H         1 UNK         0.0787 
    105 H105       23.1639  -29.5620  -43.6893 H         1 UNK         0.3055 
    106 H106       23.0645  -31.1225  -46.1578 H         1 UNK         0.1106 
    107 H107       20.6076  -30.5206  -46.0392 H         1 UNK         0.0828 
    108 H108       20.8959  -29.7383  -44.4914 H         1 UNK         0.0828 
    109 H109       21.6741  -29.1338  -45.9633 H         1 UNK         0.0828 
    110 H110       22.7462  -31.9251  -42.7959 H         1 UNK         0.2931 
    111 H111       20.9014  -34.1669  -43.2976 H         1 UNK         0.0412 
    112 H112       24.6049  -35.5997  -43.0546 H         1 UNK         0.3472 
    113 H113       24.2397  -33.9651  -43.5559 H         1 UNK         0.3472 
    114 H114       21.9319  -33.2182  -40.6011 H         1 UNK         0.0970 
    115 H115       20.5634  -34.2575  -40.9078 H         1 UNK         0.0970 
    116 H116       18.0107  -33.2098  -41.2304 H         1 UNK         0.0612 
    117 H117       18.7050  -33.2733  -42.8392 H         1 UNK         0.0612 
@<TRIPOS>BOND
     1    1    2 1    
     2    1   62 1    
     3    1   63 1    
     4    1   64 1    
     5    2    3 2    
     6    2    4 am   BACKBONE|DICT|INTERRES
     7    4    5 1    
     8    4   65 1    
     9    5    6 1    
    10    5   25 1    
    11    5   66 1    
    12    6    7 1    
    13    6   67 1    
    14    6   68 1    
    15    7    8 1    
    16    8    9 1    
    17    8   69 1    
    18    8   70 1    
    19    9   10 ar   
    20    9   14 ar   
    21   10   11 ar   
    22   10   71 1    
    23   11   12 ar   
    24   11   61 1    
    25   12   13 ar   
    26   12   72 1    
    27   13   14 ar   
    28   13   15 1    
    29   14   73 1    
    30   15   16 1    
    31   15   74 1    
    32   15   75 1    
    33   16   17 1    
    34   17   18 1    
    35   17   76 1    
    36   17   77 1    
    37   18   19 1    
    38   18   27 1    
    39   18   78 1    
    40   19   20 am   BACKBONE|DICT|INTERRES
    41   19   79 1    
    42   20   21 2    
    43   20   22 1    
    44   22   23 1    
    45   22   24 1    
    46   22   80 1    
    47   23   81 1    
    48   23   82 1    
    49   23   83 1    
    50   24   25 am   BACKBONE|DICT|INTERRES
    51   24   84 1    
    52   25   26 2    
    53   27   28 2    
    54   27   29 am   BACKBONE|DICT|INTERRES
    55   29   30 1    
    56   29   85 1    
    57   30   31 1    
    58   30   32 1    
    59   30   86 1    
    60   31   87 1    
    61   31   88 1    
    62   31   89 1    
    63   32   33 2    
    64   32   34 am   BACKBONE|DICT|INTERRES
    65   34   35 1    
    66   34   90 1    
    67   35   36 1    
    68   35   37 1    
    69   35   91 1    
    70   36   92 1    
    71   36   93 1    
    72   36   94 1    
    73   37   38 2    
    74   37   39 am   BACKBONE|DICT|INTERRES
    75   39   40 1    
    76   39   95 1    
    77   40   41 1    
    78   40   42 1    
    79   40   96 1    
    80   41   97 1    
    81   41   98 1    
    82   41   99 1    
    83   42   43 2    
    84   42   44 am   BACKBONE|DICT|INTERRES
    85   44   45 1    
    86   44  100 1    
    87   45   46 1    
    88   45   47 1    
    89   45  101 1    
    90   46  102 1    
    91   46  103 1    
    92   46  104 1    
    93   47   48 2    
    94   47   49 am   BACKBONE|DICT|INTERRES
    95   49   50 1    
    96   49  105 1    
    97   50   51 1    
    98   50   52 1    
    99   50  106 1    
   100   51  107 1    
   101   51  108 1    
   102   51  109 1    
   103   52   53 2    
   104   52   54 am   BACKBONE|DICT|INTERRES
   105   54   55 1    
   106   54  110 1    
   107   55   56 1    
   108   55   59 1    
   109   55  111 1    
   110   56   57 am   BACKBONE|DICT|INTERRES
   111   56   58 2    
   112   57  112 1    
   113   57  113 1    
   114   59   60 1    
   115   59  114 1    
   116   59  115 1    
   117   60   61 1    
   118   61  116 1    
   119   61  117 1    
@<TRIPOS>SUBSTRUCTURE
     1 UNK         1 GROUP             0       ****    0 ROOT    
