@<TRIPOS>MOLECULE
3R8
117   119    1
SMALL
USER_CHARGES


@<TRIPOS>ATOM
      1 CA         16.0658  -26.9245  -48.7982 C.3       0 UNK        -0.2013 
      2 C          16.3918  -27.1149  -47.3246 C.2       0 UNK         0.4866 
      3 O          16.2236  -28.2148  -46.7988 O.2       0 UNK        -0.5176 
      4 N          16.8552  -26.0524  -46.6560 N.am      1 UNK        -0.4884 
      5 CA         17.2149  -26.0498  -45.2338 C.3       1 UNK         0.0853 
      6 C6         15.9967  -25.7030  -44.3345 C.3       10 UNK        -0.0849 
      7 S7         16.1125  -26.3131  -42.6159 S.3       10 UNK        -0.2776 
      8 C8         15.7649  -28.0962  -42.7795 C.3       10 UNK         0.0316 
      9 C9         17.0295  -28.9154  -42.5620 C.ar      10 UNK        -0.0863 
     10 C10        17.5156  -29.1257  -41.2675 C.ar      10 UNK        -0.1009 
     11 C11        18.7060  -29.8303  -41.0576 C.ar      10 UNK        -0.0712 
     12 C12        19.4153  -30.3170  -42.1595 C.ar      10 UNK        -0.0894 
     13 C13        18.9194  -30.1481  -43.4550 C.ar      10 UNK        -0.0745 
     14 C14        17.7209  -29.4563  -43.6484 C.ar      10 UNK        -0.0972 
     15 C15        19.6546  -30.7324  -44.6500 C.3       10 UNK         0.0209 
     16 S16        20.3431  -29.4405  -45.7292 S.3       10 UNK        -0.2568 
     17 C17        21.9795  -29.0993  -44.9820 C.3       10 UNK        -0.0983 
     18 CA         22.1221  -27.7062  -44.3013 C.3       3 UNK         0.0876 
     19 N          21.4052  -26.6709  -45.0490 N.am      3 UNK        -0.4424 
     20 C          21.6621  -25.3581  -45.0816 C.2       2 UNK         0.4918 
     21 O          22.5900  -24.8251  -44.4748 O.2       2 UNK        -0.4875 
     22 CA         20.6861  -24.4987  -45.9092 C.3       2 UNK         0.0481 
     23 CB         21.2472  -24.2576  -47.3191 C.3       2 UNK        -0.1831 
     24 N          19.3530  -25.1094  -46.0120 N.am      2 UNK        -0.4498 
     25 C          18.4793  -25.1962  -44.9950 C.2       1 UNK         0.5027 
     26 O          18.6730  -24.6570  -43.9066 O.2       1 UNK        -0.4969 
     27 C          21.7915  -27.7385  -42.7898 C.2       3 UNK         0.5005 
     28 O          22.3034  -28.6172  -42.0889 O.2       3 UNK        -0.5279 
     29 N          20.9857  -26.7759  -42.3073 N.am      4 UNK        -0.4463 
     30 CA         20.5359  -26.6102  -40.9196 C.3       4 UNK         0.0283 
     31 CB         19.6364  -25.3705  -40.8132 C.3       4 UNK        -0.1875 
     32 C          21.6514  -26.5436  -39.8647 C.2       4 UNK         0.4949 
     33 O          21.4186  -26.9416  -38.7239 O.2       4 UNK        -0.5039 
     34 N          22.8543  -26.1034  -40.2573 N.am      5 UNK        -0.4663 
     35 CA         24.0711  -26.0753  -39.4353 C.3       5 UNK         0.0242 
     36 CB         25.0545  -25.0629  -40.0524 C.3       5 UNK        -0.1982 
     37 C          24.7119  -27.4699  -39.2331 C.2       5 UNK         0.5017 
     38 O          25.9388  -27.5802  -39.2144 O.2       5 UNK        -0.5012 
     39 N          23.8709  -28.5060  -39.0954 N.am      6 UNK        -0.4439 
     40 CA         24.1898  -29.9264  -38.9129 C.3       6 UNK         0.0297 
     41 CB         24.8079  -30.1637  -37.5190 C.3       6 UNK        -0.2006 
     42 C          25.0393  -30.5280  -40.0519 C.2       6 UNK         0.4892 
     43 O          25.8512  -31.4196  -39.7974 O.2       6 UNK        -0.5089 
     44 N          24.8502  -30.0346  -41.2847 N.am      7 UNK        -0.4243 
     45 CA         25.6538  -30.4337  -42.4442 C.3       7 UNK         0.0196 
     46 CB         25.6338  -29.3155  -43.4964 C.3       7 UNK        -0.2007 
     47 C          25.1928  -31.7641  -43.0586 C.2       7 UNK         0.5020 
     48 O          26.0317  -32.5348  -43.5255 O.2       7 UNK        -0.5147 
     49 N          23.8771  -32.0104  -43.0513 N.am      8 UNK        -0.4734 
     50 CA         23.2487  -33.2127  -43.6105 C.3       8 UNK         0.0238 
     51 CB         23.1016  -33.0714  -45.1409 C.3       8 UNK        -0.1912 
     52 C          21.9166  -33.5205  -42.9056 C.2       8 UNK         0.5038 
     53 O          20.9818  -34.0061  -43.5441 O.2       8 UNK        -0.5046 
     54 N          21.8388  -33.1911  -41.6105 N.am      9 UNK        -0.4200 
     55 CA         20.6502  -33.3741  -40.7656 C.3       9 UNK         0.0839 
     56 C          20.4012  -34.8585  -40.3789 C.2       9 UNK         0.5513 
     57 N          19.1791  -35.1988  -39.9952 N.am      9 UNK        -0.7519 
     58 O          21.3050  -35.6922  -40.3914 O.2       9 UNK        -0.4960 
     59 C59        20.7177  -32.4419  -39.5248 C.3       10 UNK        -0.0876 
     60 S60        19.0957  -31.7401  -39.0652 S.3       10 UNK        -0.2414 
     61 C61        19.2439  -30.0167  -39.6441 C.3       10 UNK         0.0169 
     62 H62        16.6685  -27.5993  -49.4055 H         1 UNK         0.0903 
     63 H63        15.0152  -27.1486  -48.9811 H         1 UNK         0.0903 
     64 H64        16.2578  -25.9049  -49.1319 H         1 UNK         0.0903 
     65 H65        16.9491  -25.1636  -47.1307 H         1 UNK         0.3096 
     66 H66        17.5389  -27.0570  -44.9742 H         1 UNK         0.1121 
     67 H67        15.0833  -26.1203  -44.7615 H         1 UNK         0.0849 
     68 H68        15.8365  -24.6237  -44.3113 H         1 UNK         0.0849 
     69 H69        15.0166  -28.3807  -42.0382 H         1 UNK         0.0865 
     70 H70        15.3244  -28.3131  -43.7542 H         1 UNK         0.0865 
     71 H71        16.9759  -28.7170  -40.4241 H         1 UNK         0.1346 
     72 H72        20.3534  -30.8289  -42.0069 H         1 UNK         0.1412 
     73 H73        17.3384  -29.3293  -44.6520 H         1 UNK         0.1426 
     74 H74        18.9542  -31.3333  -45.2317 H         1 UNK         0.0716 
     75 H75        20.4431  -31.4132  -44.3338 H         1 UNK         0.0716 
     76 H76        22.2606  -29.9138  -44.3136 H         1 UNK         0.0695 
     77 H77        22.6988  -29.1547  -45.8005 H         1 UNK         0.0695 
     78 H78        23.1795  -27.4377  -44.3391 H         1 UNK         0.0983 
     79 H79        20.6249  -27.0183  -45.5880 H         1 UNK         0.3095 
     80 H80        20.5877  -23.5317  -45.4112 H         1 UNK         0.0454 
     81 H81        20.5980  -23.6004  -47.8979 H         1 UNK         0.0851 
     82 H82        22.2272  -23.7806  -47.2716 H         1 UNK         0.0851 
     83 H83        21.3656  -25.1887  -47.8747 H         1 UNK         0.0851 
     84 H84        19.1290  -25.5755  -46.8800 H         1 UNK         0.2976 
     85 H85        20.6215  -26.1021  -42.9659 H         1 UNK         0.3116 
     86 H86        19.9279  -27.4781  -40.6767 H         1 UNK         0.0646 
     87 H87        20.1442  -24.4688  -41.1573 H         1 UNK         0.0847 
     88 H88        19.3218  -25.1977  -39.7829 H         1 UNK         0.0847 
     89 H89        18.7289  -25.4927  -41.4028 H         1 UNK         0.0847 
     90 H90        22.9582  -25.8273  -41.2231 H         1 UNK         0.3040 
     91 H91        23.8022  -25.7130  -38.4405 H         1 UNK         0.1015 
     92 H92        24.5984  -24.0781  -40.1560 H         1 UNK         0.0786 
     93 H93        25.3940  -25.3823  -41.0386 H         1 UNK         0.0786 
     94 H94        25.9390  -24.9401  -39.4258 H         1 UNK         0.0786 
     95 H95        22.8831  -28.2742  -39.1021 H         1 UNK         0.3172 
     96 H96        23.2360  -30.4517  -38.9390 H         1 UNK         0.0595 
     97 H97        24.1786  -29.7520  -36.7300 H         1 UNK         0.0839 
     98 H98        25.7951  -29.7083  -37.4329 H         1 UNK         0.0839 
     99 H99        24.9224  -31.2291  -37.3152 H         1 UNK         0.0839 
    100 H100       24.1230  -29.3411  -41.4319 H         1 UNK         0.2998 
    101 H101       26.6894  -30.5612  -42.1199 H         1 UNK         0.0822 
    102 H102       24.6408  -29.1846  -43.9197 H         1 UNK         0.0787 
    103 H103       25.9520  -28.3624  -43.0733 H         1 UNK         0.0787 
    104 H104       26.3088  -29.5474  -44.3214 H         1 UNK         0.0787 
    105 H105       23.2588  -31.3167  -42.6527 H         1 UNK         0.3055 
    106 H106       23.8929  -34.0721  -43.4099 H         1 UNK         0.1106 
    107 H107       24.0684  -32.9238  -45.6220 H         1 UNK         0.0828 
    108 H108       22.6627  -33.9682  -45.5801 H         1 UNK         0.0828 
    109 H109       22.4643  -32.2294  -45.4102 H         1 UNK         0.0828 
    110 H110       22.6796  -32.8870  -41.1437 H         1 UNK         0.2931 
    111 H111       19.7981  -33.0705  -41.3775 H         1 UNK         0.0412 
    112 H112       18.9926  -36.1527  -39.7272 H         1 UNK         0.3472 
    113 H113       18.4434  -34.5099  -39.9515 H         1 UNK         0.3472 
    114 H114       21.3989  -31.6130  -39.7110 H         1 UNK         0.0970 
    115 H115       21.1362  -32.9583  -38.6584 H         1 UNK         0.0970 
    116 H116       18.6937  -29.3808  -38.9490 H         1 UNK         0.0612 
    117 H117       20.2792  -29.6775  -39.5934 H         1 UNK         0.0612 
@<TRIPOS>BOND
     1    1    2 1    
     2    1   62 1    
     3    1   63 1    
     4    1   64 1    
     5    2    3 2    
     6    2    4 am   BACKBONE|DICT|INTERRES
     7    4    5 1    
     8    4   65 1    
     9    5    6 1    
    10    5   25 1    
    11    5   66 1    
    12    6    7 1    
    13    6   67 1    
    14    6   68 1    
    15    7    8 1    
    16    8    9 1    
    17    8   69 1    
    18    8   70 1    
    19    9   10 ar   
    20    9   14 ar   
    21   10   11 ar   
    22   10   71 1    
    23   11   12 ar   
    24   11   61 1    
    25   12   13 ar   
    26   12   72 1    
    27   13   14 ar   
    28   13   15 1    
    29   14   73 1    
    30   15   16 1    
    31   15   74 1    
    32   15   75 1    
    33   16   17 1    
    34   17   18 1    
    35   17   76 1    
    36   17   77 1    
    37   18   19 1    
    38   18   27 1    
    39   18   78 1    
    40   19   20 am   BACKBONE|DICT|INTERRES
    41   19   79 1    
    42   20   21 2    
    43   20   22 1    
    44   22   23 1    
    45   22   24 1    
    46   22   80 1    
    47   23   81 1    
    48   23   82 1    
    49   23   83 1    
    50   24   25 am   BACKBONE|DICT|INTERRES
    51   24   84 1    
    52   25   26 2    
    53   27   28 2    
    54   27   29 am   BACKBONE|DICT|INTERRES
    55   29   30 1    
    56   29   85 1    
    57   30   31 1    
    58   30   32 1    
    59   30   86 1    
    60   31   87 1    
    61   31   88 1    
    62   31   89 1    
    63   32   33 2    
    64   32   34 am   BACKBONE|DICT|INTERRES
    65   34   35 1    
    66   34   90 1    
    67   35   36 1    
    68   35   37 1    
    69   35   91 1    
    70   36   92 1    
    71   36   93 1    
    72   36   94 1    
    73   37   38 2    
    74   37   39 am   BACKBONE|DICT|INTERRES
    75   39   40 1    
    76   39   95 1    
    77   40   41 1    
    78   40   42 1    
    79   40   96 1    
    80   41   97 1    
    81   41   98 1    
    82   41   99 1    
    83   42   43 2    
    84   42   44 am   BACKBONE|DICT|INTERRES
    85   44   45 1    
    86   44  100 1    
    87   45   46 1    
    88   45   47 1    
    89   45  101 1    
    90   46  102 1    
    91   46  103 1    
    92   46  104 1    
    93   47   48 2    
    94   47   49 am   BACKBONE|DICT|INTERRES
    95   49   50 1    
    96   49  105 1    
    97   50   51 1    
    98   50   52 1    
    99   50  106 1    
   100   51  107 1    
   101   51  108 1    
   102   51  109 1    
   103   52   53 2    
   104   52   54 am   BACKBONE|DICT|INTERRES
   105   54   55 1    
   106   54  110 1    
   107   55   56 1    
   108   55   59 1    
   109   55  111 1    
   110   56   57 am   BACKBONE|DICT|INTERRES
   111   56   58 2    
   112   57  112 1    
   113   57  113 1    
   114   59   60 1    
   115   59  114 1    
   116   59  115 1    
   117   60   61 1    
   118   61  116 1    
   119   61  117 1    
@<TRIPOS>SUBSTRUCTURE
     1 UNK         1 GROUP             0       ****    0 ROOT    
