@<TRIPOS>MOLECULE
3R8
117   119    1
SMALL
USER_CHARGES


@<TRIPOS>ATOM
      1 CA         13.5423  -23.4440  -44.3929 C.3       0 UNK        -0.2013 
      2 C          14.2449  -23.5464  -45.7465 C.2       0 UNK         0.4866 
      3 O          14.0280  -22.6747  -46.5864 O.2       0 UNK        -0.5176 
      4 N          15.0757  -24.5604  -46.0362 N.am      1 UNK        -0.4884 
      5 CA         15.5168  -25.6970  -45.2117 C.3       1 UNK         0.0853 
      6 C6         14.3597  -26.6591  -44.8016 C.3       10 UNK        -0.0849 
      7 S7         13.9321  -27.7733  -46.1773 S.3       10 UNK        -0.2776 
      8 C8         14.6632  -29.3502  -45.6123 C.3       10 UNK         0.0316 
      9 C9         16.1643  -29.2681  -45.3405 C.ar      10 UNK        -0.0863 
     10 C10        16.6842  -29.7244  -44.1234 C.ar      10 UNK        -0.1009 
     11 C11        18.0629  -29.7056  -43.8883 C.ar      10 UNK        -0.0712 
     12 C12        18.9224  -29.2128  -44.8725 C.ar      10 UNK        -0.0894 
     13 C13        18.4160  -28.7237  -46.0792 C.ar      10 UNK        -0.0745 
     14 C14        17.0389  -28.7739  -46.3147 C.ar      10 UNK        -0.0972 
     15 C15        19.3529  -28.1621  -47.1392 C.3       10 UNK         0.0209 
     16 S16        19.8281  -26.4378  -46.7818 S.3       10 UNK        -0.2568 
     17 C17        21.2311  -26.6610  -45.6311 C.3       10 UNK        -0.0983 
     18 CA         21.0335  -25.9823  -44.2497 C.3       3 UNK         0.0876 
     19 N          19.7333  -26.3020  -43.6437 N.am      3 UNK        -0.4424 
     20 C          19.2047  -25.6968  -42.5699 C.2       2 UNK         0.4918 
     21 O          19.7654  -24.7981  -41.9415 O.2       2 UNK        -0.4875 
     22 CA         17.8146  -26.2007  -42.1395 C.3       2 UNK         0.0481 
     23 CB         17.2014  -25.3870  -40.9799 C.3       2 UNK        -0.1831 
     24 N          16.8879  -26.2967  -43.2731 N.am      2 UNK        -0.4498 
     25 C          16.4403  -25.2905  -44.0416 C.2       1 UNK         0.5027 
     26 O          16.7484  -24.1083  -43.8736 O.2       1 UNK        -0.4969 
     27 C          22.2330  -26.3114  -43.3304 C.2       3 UNK         0.5005 
     28 O          23.3122  -25.7532  -43.5334 O.2       3 UNK        -0.5279 
     29 N          22.0218  -27.2092  -42.3520 N.am      4 UNK        -0.4463 
     30 CA         22.9779  -27.6756  -41.3406 C.3       4 UNK         0.0283 
     31 CB         23.3790  -26.5277  -40.3896 C.3       4 UNK        -0.1875 
     32 C          24.1888  -28.4023  -41.9534 C.2       4 UNK         0.4949 
     33 O          25.3283  -28.1555  -41.5535 O.2       4 UNK        -0.5039 
     34 N          23.9153  -29.3060  -42.9066 N.am      5 UNK        -0.4663 
     35 CA         24.9050  -30.1717  -43.5558 C.3       5 UNK         0.0242 
     36 CB         24.2078  -31.0375  -44.6173 C.3       5 UNK        -0.1982 
     37 C          25.6309  -31.0476  -42.5221 C.2       5 UNK         0.5017 
     38 O          24.9658  -31.7766  -41.7813 O.2       5 UNK        -0.5012 
     39 N          26.9596  -30.8951  -42.4306 N.am      6 UNK        -0.4439 
     40 CA         27.8452  -31.5017  -41.4232 C.3       6 UNK         0.0297 
     41 CB         27.9391  -33.0275  -41.6397 C.3       6 UNK        -0.2006 
     42 C          27.4775  -31.1435  -39.9635 C.2       6 UNK         0.4892 
     43 O          27.8413  -31.8853  -39.0502 O.2       6 UNK        -0.5089 
     44 N          26.7410  -30.0346  -39.7759 N.am      7 UNK        -0.4243 
     45 CA         26.1256  -29.5573  -38.5311 C.3       7 UNK         0.0196 
     46 CB         27.2027  -29.1730  -37.4941 C.3       7 UNK        -0.2007 
     47 C          25.0563  -30.5084  -37.9491 C.2       7 UNK         0.5020 
     48 O          24.7140  -30.3710  -36.7737 O.2       7 UNK        -0.5147 
     49 N          24.5431  -31.4484  -38.7574 N.am      8 UNK        -0.4734 
     50 CA         23.6349  -32.5118  -38.3111 C.3       8 UNK         0.0238 
     51 CB         24.4594  -33.7919  -38.0810 C.3       8 UNK        -0.1912 
     52 C          22.4697  -32.7851  -39.2769 C.2       8 UNK         0.5038 
     53 O          21.6181  -33.6112  -38.9457 O.2       8 UNK        -0.5046 
     54 N          22.4479  -32.1249  -40.4436 N.am      9 UNK        -0.4200 
     55 CA         21.5778  -32.4499  -41.5861 C.3       9 UNK         0.0839 
     56 C          21.9798  -33.8026  -42.2533 C.2       9 UNK         0.5513 
     57 N          23.2723  -34.0681  -42.4029 N.am      9 UNK        -0.7519 
     58 O          21.1401  -34.6166  -42.6291 O.2       9 UNK        -0.4960 
     59 C59        20.0599  -32.3031  -41.2652 C.3       10 UNK        -0.0876 
     60 S60        19.0577  -31.9996  -42.7609 S.3       10 UNK        -0.2414 
     61 C61        18.6372  -30.2417  -42.5866 C.3       10 UNK         0.0169 
     62 H62        14.0298  -24.0070  -43.6012 H         1 UNK         0.0903 
     63 H63        13.5119  -22.4031  -44.0716 H         1 UNK         0.0903 
     64 H64        12.5146  -23.7952  -44.4802 H         1 UNK         0.0903 
     65 H65        15.5097  -24.5381  -46.9484 H         1 UNK         0.3096 
     66 H66        16.1935  -26.2446  -45.8675 H         1 UNK         0.1121 
     67 H67        14.6004  -27.2730  -43.9331 H         1 UNK         0.0849 
     68 H68        13.4598  -26.1171  -44.5158 H         1 UNK         0.0849 
     69 H69        14.1260  -29.6846  -44.7232 H         1 UNK         0.0865 
     70 H70        14.4885  -30.1099  -46.3753 H         1 UNK         0.0865 
     71 H71        16.0212  -30.1239  -43.3675 H         1 UNK         0.1346 
     72 H72        19.9884  -29.2249  -44.6983 H         1 UNK         0.1412 
     73 H73        16.6427  -28.4234  -47.2585 H         1 UNK         0.1426 
     74 H74        20.2408  -28.7891  -47.2334 H         1 UNK         0.0716 
     75 H75        18.8670  -28.1878  -48.1158 H         1 UNK         0.0716 
     76 H76        21.4440  -27.7239  -45.5144 H         1 UNK         0.0695 
     77 H77        22.1140  -26.2446  -46.1201 H         1 UNK         0.0695 
     78 H78        21.0491  -24.9013  -44.4058 H         1 UNK         0.0983 
     79 H79        19.1780  -26.9892  -44.1333 H         1 UNK         0.3095 
     80 H80        17.9592  -27.2199  -41.7782 H         1 UNK         0.0454 
     81 H81        17.0752  -24.3355  -41.2392 H         1 UNK         0.0851 
     82 H82        16.2272  -25.7803  -40.6903 H         1 UNK         0.0851 
     83 H83        17.8408  -25.4260  -40.0972 H         1 UNK         0.0851 
     84 H84        16.6044  -27.2369  -43.5150 H         1 UNK         0.2976 
     85 H85        21.0919  -27.5950  -42.2824 H         1 UNK         0.3116 
     86 H86        22.4515  -28.4216  -40.7429 H         1 UNK         0.0646 
     87 H87        23.9778  -26.8988  -39.5575 H         1 UNK         0.0847 
     88 H88        22.5021  -26.0401  -39.9640 H         1 UNK         0.0847 
     89 H89        23.9708  -25.7665  -40.8991 H         1 UNK         0.0847 
     90 H90        22.9530  -29.4400  -43.1765 H         1 UNK         0.3040 
     91 H91        25.6318  -29.5292  -44.0577 H         1 UNK         0.1015 
     92 H92        23.7317  -30.4228  -45.3814 H         1 UNK         0.0786 
     93 H93        23.4441  -31.6819  -44.1818 H         1 UNK         0.0786 
     94 H94        24.9254  -31.6840  -45.1246 H         1 UNK         0.0786 
     95 H95        27.4079  -30.2440  -43.0614 H         1 UNK         0.3172 
     96 H96        28.8366  -31.0804  -41.5955 H         1 UNK         0.0595 
     97 H97        26.9984  -33.5284  -41.4083 H         1 UNK         0.0839 
     98 H98        28.7055  -33.4685  -41.0013 H         1 UNK         0.0839 
     99 H99        28.2024  -33.2678  -42.6697 H         1 UNK         0.0839 
    100 H100       26.4890  -29.4905  -40.5963 H         1 UNK         0.2998 
    101 H101       25.5921  -28.6443  -38.7969 H         1 UNK         0.0822 
    102 H102       27.9420  -28.4962  -37.9223 H         1 UNK         0.0787 
    103 H103       26.7588  -28.6637  -36.6378 H         1 UNK         0.0787 
    104 H104       27.7290  -30.0481  -37.1121 H         1 UNK         0.0787 
    105 H105       24.8935  -31.5165  -39.7070 H         1 UNK         0.3055 
    106 H106       23.1672  -32.2316  -37.3646 H         1 UNK         0.1106 
    107 H107       23.8324  -34.6086  -37.7207 H         1 UNK         0.0828 
    108 H108       24.9404  -34.1286  -39.0004 H         1 UNK         0.0828 
    109 H109       25.2391  -33.6321  -37.3360 H         1 UNK         0.0828 
    110 H110       23.2351  -31.5313  -40.6661 H         1 UNK         0.2931 
    111 H111       21.8170  -31.6876  -42.3282 H         1 UNK         0.0412 
    112 H112       23.9674  -33.3844  -42.1209 H         1 UNK         0.3472 
    113 H113       23.5562  -34.9375  -42.8252 H         1 UNK         0.3472 
    114 H114       19.9011  -31.4819  -40.5650 H         1 UNK         0.0970 
    115 H115       19.6806  -33.1949  -40.7635 H         1 UNK         0.0970 
    116 H116       19.5298  -29.6776  -42.3120 H         1 UNK         0.0612 
    117 H117       17.9231  -30.1165  -41.7711 H         1 UNK         0.0612 
@<TRIPOS>BOND
     1    1    2 1    
     2    1   62 1    
     3    1   63 1    
     4    1   64 1    
     5    2    3 2    
     6    2    4 am   BACKBONE|DICT|INTERRES
     7    4    5 1    
     8    4   65 1    
     9    5    6 1    
    10    5   25 1    
    11    5   66 1    
    12    6    7 1    
    13    6   67 1    
    14    6   68 1    
    15    7    8 1    
    16    8    9 1    
    17    8   69 1    
    18    8   70 1    
    19    9   10 ar   
    20    9   14 ar   
    21   10   11 ar   
    22   10   71 1    
    23   11   12 ar   
    24   11   61 1    
    25   12   13 ar   
    26   12   72 1    
    27   13   14 ar   
    28   13   15 1    
    29   14   73 1    
    30   15   16 1    
    31   15   74 1    
    32   15   75 1    
    33   16   17 1    
    34   17   18 1    
    35   17   76 1    
    36   17   77 1    
    37   18   19 1    
    38   18   27 1    
    39   18   78 1    
    40   19   20 am   BACKBONE|DICT|INTERRES
    41   19   79 1    
    42   20   21 2    
    43   20   22 1    
    44   22   23 1    
    45   22   24 1    
    46   22   80 1    
    47   23   81 1    
    48   23   82 1    
    49   23   83 1    
    50   24   25 am   BACKBONE|DICT|INTERRES
    51   24   84 1    
    52   25   26 2    
    53   27   28 2    
    54   27   29 am   BACKBONE|DICT|INTERRES
    55   29   30 1    
    56   29   85 1    
    57   30   31 1    
    58   30   32 1    
    59   30   86 1    
    60   31   87 1    
    61   31   88 1    
    62   31   89 1    
    63   32   33 2    
    64   32   34 am   BACKBONE|DICT|INTERRES
    65   34   35 1    
    66   34   90 1    
    67   35   36 1    
    68   35   37 1    
    69   35   91 1    
    70   36   92 1    
    71   36   93 1    
    72   36   94 1    
    73   37   38 2    
    74   37   39 am   BACKBONE|DICT|INTERRES
    75   39   40 1    
    76   39   95 1    
    77   40   41 1    
    78   40   42 1    
    79   40   96 1    
    80   41   97 1    
    81   41   98 1    
    82   41   99 1    
    83   42   43 2    
    84   42   44 am   BACKBONE|DICT|INTERRES
    85   44   45 1    
    86   44  100 1    
    87   45   46 1    
    88   45   47 1    
    89   45  101 1    
    90   46  102 1    
    91   46  103 1    
    92   46  104 1    
    93   47   48 2    
    94   47   49 am   BACKBONE|DICT|INTERRES
    95   49   50 1    
    96   49  105 1    
    97   50   51 1    
    98   50   52 1    
    99   50  106 1    
   100   51  107 1    
   101   51  108 1    
   102   51  109 1    
   103   52   53 2    
   104   52   54 am   BACKBONE|DICT|INTERRES
   105   54   55 1    
   106   54  110 1    
   107   55   56 1    
   108   55   59 1    
   109   55  111 1    
   110   56   57 am   BACKBONE|DICT|INTERRES
   111   56   58 2    
   112   57  112 1    
   113   57  113 1    
   114   59   60 1    
   115   59  114 1    
   116   59  115 1    
   117   60   61 1    
   118   61  116 1    
   119   61  117 1    
@<TRIPOS>SUBSTRUCTURE
     1 UNK         1 GROUP             0       ****    0 ROOT    
