@<TRIPOS>MOLECULE
3R8
117   119    1
SMALL
USER_CHARGES


@<TRIPOS>ATOM
      1 CA         13.7215  -25.3374  -41.4900 C.3       0 UNK        -0.2013 
      2 C          14.6226  -25.3703  -42.7154 C.2       0 UNK         0.4866 
      3 O          14.3737  -24.6437  -43.6783 O.2       0 UNK        -0.5176 
      4 N          15.6615  -26.2142  -42.6916 N.am      1 UNK        -0.4884 
      5 CA         16.6581  -26.3481  -43.7602 C.3       1 UNK         0.0853 
      6 C6         17.5119  -27.6296  -43.5923 C.3       10 UNK        -0.0849 
      7 S7         16.5018  -29.1486  -43.6704 S.3       10 UNK        -0.2776 
      8 C8         16.9244  -29.8100  -45.3161 C.3       10 UNK         0.0316 
      9 C9         18.3420  -30.3636  -45.3559 C.ar      10 UNK        -0.0863 
     10 C10        18.6379  -31.5723  -44.7208 C.ar      10 UNK        -0.1009 
     11 C11        19.9404  -32.0811  -44.7269 C.ar      10 UNK        -0.0712 
     12 C12        20.9479  -31.3706  -45.3877 C.ar      10 UNK        -0.0894 
     13 C13        20.6649  -30.1706  -46.0492 C.ar      10 UNK        -0.0745 
     14 C14        19.3541  -29.6780  -46.0339 C.ar      10 UNK        -0.0972 
     15 C15        21.7783  -29.4606  -46.8185 C.3       10 UNK         0.0209 
     16 S16        21.6766  -27.6385  -46.8023 S.3       10 UNK        -0.2568 
     17 C17        22.0755  -27.2658  -45.0647 C.3       10 UNK        -0.0983 
     18 CA         22.0211  -25.7444  -44.7814 C.3       3 UNK         0.0876 
     19 N          20.6735  -25.2118  -44.9959 N.am      3 UNK        -0.4424 
     20 C          20.3446  -23.9159  -45.0672 C.2       2 UNK         0.4918 
     21 O          21.1602  -22.9964  -44.9844 O.2       2 UNK        -0.4875 
     22 CA         18.8585  -23.5814  -45.3052 C.3       2 UNK         0.0481 
     23 CB         18.6470  -23.0972  -46.7493 C.3       2 UNK        -0.1831 
     24 N          17.9535  -24.7073  -45.0437 N.am      2 UNK        -0.4498 
     25 C          17.5683  -25.1039  -43.8224 C.2       1 UNK         0.5027 
     26 O          17.9263  -24.5538  -42.7779 O.2       1 UNK        -0.4969 
     27 C          22.5455  -25.4330  -43.3635 C.2       3 UNK         0.5005 
     28 O          21.7538  -25.2685  -42.4317 O.2       3 UNK        -0.5279 
     29 N          23.8787  -25.3772  -43.2359 N.am      4 UNK        -0.4463 
     30 CA         24.6017  -25.1701  -41.9802 C.3       4 UNK         0.0283 
     31 CB         25.9056  -24.3985  -42.2736 C.3       4 UNK        -0.1875 
     32 C          24.8139  -26.5174  -41.2624 C.2       4 UNK         0.4949 
     33 O          23.8345  -27.1665  -40.8983 O.2       4 UNK        -0.5039 
     34 N          26.0747  -26.9373  -41.0784 N.am      5 UNK        -0.4663 
     35 CA         26.4690  -28.1586  -40.3599 C.3       5 UNK         0.0242 
     36 CB         28.0029  -28.2405  -40.3059 C.3       5 UNK        -0.1982 
     37 C          25.8821  -29.4631  -40.9309 C.2       5 UNK         0.5017 
     38 O          25.6830  -30.4150  -40.1769 O.2       5 UNK        -0.5012 
     39 N          25.5802  -29.4757  -42.2367 N.am      6 UNK        -0.4439 
     40 CA         24.9185  -30.5833  -42.9299 C.3       6 UNK         0.0297 
     41 CB         24.9952  -30.3576  -44.4477 C.3       6 UNK        -0.2006 
     42 C          23.4639  -30.8284  -42.4816 C.2       6 UNK         0.4892 
     43 O          22.9810  -31.9460  -42.6540 O.2       6 UNK        -0.5089 
     44 N          22.8042  -29.8223  -41.8819 N.am      7 UNK        -0.4243 
     45 CA         21.4467  -29.9308  -41.3307 C.3       7 UNK         0.0196 
     46 CB         20.8347  -28.5288  -41.1767 C.3       7 UNK        -0.2007 
     47 C          21.3735  -30.7128  -40.0020 C.2       7 UNK         0.5020 
     48 O          20.2759  -30.9013  -39.4762 O.2       7 UNK        -0.5147 
     49 N          22.5174  -31.1938  -39.4878 N.am      8 UNK        -0.4734 
     50 CA         22.6266  -32.0869  -38.3253 C.3       8 UNK         0.0238 
     51 CB         24.1054  -32.2038  -37.9212 C.3       8 UNK        -0.1912 
     52 C          22.0063  -33.4863  -38.5333 C.2       8 UNK         0.5038 
     53 O          21.9238  -34.2532  -37.5729 O.2       8 UNK        -0.5046 
     54 N          21.5717  -33.7869  -39.7641 N.am      9 UNK        -0.4200 
     55 CA         20.7466  -34.9401  -40.1507 C.3       9 UNK         0.0839 
     56 C          19.3956  -35.0817  -39.3850 C.2       9 UNK         0.5513 
     57 N          18.8341  -34.0142  -38.8277 N.am      9 UNK        -0.7519 
     58 O          18.8554  -36.1812  -39.2951 O.2       9 UNK        -0.4960 
     59 C59        20.5185  -34.9574  -41.6871 C.3       10 UNK        -0.0876 
     60 S60        19.7347  -33.4224  -42.3033 S.3       10 UNK        -0.2414 
     61 C61        20.2581  -33.4076  -44.0452 C.3       10 UNK         0.0169 
     62 H62        14.0497  -26.0391  -40.7232 H         1 UNK         0.0903 
     63 H63        13.7162  -24.3382  -41.0552 H         1 UNK         0.0903 
     64 H64        12.6996  -25.5937  -41.7686 H         1 UNK         0.0903 
     65 H65        15.8230  -26.7843  -41.8737 H         1 UNK         0.3096 
     66 H66        16.1167  -26.4185  -44.7067 H         1 UNK         0.1121 
     67 H67        18.2919  -27.6776  -44.3529 H         1 UNK         0.0849 
     68 H68        18.0348  -27.6187  -42.6339 H         1 UNK         0.0849 
     69 H69        16.2221  -30.6063  -45.5666 H         1 UNK         0.0865 
     70 H70        16.7834  -29.0335  -46.0696 H         1 UNK         0.0865 
     71 H71        17.8539  -32.1123  -44.2073 H         1 UNK         0.1346 
     72 H72        21.9551  -31.7644  -45.3993 H         1 UNK         0.1412 
     73 H73        19.1186  -28.7593  -46.5525 H         1 UNK         0.1426 
     74 H74        21.7401  -29.7958  -47.8556 H         1 UNK         0.0716 
     75 H75        22.7561  -29.7566  -46.4376 H         1 UNK         0.0716 
     76 H76        21.3855  -27.8100  -44.4175 H         1 UNK         0.0695 
     77 H77        23.0707  -27.6597  -44.8586 H         1 UNK         0.0695 
     78 H78        22.6809  -25.2383  -45.4902 H         1 UNK         0.0983 
     79 H79        19.9383  -25.8947  -45.0775 H         1 UNK         0.3095 
     80 H80        18.5969  -22.7609  -44.6335 H         1 UNK         0.0454 
     81 H81        19.2767  -22.2336  -46.9679 H         1 UNK         0.0851 
     82 H82        18.8942  -23.8714  -47.4767 H         1 UNK         0.0851 
     83 H83        17.6144  -22.7918  -46.9193 H         1 UNK         0.0851 
     84 H84        17.6077  -25.2017  -45.8544 H         1 UNK         0.2976 
     85 H85        24.4483  -25.5432  -44.0536 H         1 UNK         0.3116 
     86 H86        23.9971  -24.5510  -41.3141 H         1 UNK         0.0646 
     87 H87        26.4620  -24.1966  -41.3570 H         1 UNK         0.0847 
     88 H88        25.6895  -23.4305  -42.7264 H         1 UNK         0.0847 
     89 H89        26.5638  -24.9377  -42.9562 H         1 UNK         0.0847 
     90 H90        26.8261  -26.3502  -41.4115 H         1 UNK         0.3040 
     91 H91        26.0952  -28.0678  -39.3376 H         1 UNK         0.1015 
     92 H92        28.4302  -27.3745  -39.7999 H         1 UNK         0.0786 
     93 H93        28.4400  -28.2982  -41.3036 H         1 UNK         0.0786 
     94 H94        28.3277  -29.1256  -39.7564 H         1 UNK         0.0786 
     95 H95        25.7836  -28.6471  -42.7760 H         1 UNK         0.3172 
     96 H96        25.4765  -31.4939  -42.7008 H         1 UNK         0.0595 
     97 H97        26.0293  -30.3238  -44.7910 H         1 UNK         0.0839 
     98 H98        24.5141  -29.4273  -44.7439 H         1 UNK         0.0839 
     99 H99        24.5043  -31.1678  -44.9889 H         1 UNK         0.0839 
    100 H100       23.2822  -28.9418  -41.7151 H         1 UNK         0.2998 
    101 H101       20.8362  -30.4785  -42.0526 H         1 UNK         0.0822 
    102 H102       20.8599  -27.9747  -42.1139 H         1 UNK         0.0787 
    103 H103       19.7901  -28.5912  -40.8692 H         1 UNK         0.0787 
    104 H104       21.3588  -27.9391  -40.4243 H         1 UNK         0.0787 
    105 H105       23.3822  -30.9808  -39.9689 H         1 UNK         0.3055 
    106 H106       22.0814  -31.6240  -37.5000 H         1 UNK         0.1106 
    107 H107       24.7046  -32.6529  -38.7143 H         1 UNK         0.0828 
    108 H108       24.5328  -31.2276  -37.6909 H         1 UNK         0.0828 
    109 H109       24.2235  -32.8241  -37.0316 H         1 UNK         0.0828 
    110 H110       21.6935  -33.0902  -40.4855 H         1 UNK         0.2931 
    111 H111       21.3299  -35.8273  -39.8980 H         1 UNK         0.0412 
    112 H112       17.9620  -34.1129  -38.3326 H         1 UNK         0.3472 
    113 H113       19.2578  -33.1033  -38.9343 H         1 UNK         0.3472 
    114 H114       19.9102  -35.8139  -41.9844 H         1 UNK         0.0970 
    115 H115       21.4784  -35.0877  -42.1891 H         1 UNK         0.0970 
    116 H116       19.7556  -34.2158  -44.5779 H         1 UNK         0.0612 
    117 H117       21.3280  -33.6148  -44.0962 H         1 UNK         0.0612 
@<TRIPOS>BOND
     1    1    2 1    
     2    1   62 1    
     3    1   63 1    
     4    1   64 1    
     5    2    3 2    
     6    2    4 am   BACKBONE|DICT|INTERRES
     7    4    5 1    
     8    4   65 1    
     9    5    6 1    
    10    5   25 1    
    11    5   66 1    
    12    6    7 1    
    13    6   67 1    
    14    6   68 1    
    15    7    8 1    
    16    8    9 1    
    17    8   69 1    
    18    8   70 1    
    19    9   10 ar   
    20    9   14 ar   
    21   10   11 ar   
    22   10   71 1    
    23   11   12 ar   
    24   11   61 1    
    25   12   13 ar   
    26   12   72 1    
    27   13   14 ar   
    28   13   15 1    
    29   14   73 1    
    30   15   16 1    
    31   15   74 1    
    32   15   75 1    
    33   16   17 1    
    34   17   18 1    
    35   17   76 1    
    36   17   77 1    
    37   18   19 1    
    38   18   27 1    
    39   18   78 1    
    40   19   20 am   BACKBONE|DICT|INTERRES
    41   19   79 1    
    42   20   21 2    
    43   20   22 1    
    44   22   23 1    
    45   22   24 1    
    46   22   80 1    
    47   23   81 1    
    48   23   82 1    
    49   23   83 1    
    50   24   25 am   BACKBONE|DICT|INTERRES
    51   24   84 1    
    52   25   26 2    
    53   27   28 2    
    54   27   29 am   BACKBONE|DICT|INTERRES
    55   29   30 1    
    56   29   85 1    
    57   30   31 1    
    58   30   32 1    
    59   30   86 1    
    60   31   87 1    
    61   31   88 1    
    62   31   89 1    
    63   32   33 2    
    64   32   34 am   BACKBONE|DICT|INTERRES
    65   34   35 1    
    66   34   90 1    
    67   35   36 1    
    68   35   37 1    
    69   35   91 1    
    70   36   92 1    
    71   36   93 1    
    72   36   94 1    
    73   37   38 2    
    74   37   39 am   BACKBONE|DICT|INTERRES
    75   39   40 1    
    76   39   95 1    
    77   40   41 1    
    78   40   42 1    
    79   40   96 1    
    80   41   97 1    
    81   41   98 1    
    82   41   99 1    
    83   42   43 2    
    84   42   44 am   BACKBONE|DICT|INTERRES
    85   44   45 1    
    86   44  100 1    
    87   45   46 1    
    88   45   47 1    
    89   45  101 1    
    90   46  102 1    
    91   46  103 1    
    92   46  104 1    
    93   47   48 2    
    94   47   49 am   BACKBONE|DICT|INTERRES
    95   49   50 1    
    96   49  105 1    
    97   50   51 1    
    98   50   52 1    
    99   50  106 1    
   100   51  107 1    
   101   51  108 1    
   102   51  109 1    
   103   52   53 2    
   104   52   54 am   BACKBONE|DICT|INTERRES
   105   54   55 1    
   106   54  110 1    
   107   55   56 1    
   108   55   59 1    
   109   55  111 1    
   110   56   57 am   BACKBONE|DICT|INTERRES
   111   56   58 2    
   112   57  112 1    
   113   57  113 1    
   114   59   60 1    
   115   59  114 1    
   116   59  115 1    
   117   60   61 1    
   118   61  116 1    
   119   61  117 1    
@<TRIPOS>SUBSTRUCTURE
     1 UNK         1 GROUP             0       ****    0 ROOT    
