@<TRIPOS>MOLECULE
3R8
117   119    1
SMALL
USER_CHARGES


@<TRIPOS>ATOM
      1 CA         14.5064  -22.0393  -42.9937 C.3       0 UNK        -0.2013 
      2 C          14.9681  -23.1413  -43.9354 C.2       0 UNK         0.4866 
      3 O          14.6550  -23.0996  -45.1253 O.2       0 UNK        -0.5176 
      4 N          15.7065  -24.1285  -43.4108 N.am      1 UNK        -0.4884 
      5 CA         16.2425  -25.2697  -44.1643 C.3       1 UNK         0.0853 
      6 C6         16.8092  -26.3591  -43.2236 C.3       10 UNK        -0.0849 
      7 S7         15.4982  -27.2804  -42.3486 S.3       10 UNK        -0.2776 
      8 C8         15.1777  -28.6842  -43.4764 C.3       10 UNK         0.0316 
      9 C9         16.4475  -29.4448  -43.8372 C.ar      10 UNK        -0.0863 
     10 C10        17.1451  -30.1575  -42.8576 C.ar      10 UNK        -0.1009 
     11 C11        18.3566  -30.7834  -43.1647 C.ar      10 UNK        -0.0712 
     12 C12        18.8598  -30.7090  -44.4675 C.ar      10 UNK        -0.0894 
     13 C13        18.1614  -30.0146  -45.4608 C.ar      10 UNK        -0.0745 
     14 C14        16.9517  -29.3916  -45.1412 C.ar      10 UNK        -0.0972 
     15 C15        18.7215  -29.9201  -46.8749 C.3       10 UNK         0.0209 
     16 S16        19.3153  -28.2429  -47.2774 S.3       10 UNK        -0.2568 
     17 C17        20.6531  -28.0421  -46.0581 C.3       10 UNK        -0.0983 
     18 CA         21.2755  -26.6228  -46.0396 C.3       3 UNK         0.0876 
     19 N          20.2676  -25.5758  -45.8229 N.am      3 UNK        -0.4424 
     20 C          20.4843  -24.2532  -45.8392 C.2       2 UNK         0.4918 
     21 O          21.5929  -23.7522  -46.0283 O.2       2 UNK        -0.4875 
     22 CA         19.2851  -23.3097  -45.5947 C.3       2 UNK         0.0481 
     23 CB         18.8025  -22.6856  -46.9188 C.3       2 UNK        -0.1831 
     24 N          18.1590  -23.8777  -44.8331 N.am      2 UNK        -0.4498 
     25 C          17.3187  -24.8618  -45.1891 C.2       1 UNK         0.5027 
     26 O          17.3924  -25.4724  -46.2542 O.2       1 UNK        -0.4969 
     27 C          22.4059  -26.6028  -44.9916 C.2       3 UNK         0.5005 
     28 O          23.5587  -26.8690  -45.3376 O.2       3 UNK        -0.5279 
     29 N          22.0394  -26.3442  -43.7257 N.am      4 UNK        -0.4463 
     30 CA         22.8429  -26.4265  -42.4968 C.3       4 UNK         0.0283 
     31 CB         24.0444  -25.4613  -42.5219 C.3       4 UNK        -0.1875 
     32 C          23.2766  -27.8617  -42.1459 C.2       4 UNK         0.4949 
     33 O          22.9987  -28.3173  -41.0367 O.2       4 UNK        -0.5039 
     34 N          23.9391  -28.5429  -43.0934 N.am      5 UNK        -0.4663 
     35 CA         24.3623  -29.9518  -43.0765 C.3       5 UNK         0.0242 
     36 CB         23.1411  -30.8580  -43.3191 C.3       5 UNK        -0.1982 
     37 C          25.1520  -30.3510  -41.8136 C.2       5 UNK         0.5017 
     38 O          24.9189  -31.4241  -41.2489 O.2       5 UNK        -0.5012 
     39 N          26.0213  -29.4332  -41.3594 N.am      6 UNK        -0.4439 
     40 CA         26.8394  -29.4866  -40.1381 C.3       6 UNK         0.0297 
     41 CB         27.9280  -30.5721  -40.2780 C.3       6 UNK        -0.2006 
     42 C          26.0314  -29.6504  -38.8305 C.2       6 UNK         0.4892 
     43 O          26.6048  -30.0605  -37.8205 O.2       6 UNK        -0.5089 
     44 N          24.7169  -29.3731  -38.8799 N.am      7 UNK        -0.4243 
     45 CA         23.6943  -29.6809  -37.8705 C.3       7 UNK         0.0196 
     46 CB         23.9379  -28.8892  -36.5681 C.3       7 UNK        -0.2007 
     47 C          23.5052  -31.1941  -37.6163 C.2       7 UNK         0.5020 
     48 O          22.8651  -31.5636  -36.6309 O.2       7 UNK        -0.5147 
     49 N          24.0495  -32.0433  -38.4989 N.am      8 UNK        -0.4734 
     50 CA         24.0018  -33.5020  -38.4066 C.3       8 UNK         0.0238 
     51 CB         25.3782  -34.0721  -38.7879 C.3       8 UNK        -0.1912 
     52 C          22.9119  -34.0893  -39.3116 C.2       8 UNK         0.5038 
     53 O          22.2873  -35.0786  -38.9273 O.2       8 UNK        -0.5046 
     54 N          22.6987  -33.4741  -40.4848 N.am      9 UNK        -0.4200 
     55 CA         21.7252  -33.9036  -41.5045 C.3       9 UNK         0.0839 
     56 C          22.0821  -35.2502  -42.2090 C.2       9 UNK         0.5513 
     57 N          23.3415  -35.6719  -42.2085 N.am      9 UNK        -0.7519 
     58 O          21.2225  -35.9145  -42.7817 O.2       9 UNK        -0.4960 
     59 C59        20.2559  -33.8234  -40.9894 C.3       10 UNK        -0.0876 
     60 S60        19.0812  -33.3060  -42.2864 S.3       10 UNK        -0.2414 
     61 C61        19.1457  -31.5012  -42.0813 C.3       10 UNK         0.0169 
     62 H62        13.4180  -21.9881  -42.9817 H         1 UNK         0.0903 
     63 H63        14.8489  -22.2043  -41.9723 H         1 UNK         0.0903 
     64 H64        14.8891  -21.0754  -43.3281 H         1 UNK         0.0903 
     65 H65        15.9030  -24.1267  -42.4194 H         1 UNK         0.3096 
     66 H66        15.4219  -25.7025  -44.7415 H         1 UNK         0.1121 
     67 H67        17.4636  -25.9099  -42.4744 H         1 UNK         0.0849 
     68 H68        17.4469  -27.0596  -43.7629 H         1 UNK         0.0849 
     69 H69        14.4718  -29.3674  -43.0020 H         1 UNK         0.0865 
     70 H70        14.6823  -28.3106  -44.3740 H         1 UNK         0.0865 
     71 H71        16.7599  -30.1923  -41.8474 H         1 UNK         0.1346 
     72 H72        19.8018  -31.1858  -44.7023 H         1 UNK         0.1412 
     73 H73        16.4246  -28.8344  -45.9042 H         1 UNK         0.1426 
     74 H74        17.9441  -30.1990  -47.5876 H         1 UNK         0.0716 
     75 H75        19.5365  -30.6313  -47.0181 H         1 UNK         0.0716 
     76 H76        21.4158  -28.7929  -46.2759 H         1 UNK         0.0695 
     77 H77        20.2559  -28.2852  -45.0710 H         1 UNK         0.0695 
     78 H78        21.7331  -26.4336  -47.0130 H         1 UNK         0.0983 
     79 H79        19.3032  -25.8862  -45.7910 H         1 UNK         0.3095 
     80 H80        19.6655  -22.4962  -44.9749 H         1 UNK         0.0454 
     81 H81        19.6139  -22.1528  -47.4163 H         1 UNK         0.0851 
     82 H82        17.9999  -21.9677  -46.7502 H         1 UNK         0.0851 
     83 H83        18.4374  -23.4391  -47.6173 H         1 UNK         0.0851 
     84 H84        18.0110  -23.4649  -43.9223 H         1 UNK         0.2976 
     85 H85        21.0581  -26.1559  -43.5748 H         1 UNK         0.3116 
     86 H86        22.1823  -26.0959  -41.6935 H         1 UNK         0.0646 
     87 H87        24.7742  -25.7257  -43.2873 H         1 UNK         0.0847 
     88 H88        23.7230  -24.4367  -42.7088 H         1 UNK         0.0847 
     89 H89        24.5658  -25.4671  -41.5639 H         1 UNK         0.0847 
     90 H90        24.0882  -28.0466  -43.9704 H         1 UNK         0.3040 
     91 H91        25.0462  -30.0835  -43.9165 H         1 UNK         0.1015 
     92 H92        23.4481  -31.8954  -43.4554 H         1 UNK         0.0786 
     93 H93        22.5957  -30.5622  -44.2154 H         1 UNK         0.0786 
     94 H94        22.4501  -30.8196  -42.4775 H         1 UNK         0.0786 
     95 H95        26.0956  -28.5771  -41.8922 H         1 UNK         0.3172 
     96 H96        27.3397  -28.5201  -40.0639 H         1 UNK         0.0595 
     97 H97        27.4991  -31.5749  -40.2886 H         1 UNK         0.0839 
     98 H98        28.6351  -30.5309  -39.4487 H         1 UNK         0.0839 
     99 H99        28.5026  -30.4435  -41.1952 H         1 UNK         0.0839 
    100 H100       24.3379  -29.0308  -39.7589 H         1 UNK         0.2998 
    101 H101       22.7509  -29.3331  -38.2940 H         1 UNK         0.0822 
    102 H102       23.0925  -28.9888  -35.8863 H         1 UNK         0.0787 
    103 H103       24.0662  -27.8256  -36.7686 H         1 UNK         0.0787 
    104 H104       24.8229  -29.2410  -36.0374 H         1 UNK         0.0787 
    105 H105       24.5257  -31.6585  -39.3090 H         1 UNK         0.3055 
    106 H106       23.7808  -33.8058  -37.3807 H         1 UNK         0.1106 
    107 H107       26.1550  -33.7078  -38.1152 H         1 UNK         0.0828 
    108 H108       25.3812  -35.1613  -38.7266 H         1 UNK         0.0828 
    109 H109       25.6647  -33.7996  -39.8045 H         1 UNK         0.0828 
    110 H110       23.2967  -32.6963  -40.7380 H         1 UNK         0.2931 
    111 H111       21.8303  -33.1602  -42.2923 H         1 UNK         0.0412 
    112 H112       24.0627  -35.1331  -41.7569 H         1 UNK         0.3472 
    113 H113       23.5715  -36.5384  -42.6695 H         1 UNK         0.3472 
    114 H114       19.9341  -34.7808  -40.5753 H         1 UNK         0.0970 
    115 H115       20.1758  -33.1134  -40.1647 H         1 UNK         0.0970 
    116 H116       18.7676  -31.2399  -41.0917 H         1 UNK         0.0612 
    117 H117       20.1825  -31.1672  -42.1128 H         1 UNK         0.0612 
@<TRIPOS>BOND
     1    1    2 1    
     2    1   62 1    
     3    1   63 1    
     4    1   64 1    
     5    2    3 2    
     6    2    4 am   BACKBONE|DICT|INTERRES
     7    4    5 1    
     8    4   65 1    
     9    5    6 1    
    10    5   25 1    
    11    5   66 1    
    12    6    7 1    
    13    6   67 1    
    14    6   68 1    
    15    7    8 1    
    16    8    9 1    
    17    8   69 1    
    18    8   70 1    
    19    9   10 ar   
    20    9   14 ar   
    21   10   11 ar   
    22   10   71 1    
    23   11   12 ar   
    24   11   61 1    
    25   12   13 ar   
    26   12   72 1    
    27   13   14 ar   
    28   13   15 1    
    29   14   73 1    
    30   15   16 1    
    31   15   74 1    
    32   15   75 1    
    33   16   17 1    
    34   17   18 1    
    35   17   76 1    
    36   17   77 1    
    37   18   19 1    
    38   18   27 1    
    39   18   78 1    
    40   19   20 am   BACKBONE|DICT|INTERRES
    41   19   79 1    
    42   20   21 2    
    43   20   22 1    
    44   22   23 1    
    45   22   24 1    
    46   22   80 1    
    47   23   81 1    
    48   23   82 1    
    49   23   83 1    
    50   24   25 am   BACKBONE|DICT|INTERRES
    51   24   84 1    
    52   25   26 2    
    53   27   28 2    
    54   27   29 am   BACKBONE|DICT|INTERRES
    55   29   30 1    
    56   29   85 1    
    57   30   31 1    
    58   30   32 1    
    59   30   86 1    
    60   31   87 1    
    61   31   88 1    
    62   31   89 1    
    63   32   33 2    
    64   32   34 am   BACKBONE|DICT|INTERRES
    65   34   35 1    
    66   34   90 1    
    67   35   36 1    
    68   35   37 1    
    69   35   91 1    
    70   36   92 1    
    71   36   93 1    
    72   36   94 1    
    73   37   38 2    
    74   37   39 am   BACKBONE|DICT|INTERRES
    75   39   40 1    
    76   39   95 1    
    77   40   41 1    
    78   40   42 1    
    79   40   96 1    
    80   41   97 1    
    81   41   98 1    
    82   41   99 1    
    83   42   43 2    
    84   42   44 am   BACKBONE|DICT|INTERRES
    85   44   45 1    
    86   44  100 1    
    87   45   46 1    
    88   45   47 1    
    89   45  101 1    
    90   46  102 1    
    91   46  103 1    
    92   46  104 1    
    93   47   48 2    
    94   47   49 am   BACKBONE|DICT|INTERRES
    95   49   50 1    
    96   49  105 1    
    97   50   51 1    
    98   50   52 1    
    99   50  106 1    
   100   51  107 1    
   101   51  108 1    
   102   51  109 1    
   103   52   53 2    
   104   52   54 am   BACKBONE|DICT|INTERRES
   105   54   55 1    
   106   54  110 1    
   107   55   56 1    
   108   55   59 1    
   109   55  111 1    
   110   56   57 am   BACKBONE|DICT|INTERRES
   111   56   58 2    
   112   57  112 1    
   113   57  113 1    
   114   59   60 1    
   115   59  114 1    
   116   59  115 1    
   117   60   61 1    
   118   61  116 1    
   119   61  117 1    
@<TRIPOS>SUBSTRUCTURE
     1 UNK         1 GROUP             0       ****    0 ROOT    
