@<TRIPOS>MOLECULE
3R8
117   119    1
SMALL
USER_CHARGES


@<TRIPOS>ATOM
      1 CA         22.0252  -22.0324  -46.5571 C.3       0 UNK        -0.2013 
      2 C          21.7017  -22.8631  -45.3245 C.2       0 UNK         0.4866 
      3 O          21.4946  -22.3050  -44.2470 O.2       0 UNK        -0.5176 
      4 N          21.6599  -24.1934  -45.4737 N.am      1 UNK        -0.4884 
      5 CA         21.3303  -25.1504  -44.4099 C.3       1 UNK         0.0853 
      6 C6         21.7476  -26.5976  -44.7809 C.3       10 UNK        -0.0849 
      7 S7         21.1330  -27.1578  -46.4088 S.3       10 UNK        -0.2776 
      8 C8         21.6006  -28.9180  -46.3858 C.3       10 UNK         0.0316 
      9 C9         20.6233  -29.7457  -45.5653 C.ar      10 UNK        -0.0863 
     10 C10        20.9777  -30.2198  -44.2994 C.ar      10 UNK        -0.1009 
     11 C11        20.0738  -30.9682  -43.5388 C.ar      10 UNK        -0.0712 
     12 C12        18.8008  -31.2363  -44.0568 C.ar      10 UNK        -0.0894 
     13 C13        18.4283  -30.7493  -45.3139 C.ar      10 UNK        -0.0745 
     14 C14        19.3516  -30.0244  -46.0718 C.ar      10 UNK        -0.0972 
     15 C15        17.0099  -30.9432  -45.8289 C.3       10 UNK         0.0209 
     16 S16        16.0869  -29.3684  -45.8400 S.3       10 UNK        -0.2568 
     17 C17        15.8938  -29.0173  -44.0570 C.3       10 UNK        -0.0983 
     18 CA         17.0855  -28.2294  -43.4418 C.3       3 UNK         0.0876 
     19 N          17.4289  -26.9989  -44.1588 N.am      3 UNK        -0.4424 
     20 C          16.7594  -25.8398  -44.1636 C.2       2 UNK         0.4918 
     21 O          15.6369  -25.6945  -43.6777 O.2       2 UNK        -0.4875 
     22 CA         17.4916  -24.6252  -44.7809 C.3       2 UNK         0.0481 
     23 CB         17.1903  -23.3280  -44.0023 C.3       2 UNK        -0.1831 
     24 N          18.9496  -24.7870  -44.9323 N.am      2 UNK        -0.4498 
     25 C          19.8510  -25.0806  -43.9778 C.2       1 UNK         0.5027 
     26 O          19.5540  -25.3205  -42.8067 O.2       1 UNK        -0.4969 
     27 C          16.9659  -28.0336  -41.9111 C.2       3 UNK         0.5005 
     28 O          16.1830  -28.7325  -41.2641 O.2       3 UNK        -0.5279 
     29 N          17.7463  -27.0957  -41.3538 N.am      4 UNK        -0.4463 
     30 CA         17.7523  -26.7406  -39.9326 C.3       4 UNK         0.0283 
     31 CB         16.9053  -25.4691  -39.7392 C.3       4 UNK        -0.1875 
     32 C          19.1773  -26.5562  -39.3801 C.2       4 UNK         0.4949 
     33 O          19.3235  -26.1068  -38.2425 O.2       4 UNK        -0.5039 
     34 N          20.2025  -26.8876  -40.1730 N.am      5 UNK        -0.4663 
     35 CA         21.6179  -26.7008  -39.8659 C.3       5 UNK         0.0242 
     36 CB         21.9912  -25.2111  -40.0338 C.3       5 UNK        -0.1982 
     37 C          22.4599  -27.6070  -40.7776 C.2       5 UNK         0.5017 
     38 O          21.8979  -28.3341  -41.6002 O.2       5 UNK        -0.5012 
     39 N          23.7876  -27.5086  -40.6186 N.am      6 UNK        -0.4439 
     40 CA         24.8631  -28.2308  -41.3107 C.3       6 UNK         0.0297 
     41 CB         24.7127  -28.1830  -42.8460 C.3       6 UNK        -0.2006 
     42 C          25.0634  -29.6675  -40.7992 C.2       6 UNK         0.4892 
     43 O          24.1482  -30.2854  -40.2510 O.2       6 UNK        -0.5089 
     44 N          26.2903  -30.1688  -40.9965 N.am      7 UNK        -0.4243 
     45 CA         26.7693  -31.4720  -40.5223 C.3       7 UNK         0.0196 
     46 CB         28.3022  -31.5102  -40.6407 C.3       7 UNK        -0.2007 
     47 C          26.1470  -32.6860  -41.2346 C.2       7 UNK         0.5020 
     48 O          26.2975  -33.8043  -40.7422 O.2       7 UNK        -0.5147 
     49 N          25.4514  -32.4613  -42.3590 N.am      8 UNK        -0.4734 
     50 CA         24.7721  -33.4827  -43.1671 C.3       8 UNK         0.0238 
     51 CB         24.1367  -32.8080  -44.3944 C.3       8 UNK        -0.1912 
     52 C          23.7133  -34.3031  -42.4050 C.2       8 UNK         0.5038 
     53 O          23.4645  -35.4503  -42.7784 O.2       8 UNK        -0.5046 
     54 N          23.1318  -33.7080  -41.3569 N.am      9 UNK        -0.4200 
     55 CA         22.1685  -34.3400  -40.4432 C.3       9 UNK         0.0839 
     56 C          22.8053  -34.7775  -39.0918 C.2       9 UNK         0.5513 
     57 N          24.1206  -34.7186  -38.9155 N.am      9 UNK        -0.7519 
     58 O          22.0932  -35.1986  -38.1837 O.2       9 UNK        -0.4960 
     59 C59        20.9164  -33.4469  -40.2385 C.3       10 UNK        -0.0876 
     60 S60        20.0297  -33.1600  -41.8071 S.3       10 UNK        -0.2414 
     61 C61        20.4657  -31.4228  -42.1374 C.3       10 UNK         0.0169 
     62 H62        22.9247  -21.4416  -46.3857 H         1 UNK         0.0903 
     63 H63        22.1906  -22.6542  -47.4367 H         1 UNK         0.0903 
     64 H64        21.2049  -21.3488  -46.7744 H         1 UNK         0.0903 
     65 H65        21.8424  -24.6048  -46.3794 H         1 UNK         0.3096 
     66 H66        21.9106  -24.8642  -43.5298 H         1 UNK         0.1121 
     67 H67        22.8360  -26.6609  -44.8025 H         1 UNK         0.0849 
     68 H68        21.4271  -27.3018  -44.0111 H         1 UNK         0.0849 
     69 H69        21.6138  -29.2926  -47.4104 H         1 UNK         0.0865 
     70 H70        22.6196  -29.0256  -46.0102 H         1 UNK         0.0865 
     71 H71        21.9523  -29.9879  -43.8939 H         1 UNK         0.1346 
     72 H72        18.0849  -31.7861  -43.4612 H         1 UNK         0.1412 
     73 H73        19.0637  -29.6384  -47.0405 H         1 UNK         0.1426 
     74 H74        16.4701  -31.6799  -45.2319 H         1 UNK         0.0716 
     75 H75        17.0481  -31.3386  -46.8449 H         1 UNK         0.0716 
     76 H76        15.7496  -29.9667  -43.5382 H         1 UNK         0.0695 
     77 H77        14.9674  -28.4563  -43.9238 H         1 UNK         0.0695 
     78 H78        17.9775  -28.8392  -43.5388 H         1 UNK         0.0983 
     79 H79        18.3269  -27.0096  -44.6200 H         1 UNK         0.3095 
     80 H80        17.0917  -24.5107  -45.7892 H         1 UNK         0.0454 
     81 H81        16.1220  -23.1083  -43.9982 H         1 UNK         0.0851 
     82 H82        17.6926  -22.4704  -44.4496 H         1 UNK         0.0851 
     83 H83        17.5117  -23.3991  -42.9625 H         1 UNK         0.0851 
     84 H84        19.3081  -24.6445  -45.8667 H         1 UNK         0.2976 
     85 H85        18.3488  -26.5300  -41.9493 H         1 UNK         0.3116 
     86 H86        17.3063  -27.5448  -39.3442 H         1 UNK         0.0646 
     87 H87        15.8845  -25.6157  -40.0927 H         1 UNK         0.0847 
     88 H88        17.3281  -24.6219  -40.2807 H         1 UNK         0.0847 
     89 H89        16.8447  -25.1893  -38.6867 H         1 UNK         0.0847 
     90 H90        20.0316  -27.3256  -41.0693 H         1 UNK         0.3040 
     91 H91        21.7988  -27.0113  -38.8344 H         1 UNK         0.1015 
     92 H92        23.0345  -25.0220  -39.7806 H         1 UNK         0.0786 
     93 H93        21.3916  -24.5738  -39.3837 H         1 UNK         0.0786 
     94 H94        21.8351  -24.8739  -41.0588 H         1 UNK         0.0786 
     95 H95        24.1114  -26.8921  -39.8864 H         1 UNK         0.3172 
     96 H96        25.7713  -27.6801  -41.0594 H         1 UNK         0.0595 
     97 H97        23.8679  -28.7751  -43.1960 H         1 UNK         0.0839 
     98 H98        25.6021  -28.5742  -43.3409 H         1 UNK         0.0839 
     99 H99        24.5772  -27.1600  -43.1955 H         1 UNK         0.0839 
    100 H100       26.9735  -29.5912  -41.4661 H         1 UNK         0.2998 
    101 H101       26.5069  -31.5581  -39.4655 H         1 UNK         0.0822 
    102 H102       28.7660  -30.7090  -40.0647 H         1 UNK         0.0787 
    103 H103       28.7017  -32.4511  -40.2591 H         1 UNK         0.0787 
    104 H104       28.6297  -31.4143  -41.6767 H         1 UNK         0.0787 
    105 H105       25.3838  -31.5079  -42.6832 H         1 UNK         0.3055 
    106 H106       25.5330  -34.1860  -43.5126 H         1 UNK         0.1106 
    107 H107       24.8837  -32.2970  -45.0019 H         1 UNK         0.0828 
    108 H108       23.6494  -33.5439  -45.0359 H         1 UNK         0.0828 
    109 H109       23.3788  -32.0791  -44.1057 H         1 UNK         0.0828 
    110 H110       23.4250  -32.7723  -41.1133 H         1 UNK         0.2931 
    111 H111       21.8169  -35.2714  -40.8907 H         1 UNK         0.0412 
    112 H112       24.7417  -34.4143  -39.6573 H         1 UNK         0.3472 
    113 H113       24.5079  -35.0151  -38.0336 H         1 UNK         0.3472 
    114 H114       20.2123  -33.9230  -39.5536 H         1 UNK         0.0970 
    115 H115       21.1895  -32.4957  -39.7777 H         1 UNK         0.0970 
    116 H116       19.9711  -30.7817  -41.4064 H         1 UNK         0.0612 
    117 H117       21.5392  -31.2953  -41.9869 H         1 UNK         0.0612 
@<TRIPOS>BOND
     1    1    2 1    
     2    1   62 1    
     3    1   63 1    
     4    1   64 1    
     5    2    3 2    
     6    2    4 am   BACKBONE|DICT|INTERRES
     7    4    5 1    
     8    4   65 1    
     9    5    6 1    
    10    5   25 1    
    11    5   66 1    
    12    6    7 1    
    13    6   67 1    
    14    6   68 1    
    15    7    8 1    
    16    8    9 1    
    17    8   69 1    
    18    8   70 1    
    19    9   10 ar   
    20    9   14 ar   
    21   10   11 ar   
    22   10   71 1    
    23   11   12 ar   
    24   11   61 1    
    25   12   13 ar   
    26   12   72 1    
    27   13   14 ar   
    28   13   15 1    
    29   14   73 1    
    30   15   16 1    
    31   15   74 1    
    32   15   75 1    
    33   16   17 1    
    34   17   18 1    
    35   17   76 1    
    36   17   77 1    
    37   18   19 1    
    38   18   27 1    
    39   18   78 1    
    40   19   20 am   BACKBONE|DICT|INTERRES
    41   19   79 1    
    42   20   21 2    
    43   20   22 1    
    44   22   23 1    
    45   22   24 1    
    46   22   80 1    
    47   23   81 1    
    48   23   82 1    
    49   23   83 1    
    50   24   25 am   BACKBONE|DICT|INTERRES
    51   24   84 1    
    52   25   26 2    
    53   27   28 2    
    54   27   29 am   BACKBONE|DICT|INTERRES
    55   29   30 1    
    56   29   85 1    
    57   30   31 1    
    58   30   32 1    
    59   30   86 1    
    60   31   87 1    
    61   31   88 1    
    62   31   89 1    
    63   32   33 2    
    64   32   34 am   BACKBONE|DICT|INTERRES
    65   34   35 1    
    66   34   90 1    
    67   35   36 1    
    68   35   37 1    
    69   35   91 1    
    70   36   92 1    
    71   36   93 1    
    72   36   94 1    
    73   37   38 2    
    74   37   39 am   BACKBONE|DICT|INTERRES
    75   39   40 1    
    76   39   95 1    
    77   40   41 1    
    78   40   42 1    
    79   40   96 1    
    80   41   97 1    
    81   41   98 1    
    82   41   99 1    
    83   42   43 2    
    84   42   44 am   BACKBONE|DICT|INTERRES
    85   44   45 1    
    86   44  100 1    
    87   45   46 1    
    88   45   47 1    
    89   45  101 1    
    90   46  102 1    
    91   46  103 1    
    92   46  104 1    
    93   47   48 2    
    94   47   49 am   BACKBONE|DICT|INTERRES
    95   49   50 1    
    96   49  105 1    
    97   50   51 1    
    98   50   52 1    
    99   50  106 1    
   100   51  107 1    
   101   51  108 1    
   102   51  109 1    
   103   52   53 2    
   104   52   54 am   BACKBONE|DICT|INTERRES
   105   54   55 1    
   106   54  110 1    
   107   55   56 1    
   108   55   59 1    
   109   55  111 1    
   110   56   57 am   BACKBONE|DICT|INTERRES
   111   56   58 2    
   112   57  112 1    
   113   57  113 1    
   114   59   60 1    
   115   59  114 1    
   116   59  115 1    
   117   60   61 1    
   118   61  116 1    
   119   61  117 1    
@<TRIPOS>SUBSTRUCTURE
     1 UNK         1 GROUP             0       ****    0 ROOT    
