@<TRIPOS>MOLECULE
3R8
117   119    1
SMALL
USER_CHARGES


@<TRIPOS>ATOM
      1 CA         14.2756  -23.0248  -48.9352 C.3       0 UNK        -0.2013 
      2 C          15.3068  -24.1169  -48.6928 C.2       0 UNK         0.4866 
      3 O          16.0946  -24.4247  -49.5882 O.2       0 UNK        -0.5176 
      4 N          15.3039  -24.7108  -47.4926 N.am      1 UNK        -0.4884 
      5 CA         16.2699  -25.7280  -47.0648 C.3       1 UNK         0.0853 
      6 C6         15.7421  -26.5147  -45.8391 C.3       10 UNK        -0.0849 
      7 S7         16.4971  -28.1698  -45.6948 S.3       10 UNK        -0.2776 
      8 C8         15.5637  -28.8605  -44.2913 C.3       10 UNK         0.0316 
      9 C9         16.3351  -28.7295  -42.9860 C.ar      10 UNK        -0.0863 
     10 C10        16.9900  -29.8413  -42.4457 C.ar      10 UNK        -0.1009 
     11 C11        17.6899  -29.7364  -41.2407 C.ar      10 UNK        -0.0712 
     12 C12        17.7424  -28.5060  -40.5802 C.ar      10 UNK        -0.0894 
     13 C13        17.1062  -27.3829  -41.1184 C.ar      10 UNK        -0.0745 
     14 C14        16.3895  -27.5047  -42.3128 C.ar      10 UNK        -0.0972 
     15 C15        17.2225  -26.0333  -40.4243 C.3       10 UNK         0.0209 
     16 S16        18.9422  -25.4266  -40.4078 S.3       10 UNK        -0.2568 
     17 C17        19.2701  -25.1028  -42.1772 C.3       10 UNK        -0.0983 
     18 CA         19.8436  -26.3314  -42.9374 C.3       3 UNK         0.0876 
     19 N          19.7124  -26.2035  -44.3929 N.am      3 UNK        -0.4424 
     20 C          20.3954  -25.3666  -45.1899 C.2       2 UNK         0.4918 
     21 O          21.2304  -24.5536  -44.7937 O.2       2 UNK        -0.4875 
     22 CA         20.0980  -25.4528  -46.6983 C.3       2 UNK         0.0481 
     23 CB         21.0708  -26.4313  -47.3761 C.3       2 UNK        -0.1831 
     24 N          18.7194  -25.8530  -46.9955 N.am      2 UNK        -0.4498 
     25 C          17.6424  -25.0886  -46.7667 C.2       1 UNK         0.5027 
     26 O          17.6987  -23.9450  -46.3057 O.2       1 UNK        -0.4969 
     27 C          21.2786  -26.7370  -42.5338 C.2       3 UNK         0.5005 
     28 O          21.9550  -26.0385  -41.7751 O.2       3 UNK        -0.5279 
     29 N          21.7227  -27.8832  -43.0664 N.am      4 UNK        -0.4463 
     30 CA         23.0280  -28.5072  -42.8291 C.3       4 UNK         0.0283 
     31 CB         23.2976  -29.4740  -43.9948 C.3       4 UNK        -0.1875 
     32 C          23.0989  -29.2038  -41.4526 C.2       4 UNK         0.4949 
     33 O          23.4761  -30.3776  -41.3713 O.2       4 UNK        -0.5039 
     34 N          22.7139  -28.4665  -40.4017 N.am      5 UNK        -0.4663 
     35 CA         22.4045  -28.9293  -39.0433 C.3       5 UNK         0.0242 
     36 CB         22.0346  -27.7149  -38.1772 C.3       5 UNK        -0.1982 
     37 C          23.4925  -29.7689  -38.3541 C.2       5 UNK         0.5017 
     38 O          23.1567  -30.6544  -37.5675 O.2       5 UNK        -0.5012 
     39 N          24.7602  -29.4866  -38.6710 N.am      6 UNK        -0.4439 
     40 CA         25.9327  -30.2227  -38.1960 C.3       6 UNK         0.0297 
     41 CB         26.6533  -29.3868  -37.1207 C.3       6 UNK        -0.2006 
     42 C          26.8595  -30.6061  -39.3639 C.2       6 UNK         0.4892 
     43 O          28.0590  -30.7834  -39.1443 O.2       6 UNK        -0.5089 
     44 N          26.3038  -30.7128  -40.5799 N.am      7 UNK        -0.4243 
     45 CA         27.0458  -31.0093  -41.8080 C.3       7 UNK         0.0196 
     46 CB         27.1424  -29.7398  -42.6712 C.3       7 UNK        -0.2007 
     47 C          26.4465  -32.1821  -42.5983 C.2       7 UNK         0.5020 
     48 O          27.2147  -32.9361  -43.1969 O.2       7 UNK        -0.5147 
     49 N          25.1148  -32.3408  -42.5917 N.am      8 UNK        -0.4734 
     50 CA         24.4270  -33.4383  -43.2857 C.3       8 UNK         0.0238 
     51 CB         24.1113  -33.0446  -44.7403 C.3       8 UNK        -0.1912 
     52 C          23.1684  -33.9401  -42.5613 C.2       8 UNK         0.5038 
     53 O          22.7502  -35.0653  -42.8388 O.2       8 UNK        -0.5046 
     54 N          22.5903  -33.1448  -41.6482 N.am      9 UNK        -0.4200 
     55 CA         21.4481  -33.5569  -40.8103 C.3       9 UNK         0.0839 
     56 C          21.7830  -34.6495  -39.7503 C.2       9 UNK         0.5513 
     57 N          23.0464  -34.9139  -39.4376 N.am      9 UNK        -0.7519 
     58 O          20.8747  -35.2702  -39.2042 O.2       9 UNK        -0.4960 
     59 C59        20.7640  -32.3469  -40.1273 C.3       10 UNK        -0.0876 
     60 S60        20.0667  -31.1412  -41.3084 S.3       10 UNK        -0.2414 
     61 C61        18.3846  -30.9503  -40.6459 C.3       10 UNK         0.0169 
     62 H62        13.6393  -23.2899  -49.7793 H         1 UNK         0.0903 
     63 H63        13.6370  -22.8658  -48.0664 H         1 UNK         0.0903 
     64 H64        14.7738  -22.0836  -49.1663 H         1 UNK         0.0903 
     65 H65        14.6589  -24.3904  -46.7841 H         1 UNK         0.3096 
     66 H66        16.3904  -26.4233  -47.8996 H         1 UNK         0.1121 
     67 H67        15.8844  -25.9530  -44.9145 H         1 UNK         0.0849 
     68 H68        14.6654  -26.6659  -45.9361 H         1 UNK         0.0849 
     69 H69        14.5905  -28.3760  -44.1999 H         1 UNK         0.0865 
     70 H70        15.3539  -29.9107  -44.5000 H         1 UNK         0.0865 
     71 H71        16.9549  -30.7920  -42.9604 H         1 UNK         0.1346 
     72 H72        18.2973  -28.4146  -39.6562 H         1 UNK         0.1412 
     73 H73        15.8872  -26.6417  -42.7259 H         1 UNK         0.1426 
     74 H74        16.8734  -26.1317  -39.3956 H         1 UNK         0.0716 
     75 H75        16.5808  -25.2882  -40.8971 H         1 UNK         0.0716 
     76 H76        18.3357  -24.7823  -42.6407 H         1 UNK         0.0695 
     77 H77        19.9472  -24.2507  -42.2570 H         1 UNK         0.0695 
     78 H78        19.2284  -27.1930  -42.6843 H         1 UNK         0.0983 
     79 H79        19.0459  -26.8253  -44.8283 H         1 UNK         0.3095 
     80 H80        20.2620  -24.4614  -47.1260 H         1 UNK         0.0454 
     81 H81        20.9469  -27.4500  -47.0066 H         1 UNK         0.0851 
     82 H82        20.9309  -26.4460  -48.4571 H         1 UNK         0.0851 
     83 H83        22.1064  -26.1424  -47.1904 H         1 UNK         0.0851 
     84 H84        18.5852  -26.7841  -47.3651 H         1 UNK         0.2976 
     85 H85        21.0897  -28.4049  -43.6554 H         1 UNK         0.3116 
     86 H86        23.7982  -27.7334  -42.8423 H         1 UNK         0.0646 
     87 H87        22.5371  -30.2538  -44.0394 H         1 UNK         0.0847 
     88 H88        24.2651  -29.9642  -43.9020 H         1 UNK         0.0847 
     89 H89        23.2976  -28.9517  -44.9516 H         1 UNK         0.0847 
     90 H90        22.4560  -27.5053  -40.6112 H         1 UNK         0.3040 
     91 H91        21.5168  -29.5578  -39.1211 H         1 UNK         0.1015 
     92 H92        21.1787  -27.1796  -38.5899 H         1 UNK         0.0786 
     93 H93        22.8633  -27.0105  -38.0962 H         1 UNK         0.0786 
     94 H94        21.7652  -28.0216  -37.1654 H         1 UNK         0.0786 
     95 H95        24.9306  -28.7357  -39.3261 H         1 UNK         0.3172 
     96 H96        25.6245  -31.1663  -37.7413 H         1 UNK         0.0595 
     97 H97        25.9838  -29.1417  -36.2960 H         1 UNK         0.0839 
     98 H98        27.0385  -28.4519  -37.5293 H         1 UNK         0.0839 
     99 H99        27.4975  -29.9318  -36.6964 H         1 UNK         0.0839 
    100 H100       25.3004  -30.5926  -40.6674 H         1 UNK         0.2998 
    101 H101       28.0658  -31.3135  -41.5627 H         1 UNK         0.0822 
    102 H102       27.7627  -28.9861  -42.1858 H         1 UNK         0.0787 
    103 H103       27.5945  -29.9538  -43.6408 H         1 UNK         0.0787 
    104 H104       26.1663  -29.2932  -42.8524 H         1 UNK         0.0787 
    105 H105       24.5328  -31.6593  -42.1132 H         1 UNK         0.3055 
    106 H106       25.0966  -34.3014  -43.3155 H         1 UNK         0.1106 
    107 H107       23.3791  -32.2415  -44.7944 H         1 UNK         0.0828 
    108 H108       25.0068  -32.7229  -45.2720 H         1 UNK         0.0828 
    109 H109       23.6984  -33.8919  -45.2894 H         1 UNK         0.0828 
    110 H110       22.9307  -32.2024  -41.4961 H         1 UNK         0.2931 
    111 H111       20.7100  -34.0075  -41.4770 H         1 UNK         0.0412 
    112 H112       23.7990  -34.4095  -39.8769 H         1 UNK         0.3472 
    113 H113       23.2467  -35.6254  -38.7522 H         1 UNK         0.3472 
    114 H114       21.4778  -31.8352  -39.4822 H         1 UNK         0.0970 
    115 H115       19.9640  -32.6912  -39.4688 H         1 UNK         0.0970 
    116 H116       17.8100  -31.8547  -40.8515 H         1 UNK         0.0612 
    117 H117       18.4296  -30.8504  -39.5601 H         1 UNK         0.0612 
@<TRIPOS>BOND
     1    1    2 1    
     2    1   62 1    
     3    1   63 1    
     4    1   64 1    
     5    2    3 2    
     6    2    4 am   BACKBONE|DICT|INTERRES
     7    4    5 1    
     8    4   65 1    
     9    5    6 1    
    10    5   25 1    
    11    5   66 1    
    12    6    7 1    
    13    6   67 1    
    14    6   68 1    
    15    7    8 1    
    16    8    9 1    
    17    8   69 1    
    18    8   70 1    
    19    9   10 ar   
    20    9   14 ar   
    21   10   11 ar   
    22   10   71 1    
    23   11   12 ar   
    24   11   61 1    
    25   12   13 ar   
    26   12   72 1    
    27   13   14 ar   
    28   13   15 1    
    29   14   73 1    
    30   15   16 1    
    31   15   74 1    
    32   15   75 1    
    33   16   17 1    
    34   17   18 1    
    35   17   76 1    
    36   17   77 1    
    37   18   19 1    
    38   18   27 1    
    39   18   78 1    
    40   19   20 am   BACKBONE|DICT|INTERRES
    41   19   79 1    
    42   20   21 2    
    43   20   22 1    
    44   22   23 1    
    45   22   24 1    
    46   22   80 1    
    47   23   81 1    
    48   23   82 1    
    49   23   83 1    
    50   24   25 am   BACKBONE|DICT|INTERRES
    51   24   84 1    
    52   25   26 2    
    53   27   28 2    
    54   27   29 am   BACKBONE|DICT|INTERRES
    55   29   30 1    
    56   29   85 1    
    57   30   31 1    
    58   30   32 1    
    59   30   86 1    
    60   31   87 1    
    61   31   88 1    
    62   31   89 1    
    63   32   33 2    
    64   32   34 am   BACKBONE|DICT|INTERRES
    65   34   35 1    
    66   34   90 1    
    67   35   36 1    
    68   35   37 1    
    69   35   91 1    
    70   36   92 1    
    71   36   93 1    
    72   36   94 1    
    73   37   38 2    
    74   37   39 am   BACKBONE|DICT|INTERRES
    75   39   40 1    
    76   39   95 1    
    77   40   41 1    
    78   40   42 1    
    79   40   96 1    
    80   41   97 1    
    81   41   98 1    
    82   41   99 1    
    83   42   43 2    
    84   42   44 am   BACKBONE|DICT|INTERRES
    85   44   45 1    
    86   44  100 1    
    87   45   46 1    
    88   45   47 1    
    89   45  101 1    
    90   46  102 1    
    91   46  103 1    
    92   46  104 1    
    93   47   48 2    
    94   47   49 am   BACKBONE|DICT|INTERRES
    95   49   50 1    
    96   49  105 1    
    97   50   51 1    
    98   50   52 1    
    99   50  106 1    
   100   51  107 1    
   101   51  108 1    
   102   51  109 1    
   103   52   53 2    
   104   52   54 am   BACKBONE|DICT|INTERRES
   105   54   55 1    
   106   54  110 1    
   107   55   56 1    
   108   55   59 1    
   109   55  111 1    
   110   56   57 am   BACKBONE|DICT|INTERRES
   111   56   58 2    
   112   57  112 1    
   113   57  113 1    
   114   59   60 1    
   115   59  114 1    
   116   59  115 1    
   117   60   61 1    
   118   61  116 1    
   119   61  117 1    
@<TRIPOS>SUBSTRUCTURE
     1 UNK         1 GROUP             0       ****    0 ROOT    
