@<TRIPOS>MOLECULE
3R8
117   119    1
SMALL
USER_CHARGES


@<TRIPOS>ATOM
      1 CA         15.3929  -25.2202  -47.6552 C.3       0 UNK        -0.2013 
      2 C          16.2849  -25.2159  -46.4227 C.2       0 UNK         0.4866 
      3 O          16.0414  -24.4453  -45.4934 O.2       0 UNK        -0.5176 
      4 N          17.3213  -26.0637  -46.4097 N.am      1 UNK        -0.4884 
      5 CA         18.2352  -26.2435  -45.2783 C.3       1 UNK         0.0853 
      6 C6         19.5361  -26.9530  -45.7269 C.3       10 UNK        -0.0849 
      7 S7         20.8901  -26.8515  -44.5012 S.3       10 UNK        -0.2776 
      8 C8         21.5080  -28.5681  -44.5024 C.3       10 UNK         0.0316 
      9 C9         20.7972  -29.4165  -43.4583 C.ar      10 UNK        -0.0863 
     10 C10        19.5893  -30.0494  -43.7631 C.ar      10 UNK        -0.1009 
     11 C11        18.9102  -30.7880  -42.7915 C.ar      10 UNK        -0.0712 
     12 C12        19.4444  -30.8870  -41.5047 C.ar      10 UNK        -0.0894 
     13 C13        20.6505  -30.2583  -41.1837 C.ar      10 UNK        -0.0745 
     14 C14        21.3389  -29.5512  -42.1764 C.ar      10 UNK        -0.0972 
     15 C15        21.1829  -30.3252  -39.7556 C.3       10 UNK         0.0209 
     16 S16        20.0384  -29.5625  -38.5529 S.3       10 UNK        -0.2568 
     17 C17        20.5299  -27.8000  -38.5095 C.3       10 UNK        -0.0983 
     18 CA         20.6666  -27.1099  -39.8944 C.3       3 UNK         0.0876 
     19 N          19.4987  -27.2797  -40.7685 N.am      3 UNK        -0.4424 
     20 C          18.2623  -26.8123  -40.5573 C.2       2 UNK         0.4918 
     21 O          17.9333  -26.1231  -39.5911 O.2       2 UNK        -0.4875 
     22 CA         17.2501  -27.1316  -41.6647 C.3       2 UNK         0.0481 
     23 CB         15.8231  -26.6387  -41.3560 C.3       2 UNK        -0.1831 
     24 N          17.7365  -26.5287  -42.9019 N.am      2 UNK        -0.4498 
     25 C          17.5292  -27.0013  -44.1345 C.2       1 UNK         0.5027 
     26 O          16.8403  -27.9921  -44.3905 O.2       1 UNK        -0.4969 
     27 C          21.1350  -25.6423  -39.8139 C.2       3 UNK         0.5005 
     28 O          21.5682  -25.1837  -38.7548 O.2       3 UNK        -0.5279 
     29 N          21.0785  -24.9414  -40.9573 N.am      4 UNK        -0.4463 
     30 CA         21.6940  -23.6242  -41.1511 C.3       4 UNK         0.0283 
     31 CB         21.1392  -22.9831  -42.4336 C.3       4 UNK        -0.1875 
     32 C          23.2296  -23.7240  -41.2126 C.2       4 UNK         0.4949 
     33 O          23.9237  -22.8427  -40.7062 O.2       4 UNK        -0.5039 
     34 N          23.7180  -24.8190  -41.8029 N.am      5 UNK        -0.4663 
     35 CA         25.1064  -25.2561  -41.8580 C.3       5 UNK         0.0242 
     36 CB         25.8721  -24.4669  -42.9361 C.3       5 UNK        -0.1982 
     37 C          25.0858  -26.7567  -42.1776 C.2       5 UNK         0.5017 
     38 O          24.0860  -27.2401  -42.7152 O.2       5 UNK        -0.5012 
     39 N          26.1836  -27.4577  -41.8633 N.am      6 UNK        -0.4439 
     40 CA         26.3974  -28.8940  -42.0967 C.3       6 UNK         0.0297 
     41 CB         26.5073  -29.1777  -43.6141 C.3       6 UNK        -0.2006 
     42 C          25.3607  -29.7895  -41.3786 C.2       6 UNK         0.4892 
     43 O          24.8069  -29.3859  -40.3534 O.2       6 UNK        -0.5089 
     44 N          25.1389  -30.9974  -41.9104 N.am      7 UNK        -0.4243 
     45 CA         24.2023  -31.9946  -41.3956 C.3       7 UNK         0.0196 
     46 CB         24.8336  -32.7726  -40.2230 C.3       7 UNK        -0.2007 
     47 C          23.7435  -32.8970  -42.5481 C.2       7 UNK         0.5020 
     48 O          23.8938  -34.1171  -42.4753 O.2       7 UNK        -0.5147 
     49 N          23.2214  -32.2768  -43.6166 N.am      8 UNK        -0.4734 
     50 CA         22.8407  -32.9424  -44.8708 C.3       8 UNK         0.0238 
     51 CB         22.4024  -31.8905  -45.9013 C.3       8 UNK        -0.1912 
     52 C          21.7543  -34.0218  -44.7176 C.2       8 UNK         0.5038 
     53 O          21.7919  -35.0149  -45.4455 O.2       8 UNK        -0.5046 
     54 N          20.8292  -33.8187  -43.7714 N.am      9 UNK        -0.4200 
     55 CA         19.7923  -34.7949  -43.3999 C.3       9 UNK         0.0839 
     56 C          20.2857  -35.9064  -42.4258 C.2       9 UNK         0.5513 
     57 N          21.5366  -35.9122  -41.9788 N.am      9 UNK        -0.7519 
     58 O          19.5148  -36.7955  -42.0733 O.2       9 UNK        -0.4960 
     59 C59        18.5042  -34.1082  -42.8741 C.3       10 UNK        -0.0876 
     60 S60        17.7739  -32.9628  -44.0955 S.3       10 UNK        -0.2414 
     61 C61        17.5756  -31.4382  -43.1223 C.3       10 UNK         0.0169 
     62 H62        15.3837  -24.2324  -48.1153 H         1 UNK         0.0903 
     63 H63        14.3709  -25.4762  -47.3772 H         1 UNK         0.0903 
     64 H64        15.7312  -25.9385  -48.4018 H         1 UNK         0.0903 
     65 H65        17.4517  -26.6975  -47.1856 H         1 UNK         0.3096 
     66 H66        18.5035  -25.2460  -44.9215 H         1 UNK         0.1121 
     67 H67        19.3322  -27.9909  -45.9932 H         1 UNK         0.0849 
     68 H68        19.9101  -26.4860  -46.6395 H         1 UNK         0.0849 
     69 H69        21.3971  -29.0042  -45.4956 H         1 UNK         0.0865 
     70 H70        22.5802  -28.5597  -44.3074 H         1 UNK         0.0865 
     71 H71        19.1619  -29.9577  -44.7517 H         1 UNK         0.1346 
     72 H72        18.9085  -31.4313  -40.7390 H         1 UNK         0.1412 
     73 H73        22.2796  -29.0694  -41.9434 H         1 UNK         0.1426 
     74 H74        21.3203  -31.3728  -39.4847 H         1 UNK         0.0716 
     75 H75        22.1638  -29.8554  -39.6703 H         1 UNK         0.0716 
     76 H76        21.4755  -27.7423  -37.9673 H         1 UNK         0.0695 
     77 H77        19.8004  -27.2690  -37.8957 H         1 UNK         0.0695 
     78 H78        21.4999  -27.5934  -40.3978 H         1 UNK         0.0983 
     79 H79        19.6518  -27.8564  -41.5859 H         1 UNK         0.3095 
     80 H80        17.2271  -28.2186  -41.7716 H         1 UNK         0.0454 
     81 H81        15.1261  -26.9259  -42.1432 H         1 UNK         0.0851 
     82 H82        15.7845  -25.5536  -41.2544 H         1 UNK         0.0851 
     83 H83        15.4548  -27.0695  -40.4242 H         1 UNK         0.0851 
     84 H84        18.3073  -25.7033  -42.7866 H         1 UNK         0.2976 
     85 H85        20.7117  -25.3981  -41.7790 H         1 UNK         0.3116 
     86 H86        21.4290  -22.9869  -40.3047 H         1 UNK         0.0646 
     87 H87        20.0583  -22.8540  -42.3778 H         1 UNK         0.0847 
     88 H88        21.5739  -21.9952  -42.5926 H         1 UNK         0.0847 
     89 H89        21.3620  -23.5820  -43.3178 H         1 UNK         0.0847 
     90 H90        23.0798  -25.5051  -42.1892 H         1 UNK         0.3040 
     91 H91        25.5684  -25.1058  -40.8798 H         1 UNK         0.1015 
     92 H92        25.4250  -24.5991  -43.9223 H         1 UNK         0.0786 
     93 H93        26.9101  -24.7954  -43.0007 H         1 UNK         0.0786 
     94 H94        25.8853  -23.3995  -42.7156 H         1 UNK         0.0786 
     95 H95        26.9383  -26.9775  -41.3928 H         1 UNK         0.3172 
     96 H96        27.3622  -29.1301  -41.6455 H         1 UNK         0.0595 
     97 H97        27.1926  -28.4797  -44.0954 H         1 UNK         0.0839 
     98 H98        25.5426  -29.0891  -44.1158 H         1 UNK         0.0839 
     99 H99        26.8942  -30.1780  -43.8106 H         1 UNK         0.0839 
    100 H100       25.6310  -31.2544  -42.7555 H         1 UNK         0.2998 
    101 H101       23.3113  -31.4890  -41.0281 H         1 UNK         0.0822 
    102 H102       24.1426  -33.5213  -39.8331 H         1 UNK         0.0787 
    103 H103       25.7426  -33.2918  -40.5288 H         1 UNK         0.0787 
    104 H104       25.0882  -32.1093  -39.3964 H         1 UNK         0.0787 
    105 H105       23.1147  -31.2732  -43.5860 H         1 UNK         0.3055 
    106 H106       23.7342  -33.4412  -45.2532 H         1 UNK         0.1106 
    107 H107       23.1615  -31.1208  -46.0407 H         1 UNK         0.0828 
    108 H108       22.2285  -32.3520  -46.8744 H         1 UNK         0.0828 
    109 H109       21.4720  -31.4058  -45.6067 H         1 UNK         0.0828 
    110 H110       20.8658  -32.9691  -43.2281 H         1 UNK         0.2931 
    111 H111       19.5047  -35.3276  -44.3086 H         1 UNK         0.0412 
    112 H112       22.2102  -35.2141  -42.2735 H         1 UNK         0.3472 
    113 H113       21.8267  -36.6475  -41.3538 H         1 UNK         0.3472 
    114 H114       17.7424  -34.8544  -42.6406 H         1 UNK         0.0970 
    115 H115       18.7070  -33.5890  -41.9374 H         1 UNK         0.0970 
    116 H116       16.9667  -30.7357  -43.6933 H         1 UNK         0.0612 
    117 H117       17.0129  -31.6581  -42.2138 H         1 UNK         0.0612 
@<TRIPOS>BOND
     1    1    2 1    
     2    1   62 1    
     3    1   63 1    
     4    1   64 1    
     5    2    3 2    
     6    2    4 am   BACKBONE|DICT|INTERRES
     7    4    5 1    
     8    4   65 1    
     9    5    6 1    
    10    5   25 1    
    11    5   66 1    
    12    6    7 1    
    13    6   67 1    
    14    6   68 1    
    15    7    8 1    
    16    8    9 1    
    17    8   69 1    
    18    8   70 1    
    19    9   10 ar   
    20    9   14 ar   
    21   10   11 ar   
    22   10   71 1    
    23   11   12 ar   
    24   11   61 1    
    25   12   13 ar   
    26   12   72 1    
    27   13   14 ar   
    28   13   15 1    
    29   14   73 1    
    30   15   16 1    
    31   15   74 1    
    32   15   75 1    
    33   16   17 1    
    34   17   18 1    
    35   17   76 1    
    36   17   77 1    
    37   18   19 1    
    38   18   27 1    
    39   18   78 1    
    40   19   20 am   BACKBONE|DICT|INTERRES
    41   19   79 1    
    42   20   21 2    
    43   20   22 1    
    44   22   23 1    
    45   22   24 1    
    46   22   80 1    
    47   23   81 1    
    48   23   82 1    
    49   23   83 1    
    50   24   25 am   BACKBONE|DICT|INTERRES
    51   24   84 1    
    52   25   26 2    
    53   27   28 2    
    54   27   29 am   BACKBONE|DICT|INTERRES
    55   29   30 1    
    56   29   85 1    
    57   30   31 1    
    58   30   32 1    
    59   30   86 1    
    60   31   87 1    
    61   31   88 1    
    62   31   89 1    
    63   32   33 2    
    64   32   34 am   BACKBONE|DICT|INTERRES
    65   34   35 1    
    66   34   90 1    
    67   35   36 1    
    68   35   37 1    
    69   35   91 1    
    70   36   92 1    
    71   36   93 1    
    72   36   94 1    
    73   37   38 2    
    74   37   39 am   BACKBONE|DICT|INTERRES
    75   39   40 1    
    76   39   95 1    
    77   40   41 1    
    78   40   42 1    
    79   40   96 1    
    80   41   97 1    
    81   41   98 1    
    82   41   99 1    
    83   42   43 2    
    84   42   44 am   BACKBONE|DICT|INTERRES
    85   44   45 1    
    86   44  100 1    
    87   45   46 1    
    88   45   47 1    
    89   45  101 1    
    90   46  102 1    
    91   46  103 1    
    92   46  104 1    
    93   47   48 2    
    94   47   49 am   BACKBONE|DICT|INTERRES
    95   49   50 1    
    96   49  105 1    
    97   50   51 1    
    98   50   52 1    
    99   50  106 1    
   100   51  107 1    
   101   51  108 1    
   102   51  109 1    
   103   52   53 2    
   104   52   54 am   BACKBONE|DICT|INTERRES
   105   54   55 1    
   106   54  110 1    
   107   55   56 1    
   108   55   59 1    
   109   55  111 1    
   110   56   57 am   BACKBONE|DICT|INTERRES
   111   56   58 2    
   112   57  112 1    
   113   57  113 1    
   114   59   60 1    
   115   59  114 1    
   116   59  115 1    
   117   60   61 1    
   118   61  116 1    
   119   61  117 1    
@<TRIPOS>SUBSTRUCTURE
     1 UNK         1 GROUP             0       ****    0 ROOT    
