@<TRIPOS>MOLECULE
3R8
117   119    1
SMALL
USER_CHARGES


@<TRIPOS>ATOM
      1 CA         21.4112  -26.3072  -48.5491 C.3       0 UNK        -0.2013 
      2 C          19.9503  -26.5855  -48.8977 C.2       0 UNK         0.4866 
      3 O          19.4382  -26.0011  -49.8505 O.2       0 UNK        -0.5176 
      4 N          19.2421  -27.4705  -48.1820 N.am      1 UNK        -0.4884 
      5 CA         19.6531  -28.1785  -46.9641 C.3       1 UNK         0.0853 
      6 C6         18.7288  -29.3857  -46.6504 C.3       10 UNK        -0.0849 
      7 S7         16.9394  -29.0322  -46.7928 S.3       10 UNK        -0.2776 
      8 C8         16.2168  -30.3842  -45.8092 C.3       10 UNK         0.0316 
      9 C9         16.5066  -30.2179  -44.3253 C.ar      10 UNK        -0.0863 
     10 C10        17.3144  -31.1365  -43.6506 C.ar      10 UNK        -0.1009 
     11 C11        17.5938  -30.9692  -42.2911 C.ar      10 UNK        -0.0712 
     12 C12        17.0680  -29.8679  -41.6059 C.ar      10 UNK        -0.0894 
     13 C13        16.2588  -28.9425  -42.2738 C.ar      10 UNK        -0.0745 
     14 C14        15.9697  -29.1343  -43.6275 C.ar      10 UNK        -0.0972 
     15 C15        15.6860  -27.7314  -41.5534 C.3       10 UNK         0.0209 
     16 S16        16.3889  -26.1848  -42.2137 S.3       10 UNK        -0.2568 
     17 C17        17.5506  -25.6895  -40.9020 C.3       10 UNK        -0.0983 
     18 CA         18.9295  -26.3950  -40.9594 C.3       3 UNK         0.0876 
     19 N          19.5773  -26.2658  -42.2705 N.am      3 UNK        -0.4424 
     20 C          20.7347  -26.8447  -42.6139 C.2       2 UNK         0.4918 
     21 O          21.3405  -27.6527  -41.9050 O.2       2 UNK        -0.4875 
     22 CA         21.3245  -26.4321  -43.9709 C.3       2 UNK         0.0481 
     23 CB         22.8631  -26.3983  -43.9343 C.3       2 UNK        -0.1831 
     24 N          20.9052  -27.3463  -45.0302 N.am      2 UNK        -0.4498 
     25 C          19.7982  -27.2062  -45.7711 C.2       1 UNK         0.5027 
     26 O          18.9527  -26.3294  -45.5795 O.2       1 UNK        -0.4969 
     27 C          19.8278  -25.8252  -39.8398 C.2       3 UNK         0.5005 
     28 O          20.5539  -24.8553  -40.0770 O.2       3 UNK        -0.5279 
     29 N          19.7506  -26.4212  -38.6405 N.am      4 UNK        -0.4463 
     30 CA         20.4669  -26.0809  -37.3979 C.3       4 UNK         0.0283 
     31 CB         20.1418  -24.6507  -36.9236 C.3       4 UNK        -0.1875 
     32 C          21.9888  -26.3173  -37.4440 C.2       4 UNK         0.4949 
     33 O          22.5356  -26.8775  -36.4941 O.2       4 UNK        -0.5039 
     34 N          22.6414  -25.9198  -38.5437 N.am      5 UNK        -0.4663 
     35 CA         24.0492  -26.1994  -38.8421 C.3       5 UNK         0.0242 
     36 CB         24.4892  -25.3575  -40.0495 C.3       5 UNK        -0.1982 
     37 C          24.3073  -27.6936  -39.1016 C.2       5 UNK         0.5017 
     38 O          25.3852  -28.1862  -38.7695 O.2       5 UNK        -0.5012 
     39 N          23.3038  -28.3779  -39.6729 N.am      6 UNK        -0.4439 
     40 CA         23.2101  -29.8241  -39.8964 C.3       6 UNK         0.0297 
     41 CB         23.2607  -30.5936  -38.5589 C.3       6 UNK        -0.2006 
     42 C          24.1961  -30.3882  -40.9366 C.2       6 UNK         0.4892 
     43 O          24.3530  -31.6072  -41.0142 O.2       6 UNK        -0.5089 
     44 N          24.8159  -29.5152  -41.7441 N.am      7 UNK        -0.4243 
     45 CA         25.8348  -29.8633  -42.7421 C.3       7 UNK         0.0196 
     46 CB         26.4263  -28.5731  -43.3327 C.3       7 UNK        -0.2007 
     47 C          25.3332  -30.7901  -43.8645 C.2       7 UNK         0.5020 
     48 O          26.1173  -31.5799  -44.3904 O.2       7 UNK        -0.5147 
     49 N          24.0409  -30.6877  -44.1988 N.am      8 UNK        -0.4734 
     50 CA         23.3661  -31.5328  -45.1895 C.3       8 UNK         0.0238 
     51 CB         22.3896  -30.6553  -45.9909 C.3       8 UNK        -0.1912 
     52 C          22.6092  -32.7124  -44.5508 C.2       8 UNK         0.5038 
     53 O          22.0641  -33.5354  -45.2874 O.2       8 UNK        -0.5046 
     54 N          22.5468  -32.7569  -43.2144 N.am      9 UNK        -0.4200 
     55 CA         21.7080  -33.6859  -42.4404 C.3       9 UNK         0.0839 
     56 C          22.4236  -35.0105  -42.0524 C.2       9 UNK         0.5513 
     57 N          23.7032  -35.1919  -42.3566 N.am      9 UNK        -0.7519 
     58 O          21.8005  -35.8982  -41.4758 O.2       9 UNK        -0.4960 
     59 C59        21.0869  -32.9888  -41.1997 C.3       10 UNK        -0.0876 
     60 S60        20.2109  -31.4450  -41.6335 S.3       10 UNK        -0.2414 
     61 C61        18.4782  -31.9763  -41.5755 C.3       10 UNK         0.0169 
     62 H62        21.4872  -25.7163  -47.6369 H         1 UNK         0.0903 
     63 H63        21.9786  -27.2285  -48.4251 H         1 UNK         0.0903 
     64 H64        21.8882  -25.7399  -49.3482 H         1 UNK         0.0903 
     65 H65        18.2706  -27.6122  -48.4231 H         1 UNK         0.3096 
     66 H66        20.6395  -28.5986  -47.1644 H         1 UNK         0.1121 
     67 H67        18.9495  -29.7886  -45.6602 H         1 UNK         0.0849 
     68 H68        18.9507  -30.1953  -47.3475 H         1 UNK         0.0849 
     69 H69        15.1366  -30.3954  -45.9618 H         1 UNK         0.0865 
     70 H70        16.5885  -31.3409  -46.1799 H         1 UNK         0.0865 
     71 H71        17.7353  -31.9785  -44.1834 H         1 UNK         0.1346 
     72 H72        17.2950  -29.7319  -40.5575 H         1 UNK         0.1412 
     73 H73        15.3486  -28.4180  -44.1487 H         1 UNK         0.1426 
     74 H74        15.8482  -27.8003  -40.4769 H         1 UNK         0.0716 
     75 H75        14.6048  -27.7134  -41.6974 H         1 UNK         0.0716 
     76 H76        17.0718  -25.8531  -39.9345 H         1 UNK         0.0695 
     77 H77        17.6789  -24.6083  -40.9881 H         1 UNK         0.0695 
     78 H78        18.7865  -27.4623  -40.7786 H         1 UNK         0.0983 
     79 H79        19.1282  -25.6444  -42.9278 H         1 UNK         0.3095 
     80 H80        20.9834  -25.4208  -44.2041 H         1 UNK         0.0454 
     81 H81        23.2887  -27.3732  -43.6962 H         1 UNK         0.0851 
     82 H82        23.2163  -25.6931  -43.1823 H         1 UNK         0.0851 
     83 H83        23.2761  -26.0776  -44.8908 H         1 UNK         0.0851 
     84 H84        21.5352  -28.1094  -45.2219 H         1 UNK         0.2976 
     85 H85        19.1383  -27.2218  -38.5578 H         1 UNK         0.3116 
     86 H86        20.0736  -26.7647  -36.6438 H         1 UNK         0.0646 
     87 H87        20.5228  -23.8929  -37.6087 H         1 UNK         0.0847 
     88 H88        20.5895  -24.4552  -35.9483 H         1 UNK         0.0847 
     89 H89        19.0671  -24.5007  -36.8217 H         1 UNK         0.0847 
     90 H90        22.0921  -25.4414  -39.2557 H         1 UNK         0.3040 
     91 H91        24.6469  -25.9063  -37.9760 H         1 UNK         0.1015 
     92 H92        24.3917  -24.2912  -39.8447 H         1 UNK         0.0786 
     93 H93        23.8943  -25.5836  -40.9339 H         1 UNK         0.0786 
     94 H94        25.5347  -25.5451  -40.2989 H         1 UNK         0.0786 
     95 H95        22.4964  -27.8510  -39.9851 H         1 UNK         0.3172 
     96 H96        22.2189  -29.9747  -40.3189 H         1 UNK         0.0595 
     97 H97        24.2451  -30.5338  -38.0942 H         1 UNK         0.0839 
     98 H98        23.0377  -31.6512  -38.7004 H         1 UNK         0.0839 
     99 H99        22.5306  -30.2036  -37.8497 H         1 UNK         0.0839 
    100 H100       24.6199  -28.5343  -41.6111 H         1 UNK         0.2998 
    101 H101       26.6323  -30.3951  -42.2188 H         1 UNK         0.0822 
    102 H102       26.8598  -27.9424  -42.5562 H         1 UNK         0.0787 
    103 H103       27.2219  -28.8000  -44.0439 H         1 UNK         0.0787 
    104 H104       25.6754  -27.9869  -43.8629 H         1 UNK         0.0787 
    105 H105       23.4708  -30.0217  -43.6979 H         1 UNK         0.3055 
    106 H106       24.0967  -31.9543  -45.8840 H         1 UNK         0.1106 
    107 H107       21.9227  -31.2259  -46.7952 H         1 UNK         0.0828 
    108 H108       22.9018  -29.8105  -46.4517 H         1 UNK         0.0828 
    109 H109       21.5884  -30.2734  -45.3578 H         1 UNK         0.0828 
    110 H110       23.0924  -32.1024  -42.6689 H         1 UNK         0.2931 
    111 H111       20.8705  -33.9884  -43.0722 H         1 UNK         0.0412 
    112 H112       24.2232  -34.4640  -42.8204 H         1 UNK         0.3472 
    113 H113       24.1556  -36.0567  -42.1047 H         1 UNK         0.3472 
    114 H114       20.3993  -33.6604  -40.6822 H         1 UNK         0.0970 
    115 H115       21.8659  -32.7451  -40.4769 H         1 UNK         0.0970 
    116 H116       18.3801  -32.9575  -42.0430 H         1 UNK         0.0612 
    117 H117       18.1660  -32.0908  -40.5364 H         1 UNK         0.0612 
@<TRIPOS>BOND
     1    1    2 1    
     2    1   62 1    
     3    1   63 1    
     4    1   64 1    
     5    2    3 2    
     6    2    4 am   BACKBONE|DICT|INTERRES
     7    4    5 1    
     8    4   65 1    
     9    5    6 1    
    10    5   25 1    
    11    5   66 1    
    12    6    7 1    
    13    6   67 1    
    14    6   68 1    
    15    7    8 1    
    16    8    9 1    
    17    8   69 1    
    18    8   70 1    
    19    9   10 ar   
    20    9   14 ar   
    21   10   11 ar   
    22   10   71 1    
    23   11   12 ar   
    24   11   61 1    
    25   12   13 ar   
    26   12   72 1    
    27   13   14 ar   
    28   13   15 1    
    29   14   73 1    
    30   15   16 1    
    31   15   74 1    
    32   15   75 1    
    33   16   17 1    
    34   17   18 1    
    35   17   76 1    
    36   17   77 1    
    37   18   19 1    
    38   18   27 1    
    39   18   78 1    
    40   19   20 am   BACKBONE|DICT|INTERRES
    41   19   79 1    
    42   20   21 2    
    43   20   22 1    
    44   22   23 1    
    45   22   24 1    
    46   22   80 1    
    47   23   81 1    
    48   23   82 1    
    49   23   83 1    
    50   24   25 am   BACKBONE|DICT|INTERRES
    51   24   84 1    
    52   25   26 2    
    53   27   28 2    
    54   27   29 am   BACKBONE|DICT|INTERRES
    55   29   30 1    
    56   29   85 1    
    57   30   31 1    
    58   30   32 1    
    59   30   86 1    
    60   31   87 1    
    61   31   88 1    
    62   31   89 1    
    63   32   33 2    
    64   32   34 am   BACKBONE|DICT|INTERRES
    65   34   35 1    
    66   34   90 1    
    67   35   36 1    
    68   35   37 1    
    69   35   91 1    
    70   36   92 1    
    71   36   93 1    
    72   36   94 1    
    73   37   38 2    
    74   37   39 am   BACKBONE|DICT|INTERRES
    75   39   40 1    
    76   39   95 1    
    77   40   41 1    
    78   40   42 1    
    79   40   96 1    
    80   41   97 1    
    81   41   98 1    
    82   41   99 1    
    83   42   43 2    
    84   42   44 am   BACKBONE|DICT|INTERRES
    85   44   45 1    
    86   44  100 1    
    87   45   46 1    
    88   45   47 1    
    89   45  101 1    
    90   46  102 1    
    91   46  103 1    
    92   46  104 1    
    93   47   48 2    
    94   47   49 am   BACKBONE|DICT|INTERRES
    95   49   50 1    
    96   49  105 1    
    97   50   51 1    
    98   50   52 1    
    99   50  106 1    
   100   51  107 1    
   101   51  108 1    
   102   51  109 1    
   103   52   53 2    
   104   52   54 am   BACKBONE|DICT|INTERRES
   105   54   55 1    
   106   54  110 1    
   107   55   56 1    
   108   55   59 1    
   109   55  111 1    
   110   56   57 am   BACKBONE|DICT|INTERRES
   111   56   58 2    
   112   57  112 1    
   113   57  113 1    
   114   59   60 1    
   115   59  114 1    
   116   59  115 1    
   117   60   61 1    
   118   61  116 1    
   119   61  117 1    
@<TRIPOS>SUBSTRUCTURE
     1 UNK         1 GROUP             0       ****    0 ROOT    
