@<TRIPOS>MOLECULE
3R8
117   119    1
SMALL
USER_CHARGES


@<TRIPOS>ATOM
      1 CA         16.2735  -23.4488  -49.3081 C.3       0 UNK        -0.2013 
      2 C          16.9321  -24.4554  -48.3765 C.2       0 UNK         0.4866 
      3 O          18.0175  -24.9520  -48.6801 O.2       0 UNK        -0.5176 
      4 N          16.2804  -24.7682  -47.2499 N.am      1 UNK        -0.4884 
      5 CA         16.7891  -25.6776  -46.2180 C.3       1 UNK         0.0853 
      6 C6         15.6659  -26.1486  -45.2618 C.3       10 UNK        -0.0849 
      7 S7         14.3936  -27.1695  -46.0805 S.3       10 UNK        -0.2776 
      8 C8         15.3012  -28.6950  -46.5231 C.3       10 UNK         0.0316 
      9 C9         16.1677  -29.2449  -45.3942 C.ar      10 UNK        -0.0863 
     10 C10        17.5450  -29.4108  -45.5829 C.ar      10 UNK        -0.1009 
     11 C11        18.3427  -29.9166  -44.5531 C.ar      10 UNK        -0.0712 
     12 C12        17.7513  -30.2831  -43.3434 C.ar      10 UNK        -0.0894 
     13 C13        16.3896  -30.0698  -43.1172 C.ar      10 UNK        -0.0745 
     14 C14        15.5983  -29.5740  -44.1584 C.ar      10 UNK        -0.0972 
     15 C15        15.7688  -30.3470  -41.7491 C.3       10 UNK         0.0209 
     16 S16        16.7916  -29.7921  -40.3321 S.3       10 UNK        -0.2568 
     17 C17        17.1473  -28.0453  -40.7350 C.3       10 UNK        -0.0983 
     18 CA         18.6398  -27.8375  -41.1127 C.3       3 UNK         0.0876 
     19 N          18.8153  -26.8069  -42.1362 N.am      3 UNK        -0.4424 
     20 C          19.9522  -26.5956  -42.8134 C.2       2 UNK         0.4918 
     21 O          20.9902  -27.2317  -42.6209 O.2       2 UNK        -0.4875 
     22 CA         19.8784  -25.5471  -43.9326 C.3       2 UNK         0.0481 
     23 CB         21.1790  -25.4313  -44.7501 C.3       2 UNK        -0.1831 
     24 N          18.7720  -25.9019  -44.8188 N.am      2 UNK        -0.4498 
     25 C          17.9353  -25.0401  -45.4069 C.2       1 UNK         0.5027 
     26 O          18.0116  -23.8139  -45.2901 O.2       1 UNK        -0.4969 
     27 C          19.5380  -27.5695  -39.8900 C.2       3 UNK         0.5005 
     28 O          19.4504  -26.4923  -39.2961 O.2       3 UNK        -0.5279 
     29 N          20.3995  -28.5479  -39.5732 N.am      4 UNK        -0.4463 
     30 CA         21.4107  -28.5400  -38.5084 C.3       4 UNK         0.0283 
     31 CB         20.7514  -28.4317  -37.1165 C.3       4 UNK        -0.1875 
     32 C          22.5439  -27.5108  -38.7084 C.2       4 UNK         0.4949 
     33 O          23.2400  -27.1931  -37.7430 O.2       4 UNK        -0.5039 
     34 N          22.7454  -27.0257  -39.9443 N.am      5 UNK        -0.4663 
     35 CA         23.8370  -26.1057  -40.2918 C.3       5 UNK         0.0242 
     36 CB         23.5262  -25.4246  -41.6326 C.3       5 UNK        -0.1982 
     37 C          25.2123  -26.7955  -40.3507 C.2       5 UNK         0.5017 
     38 O          26.2303  -26.1316  -40.1516 O.2       5 UNK        -0.5012 
     39 N          25.2166  -28.1057  -40.6165 N.am      6 UNK        -0.4439 
     40 CA         26.3814  -28.9815  -40.6398 C.3       6 UNK         0.0297 
     41 CB         27.0690  -28.9099  -42.0148 C.3       6 UNK        -0.2006 
     42 C          25.8965  -30.4026  -40.3450 C.2       6 UNK         0.4892 
     43 O          24.7451  -30.7247  -40.6508 O.2       6 UNK        -0.5089 
     44 N          26.7850  -31.2424  -39.7987 N.am      7 UNK        -0.4243 
     45 CA         26.5049  -32.6297  -39.3982 C.3       7 UNK         0.0196 
     46 CB         27.7424  -33.2047  -38.6895 C.3       7 UNK        -0.2007 
     47 C          26.0608  -33.5630  -40.5425 C.2       7 UNK         0.5020 
     48 O          25.4660  -34.6065  -40.2731 O.2       7 UNK        -0.5147 
     49 N          26.3423  -33.1729  -41.7922 N.am      8 UNK        -0.4734 
     50 CA         25.9288  -33.8741  -43.0085 C.3       8 UNK         0.0238 
     51 CB         26.7607  -33.3457  -44.1894 C.3       8 UNK        -0.1912 
     52 C          24.4235  -33.7631  -43.3231 C.2       8 UNK         0.5038 
     53 O          23.9404  -34.5523  -44.1366 O.2       8 UNK        -0.5046 
     54 N          23.7153  -32.8000  -42.7149 N.am      9 UNK        -0.4200 
     55 CA         22.2851  -32.5458  -42.9563 C.3       9 UNK         0.0839 
     56 C          21.5008  -32.0924  -41.6899 C.2       9 UNK         0.5513 
     57 N          22.1388  -31.6220  -40.6264 N.am      9 UNK        -0.7519 
     58 O          20.2810  -32.2151  -41.6417 O.2       9 UNK        -0.4960 
     59 C59        22.0871  -31.6147  -44.1853 C.3       10 UNK        -0.0876 
     60 S60        20.4211  -31.7159  -44.9302 S.3       10 UNK        -0.2414 
     61 C61        19.8526  -30.0056  -44.6999 C.3       10 UNK         0.0169 
     62 H62        15.3100  -23.1101  -48.9275 H         1 UNK         0.0903 
     63 H63        16.9151  -22.5766  -49.4310 H         1 UNK         0.0903 
     64 H64        16.1123  -23.8948  -50.2892 H         1 UNK         0.0903 
     65 H65        15.3972  -24.3237  -47.0440 H         1 UNK         0.3096 
     66 H66        17.2062  -26.5492  -46.7262 H         1 UNK         0.1121 
     67 H67        15.1678  -25.2872  -44.8125 H         1 UNK         0.0849 
     68 H68        16.0682  -26.7181  -44.4222 H         1 UNK         0.0849 
     69 H69        14.5790  -29.4586  -46.8151 H         1 UNK         0.0865 
     70 H70        15.9023  -28.4980  -47.4120 H         1 UNK         0.0865 
     71 H71        17.9994  -29.1394  -46.5262 H         1 UNK         0.1346 
     72 H72        18.3676  -30.6925  -42.5555 H         1 UNK         0.1412 
     73 H73        14.5387  -29.4205  -44.0040 H         1 UNK         0.1426 
     74 H74        15.5923  -31.4192  -41.6557 H         1 UNK         0.0716 
     75 H75        14.7930  -29.8650  -41.6715 H         1 UNK         0.0716 
     76 H76        16.8511  -27.4152  -39.8940 H         1 UNK         0.0695 
     77 H77        16.4973  -27.7492  -41.5598 H         1 UNK         0.0695 
     78 H78        19.0055  -28.7529  -41.5763 H         1 UNK         0.0983 
     79 H79        18.0183  -26.2187  -42.3266 H         1 UNK         0.3095 
     80 H80        19.6821  -24.5860  -43.4531 H         1 UNK         0.0454 
     81 H81        21.4517  -26.3811  -45.2117 H         1 UNK         0.0851 
     82 H82        22.0117  -25.1212  -44.1198 H         1 UNK         0.0851 
     83 H83        21.0837  -24.6894  -45.5429 H         1 UNK         0.0851 
     84 H84        18.6155  -26.8941  -44.9349 H         1 UNK         0.2976 
     85 H85        20.3936  -29.3785  -40.1496 H         1 UNK         0.3116 
     86 H86        21.8976  -29.5146  -38.5564 H         1 UNK         0.0646 
     87 H87        20.3138  -27.4471  -36.9498 H         1 UNK         0.0847 
     88 H88        21.4807  -28.5985  -36.3229 H         1 UNK         0.0847 
     89 H89        19.9643  -29.1750  -36.9901 H         1 UNK         0.0847 
     90 H90        22.1260  -27.3068  -40.6958 H         1 UNK         0.3040 
     91 H91        23.8924  -25.3316  -39.5229 H         1 UNK         0.1015 
     92 H92        23.4915  -26.1467  -42.4492 H         1 UNK         0.0786 
     93 H93        24.2903  -24.6873  -41.8825 H         1 UNK         0.0786 
     94 H94        22.5698  -24.9024  -41.6004 H         1 UNK         0.0786 
     95 H95        24.3340  -28.5888  -40.7299 H         1 UNK         0.3172 
     96 H96        27.0798  -28.6780  -39.8569 H         1 UNK         0.0595 
     97 H97        27.9423  -29.5620  -42.0533 H         1 UNK         0.0839 
     98 H98        27.4130  -27.8990  -42.2341 H         1 UNK         0.0839 
     99 H99        26.3961  -29.2144  -42.8178 H         1 UNK         0.0839 
    100 H100       27.7146  -30.8992  -39.6017 H         1 UNK         0.2998 
    101 H101       25.6828  -32.6003  -38.6798 H         1 UNK         0.0822 
    102 H102       27.5597  -34.2248  -38.3481 H         1 UNK         0.0787 
    103 H103       28.6090  -33.2333  -39.3514 H         1 UNK         0.0787 
    104 H104       28.0079  -32.6158  -37.8112 H         1 UNK         0.0787 
    105 H105       26.8410  -32.3038  -41.9140 H         1 UNK         0.3055 
    106 H106       26.1500  -34.9364  -42.8807 H         1 UNK         0.1106 
    107 H107       26.5079  -33.8704  -45.1120 H         1 UNK         0.0828 
    108 H108       26.5879  -32.2827  -44.3623 H         1 UNK         0.0828 
    109 H109       27.8279  -33.4909  -44.0208 H         1 UNK         0.0828 
    110 H110       24.1727  -32.1970  -42.0419 H         1 UNK         0.2931 
    111 H111       21.8340  -33.5084  -43.2063 H         1 UNK         0.0412 
    112 H112       23.1367  -31.4250  -40.6338 H         1 UNK         0.3472 
    113 H113       21.6059  -31.4329  -39.7950 H         1 UNK         0.3472 
    114 H114       22.7856  -31.8950  -44.9752 H         1 UNK         0.0970 
    115 H115       22.3448  -30.5859  -43.9285 H         1 UNK         0.0970 
    116 H116       20.2034  -29.3944  -45.5328 H         1 UNK         0.0612 
    117 H117       20.3040  -29.5870  -43.7999 H         1 UNK         0.0612 
@<TRIPOS>BOND
     1    1    2 1    
     2    1   62 1    
     3    1   63 1    
     4    1   64 1    
     5    2    3 2    
     6    2    4 am   BACKBONE|DICT|INTERRES
     7    4    5 1    
     8    4   65 1    
     9    5    6 1    
    10    5   25 1    
    11    5   66 1    
    12    6    7 1    
    13    6   67 1    
    14    6   68 1    
    15    7    8 1    
    16    8    9 1    
    17    8   69 1    
    18    8   70 1    
    19    9   10 ar   
    20    9   14 ar   
    21   10   11 ar   
    22   10   71 1    
    23   11   12 ar   
    24   11   61 1    
    25   12   13 ar   
    26   12   72 1    
    27   13   14 ar   
    28   13   15 1    
    29   14   73 1    
    30   15   16 1    
    31   15   74 1    
    32   15   75 1    
    33   16   17 1    
    34   17   18 1    
    35   17   76 1    
    36   17   77 1    
    37   18   19 1    
    38   18   27 1    
    39   18   78 1    
    40   19   20 am   BACKBONE|DICT|INTERRES
    41   19   79 1    
    42   20   21 2    
    43   20   22 1    
    44   22   23 1    
    45   22   24 1    
    46   22   80 1    
    47   23   81 1    
    48   23   82 1    
    49   23   83 1    
    50   24   25 am   BACKBONE|DICT|INTERRES
    51   24   84 1    
    52   25   26 2    
    53   27   28 2    
    54   27   29 am   BACKBONE|DICT|INTERRES
    55   29   30 1    
    56   29   85 1    
    57   30   31 1    
    58   30   32 1    
    59   30   86 1    
    60   31   87 1    
    61   31   88 1    
    62   31   89 1    
    63   32   33 2    
    64   32   34 am   BACKBONE|DICT|INTERRES
    65   34   35 1    
    66   34   90 1    
    67   35   36 1    
    68   35   37 1    
    69   35   91 1    
    70   36   92 1    
    71   36   93 1    
    72   36   94 1    
    73   37   38 2    
    74   37   39 am   BACKBONE|DICT|INTERRES
    75   39   40 1    
    76   39   95 1    
    77   40   41 1    
    78   40   42 1    
    79   40   96 1    
    80   41   97 1    
    81   41   98 1    
    82   41   99 1    
    83   42   43 2    
    84   42   44 am   BACKBONE|DICT|INTERRES
    85   44   45 1    
    86   44  100 1    
    87   45   46 1    
    88   45   47 1    
    89   45  101 1    
    90   46  102 1    
    91   46  103 1    
    92   46  104 1    
    93   47   48 2    
    94   47   49 am   BACKBONE|DICT|INTERRES
    95   49   50 1    
    96   49  105 1    
    97   50   51 1    
    98   50   52 1    
    99   50  106 1    
   100   51  107 1    
   101   51  108 1    
   102   51  109 1    
   103   52   53 2    
   104   52   54 am   BACKBONE|DICT|INTERRES
   105   54   55 1    
   106   54  110 1    
   107   55   56 1    
   108   55   59 1    
   109   55  111 1    
   110   56   57 am   BACKBONE|DICT|INTERRES
   111   56   58 2    
   112   57  112 1    
   113   57  113 1    
   114   59   60 1    
   115   59  114 1    
   116   59  115 1    
   117   60   61 1    
   118   61  116 1    
   119   61  117 1    
@<TRIPOS>SUBSTRUCTURE
     1 UNK         1 GROUP             0       ****    0 ROOT    
