@<TRIPOS>MOLECULE
3R8
117   119    1
SMALL
USER_CHARGES


@<TRIPOS>ATOM
      1 CA         13.5765  -25.3742  -42.9498 C.3       0 UNK        -0.2013 
      2 C          14.8402  -25.6144  -43.7625 C.2       0 UNK         0.4866 
      3 O          15.8402  -26.0701  -43.2078 O.2       0 UNK        -0.5176 
      4 N          14.7913  -25.3169  -45.0690 N.am      1 UNK        -0.4884 
      5 CA         15.8868  -25.4505  -46.0429 C.3       1 UNK         0.0853 
      6 C6         16.3424  -26.9217  -46.2625 C.3       10 UNK        -0.0849 
      7 S7         14.9903  -28.0428  -46.7682 S.3       10 UNK        -0.2776 
      8 C8         14.8635  -29.1734  -45.3331 C.3       10 UNK         0.0316 
      9 C9         16.1672  -29.8624  -44.9197 C.ar      10 UNK        -0.0863 
     10 C10        16.3292  -30.2562  -43.5858 C.ar      10 UNK        -0.1009 
     11 C11        17.5191  -30.8521  -43.1567 C.ar      10 UNK        -0.0712 
     12 C12        18.5550  -31.0509  -44.0717 C.ar      10 UNK        -0.0894 
     13 C13        18.4190  -30.6465  -45.3997 C.ar      10 UNK        -0.0745 
     14 C14        17.2124  -30.0879  -45.8267 C.ar      10 UNK        -0.0972 
     15 C15        19.5933  -30.7674  -46.3587 C.3       10 UNK         0.0209 
     16 S16        20.3621  -29.1455  -46.6840 S.3       10 UNK        -0.2568 
     17 C17        21.0007  -28.6823  -45.0361 C.3       10 UNK        -0.0983 
     18 CA         21.5378  -27.2303  -45.0065 C.3       3 UNK         0.0876 
     19 N          20.4924  -26.2485  -45.3140 N.am      3 UNK        -0.4424 
     20 C          20.7274  -25.0011  -45.7444 C.2       2 UNK         0.4918 
     21 O          21.8557  -24.5759  -45.9982 O.2       2 UNK        -0.4875 
     22 CA         19.5095  -24.0756  -45.9295 C.3       2 UNK         0.0481 
     23 CB         19.7072  -23.0560  -47.0686 C.3       2 UNK        -0.1831 
     24 N          18.2789  -24.8385  -46.1544 N.am      2 UNK        -0.4498 
     25 C          17.0596  -24.4880  -45.7213 C.2       1 UNK         0.5027 
     26 O          16.8370  -23.4354  -45.1158 O.2       1 UNK        -0.4969 
     27 C          22.1626  -26.8993  -43.6357 C.2       3 UNK         0.5005 
     28 O          21.4431  -26.4836  -42.7226 O.2       3 UNK        -0.5279 
     29 N          23.4845  -27.0776  -43.5144 N.am      4 UNK        -0.4463 
     30 CA         24.2397  -26.7998  -42.2917 C.3       4 UNK         0.0283 
     31 CB         25.7388  -26.7168  -42.6247 C.3       4 UNK        -0.1875 
     32 C          23.9912  -27.8733  -41.2231 C.2       4 UNK         0.4949 
     33 O          24.0679  -29.0636  -41.5318 O.2       4 UNK        -0.5039 
     34 N          23.7797  -27.4374  -39.9743 N.am      5 UNK        -0.4663 
     35 CA         23.5442  -28.3006  -38.8075 C.3       5 UNK         0.0242 
     36 CB         23.1077  -27.4279  -37.6193 C.3       5 UNK        -0.1982 
     37 C          24.7463  -29.1837  -38.4161 C.2       5 UNK         0.5017 
     38 O          24.5692  -30.1674  -37.6978 O.2       5 UNK        -0.5012 
     39 N          25.9451  -28.8183  -38.8886 N.am      6 UNK        -0.4439 
     40 CA         27.1682  -29.6103  -38.7613 C.3       6 UNK         0.0297 
     41 CB         28.3815  -28.6713  -38.8663 C.3       6 UNK        -0.2006 
     42 C          27.2706  -30.7319  -39.8134 C.2       6 UNK         0.4892 
     43 O          28.0482  -31.6641  -39.6054 O.2       6 UNK        -0.5089 
     44 N          26.5253  -30.6182  -40.9229 N.am      7 UNK        -0.4243 
     45 CA         26.5774  -31.5414  -42.0584 C.3       7 UNK         0.0196 
     46 CB         26.6755  -30.7286  -43.3606 C.3       7 UNK        -0.2007 
     47 C          25.3556  -32.4687  -42.1106 C.2       7 UNK         0.5020 
     48 O          25.5012  -33.6255  -42.5071 O.2       7 UNK        -0.5147 
     49 N          24.1787  -31.9569  -41.7346 N.am      8 UNK        -0.4734 
     50 CA         22.8990  -32.6609  -41.7921 C.3       8 UNK         0.0238 
     51 CB         22.2050  -32.3099  -43.1225 C.3       8 UNK        -0.1912 
     52 C          22.0287  -32.2869  -40.5828 C.2       8 UNK         0.5038 
     53 O          22.4445  -31.4834  -39.7475 O.2       8 UNK        -0.5046 
     54 N          20.8296  -32.8798  -40.5208 N.am      9 UNK        -0.4200 
     55 CA         19.7999  -32.6648  -39.4854 C.3       9 UNK         0.0839 
     56 C          20.1263  -33.2997  -38.0996 C.2       9 UNK         0.5513 
     57 N          21.1138  -34.1802  -37.9895 N.am      9 UNK        -0.7519 
     58 O          19.4523  -33.0175  -37.1120 O.2       9 UNK        -0.4960 
     59 C59        19.3151  -31.1855  -39.3543 C.3       10 UNK        -0.0876 
     60 S60        19.0381  -30.2965  -40.9266 S.3       10 UNK        -0.2414 
     61 C61        17.7102  -31.2680  -41.7061 C.3       10 UNK         0.0169 
     62 H62        13.7738  -24.6568  -42.1537 H         1 UNK         0.0903 
     63 H63        12.7633  -24.9858  -43.5627 H         1 UNK         0.0903 
     64 H64        13.2417  -26.3057  -42.4941 H         1 UNK         0.0903 
     65 H65        13.9398  -24.9235  -45.4451 H         1 UNK         0.3096 
     66 H66        15.4829  -25.0925  -46.9914 H         1 UNK         0.1121 
     67 H67        16.8296  -27.2997  -45.3627 H         1 UNK         0.0849 
     68 H68        17.0867  -26.9858  -47.0574 H         1 UNK         0.0849 
     69 H69        14.4682  -28.6023  -44.4917 H         1 UNK         0.0865 
     70 H70        14.1220  -29.9406  -45.5592 H         1 UNK         0.0865 
     71 H71        15.5316  -30.0856  -42.8753 H         1 UNK         0.1346 
     72 H72        19.4843  -31.4846  -43.7339 H         1 UNK         0.1412 
     73 H73        17.1152  -29.7865  -46.8602 H         1 UNK         0.1426 
     74 H74        19.2492  -31.1934  -47.3022 H         1 UNK         0.0716 
     75 H75        20.3482  -31.4522  -45.9686 H         1 UNK         0.0716 
     76 H76        21.7893  -29.3891  -44.7717 H         1 UNK         0.0695 
     77 H77        20.2111  -28.8043  -44.2927 H         1 UNK         0.0695 
     78 H78        22.3186  -27.1444  -45.7660 H         1 UNK         0.0983 
     79 H79        19.5552  -26.5054  -45.0450 H         1 UNK         0.3095 
     80 H80        19.4197  -23.5234  -44.9918 H         1 UNK         0.0454 
     81 H81        18.8546  -22.3820  -47.1514 H         1 UNK         0.0851 
     82 H82        19.8384  -23.5512  -48.0312 H         1 UNK         0.0851 
     83 H83        20.5878  -22.4360  -46.8962 H         1 UNK         0.0851 
     84 H84        18.3842  -25.6932  -46.6836 H         1 UNK         0.2976 
     85 H85        24.0052  -27.4597  -44.2907 H         1 UNK         0.3116 
     86 H86        23.9221  -25.8289  -41.9046 H         1 UNK         0.0646 
     87 H87        26.1203  -27.6570  -43.0242 H         1 UNK         0.0847 
     88 H88        26.3254  -26.4796  -41.7363 H         1 UNK         0.0847 
     89 H89        25.9394  -25.9358  -43.3584 H         1 UNK         0.0847 
     90 H90        23.7436  -26.4411  -39.8092 H         1 UNK         0.3040 
     91 H91        22.7213  -28.9739  -39.0563 H         1 UNK         0.1015 
     92 H92        23.8834  -26.7162  -37.3339 H         1 UNK         0.0786 
     93 H93        22.8903  -28.0416  -36.7437 H         1 UNK         0.0786 
     94 H94        22.2020  -26.8666  -37.8500 H         1 UNK         0.0786 
     95 H95        25.9984  -27.9716  -39.4353 H         1 UNK         0.3172 
     96 H96        27.1870  -30.0789  -37.7750 H         1 UNK         0.0595 
     97 H97        28.4266  -28.1729  -39.8356 H         1 UNK         0.0839 
     98 H98        29.3140  -29.2240  -38.7419 H         1 UNK         0.0839 
     99 H99        28.3581  -27.9032  -38.0930 H         1 UNK         0.0839 
    100 H100       25.8505  -29.8651  -40.9909 H         1 UNK         0.2998 
    101 H101       27.4668  -32.1720  -41.9920 H         1 UNK         0.0822 
    102 H102       27.5544  -30.0836  -43.3606 H         1 UNK         0.0787 
    103 H103       26.7572  -31.3882  -44.2257 H         1 UNK         0.0787 
    104 H104       25.7967  -30.1007  -43.5129 H         1 UNK         0.0787 
    105 H105       24.1249  -30.9943  -41.4092 H         1 UNK         0.3055 
    106 H106       23.0690  -33.7390  -41.7458 H         1 UNK         0.1106 
    107 H107       21.3058  -32.9074  -43.2717 H         1 UNK         0.0828 
    108 H108       21.9165  -31.2584  -43.1542 H         1 UNK         0.0828 
    109 H109       22.8567  -32.5022  -43.9750 H         1 UNK         0.0828 
    110 H110       20.5826  -33.5464  -41.2371 H         1 UNK         0.2931 
    111 H111       18.9447  -33.2439  -39.8327 H         1 UNK         0.0412 
    112 H112       21.6712  -34.4275  -38.7910 H         1 UNK         0.3472 
    113 H113       21.3093  -34.5932  -37.0909 H         1 UNK         0.3472 
    114 H114       20.0452  -30.6069  -38.7854 H         1 UNK         0.0970 
    115 H115       18.3904  -31.1434  -38.7761 H         1 UNK         0.0970 
    116 H116       17.9577  -32.3289  -41.6837 H         1 UNK         0.0612 
    117 H117       16.7896  -31.1444  -41.1339 H         1 UNK         0.0612 
@<TRIPOS>BOND
     1    1    2 1    
     2    1   62 1    
     3    1   63 1    
     4    1   64 1    
     5    2    3 2    
     6    2    4 am   BACKBONE|DICT|INTERRES
     7    4    5 1    
     8    4   65 1    
     9    5    6 1    
    10    5   25 1    
    11    5   66 1    
    12    6    7 1    
    13    6   67 1    
    14    6   68 1    
    15    7    8 1    
    16    8    9 1    
    17    8   69 1    
    18    8   70 1    
    19    9   10 ar   
    20    9   14 ar   
    21   10   11 ar   
    22   10   71 1    
    23   11   12 ar   
    24   11   61 1    
    25   12   13 ar   
    26   12   72 1    
    27   13   14 ar   
    28   13   15 1    
    29   14   73 1    
    30   15   16 1    
    31   15   74 1    
    32   15   75 1    
    33   16   17 1    
    34   17   18 1    
    35   17   76 1    
    36   17   77 1    
    37   18   19 1    
    38   18   27 1    
    39   18   78 1    
    40   19   20 am   BACKBONE|DICT|INTERRES
    41   19   79 1    
    42   20   21 2    
    43   20   22 1    
    44   22   23 1    
    45   22   24 1    
    46   22   80 1    
    47   23   81 1    
    48   23   82 1    
    49   23   83 1    
    50   24   25 am   BACKBONE|DICT|INTERRES
    51   24   84 1    
    52   25   26 2    
    53   27   28 2    
    54   27   29 am   BACKBONE|DICT|INTERRES
    55   29   30 1    
    56   29   85 1    
    57   30   31 1    
    58   30   32 1    
    59   30   86 1    
    60   31   87 1    
    61   31   88 1    
    62   31   89 1    
    63   32   33 2    
    64   32   34 am   BACKBONE|DICT|INTERRES
    65   34   35 1    
    66   34   90 1    
    67   35   36 1    
    68   35   37 1    
    69   35   91 1    
    70   36   92 1    
    71   36   93 1    
    72   36   94 1    
    73   37   38 2    
    74   37   39 am   BACKBONE|DICT|INTERRES
    75   39   40 1    
    76   39   95 1    
    77   40   41 1    
    78   40   42 1    
    79   40   96 1    
    80   41   97 1    
    81   41   98 1    
    82   41   99 1    
    83   42   43 2    
    84   42   44 am   BACKBONE|DICT|INTERRES
    85   44   45 1    
    86   44  100 1    
    87   45   46 1    
    88   45   47 1    
    89   45  101 1    
    90   46  102 1    
    91   46  103 1    
    92   46  104 1    
    93   47   48 2    
    94   47   49 am   BACKBONE|DICT|INTERRES
    95   49   50 1    
    96   49  105 1    
    97   50   51 1    
    98   50   52 1    
    99   50  106 1    
   100   51  107 1    
   101   51  108 1    
   102   51  109 1    
   103   52   53 2    
   104   52   54 am   BACKBONE|DICT|INTERRES
   105   54   55 1    
   106   54  110 1    
   107   55   56 1    
   108   55   59 1    
   109   55  111 1    
   110   56   57 am   BACKBONE|DICT|INTERRES
   111   56   58 2    
   112   57  112 1    
   113   57  113 1    
   114   59   60 1    
   115   59  114 1    
   116   59  115 1    
   117   60   61 1    
   118   61  116 1    
   119   61  117 1    
@<TRIPOS>SUBSTRUCTURE
     1 UNK         1 GROUP             0       ****    0 ROOT    
