@<TRIPOS>MOLECULE
3R8
117   119    1
SMALL
USER_CHARGES


@<TRIPOS>ATOM
      1 CA         16.7845  -29.0226  -41.0294 C.3       0 UNK        -0.2013 
      2 C          16.4515  -27.7354  -41.7624 C.2       0 UNK         0.4866 
      3 O          16.1854  -26.7176  -41.1242 O.2       0 UNK        -0.5176 
      4 N          16.4651  -27.7649  -43.1005 N.am      1 UNK        -0.4884 
      5 CA         15.9917  -26.6774  -43.9703 C.3       1 UNK         0.0853 
      6 C6         15.3263  -27.2088  -45.2697 C.3       10 UNK        -0.0849 
      7 S7         14.1390  -28.5679  -44.9524 S.3       10 UNK        -0.2776 
      8 C8         14.7418  -29.9234  -46.0166 C.3       10 UNK         0.0316 
      9 C9         16.2170  -30.2503  -45.8123 C.ar      10 UNK        -0.0863 
     10 C10        16.6473  -30.9919  -44.7067 C.ar      10 UNK        -0.1009 
     11 C11        18.0019  -31.3097  -44.5395 C.ar      10 UNK        -0.0712 
     12 C12        18.9238  -30.8797  -45.5049 C.ar      10 UNK        -0.0894 
     13 C13        18.5082  -30.1143  -46.5967 C.ar      10 UNK        -0.0745 
     14 C14        17.1540  -29.8211  -46.7545 C.ar      10 UNK        -0.0972 
     15 C15        19.5131  -29.5857  -47.6069 C.3       10 UNK         0.0209 
     16 S16        19.8818  -27.8290  -47.3011 S.3       10 UNK        -0.2568 
     17 C17        21.1279  -27.9596  -45.9812 C.3       10 UNK        -0.0983 
     18 CA         21.4628  -26.5804  -45.3621 C.3       3 UNK         0.0876 
     19 N          20.3601  -26.0553  -44.5492 N.am      3 UNK        -0.4424 
     20 C          20.2029  -24.7640  -44.2307 C.2       2 UNK         0.4918 
     21 O          20.9303  -23.8666  -44.6595 O.2       2 UNK        -0.4875 
     22 CA         19.0705  -24.4216  -43.2405 C.3       2 UNK         0.0481 
     23 CB         18.5669  -22.9701  -43.3888 C.3       2 UNK        -0.1831 
     24 N          17.9515  -25.3724  -43.2525 N.am      2 UNK        -0.4498 
     25 C          17.0928  -25.6273  -44.2519 C.2       1 UNK         0.5027 
     26 O          17.1477  -25.0766  -45.3527 O.2       1 UNK        -0.4969 
     27 C          22.7741  -26.6666  -44.5550 C.2       3 UNK         0.5005 
     28 O          23.8478  -26.5972  -45.1538 O.2       3 UNK        -0.5279 
     29 N          22.6675  -26.8493  -43.2273 N.am      4 UNK        -0.4463 
     30 CA         23.7597  -27.0272  -42.2557 C.3       4 UNK         0.0283 
     31 CB         24.6508  -25.7699  -42.1829 C.3       4 UNK        -0.1875 
     32 C          24.5862  -28.3164  -42.4509 C.2       4 UNK         0.4949 
     33 O          25.6508  -28.4494  -41.8445 O.2       4 UNK        -0.5039 
     34 N          24.0819  -29.2521  -43.2700 N.am      5 UNK        -0.4663 
     35 CA         24.6953  -30.5437  -43.5850 C.3       5 UNK         0.0242 
     36 CB         23.8099  -31.3022  -44.5867 C.3       5 UNK        -0.1982 
     37 C          24.9325  -31.3801  -42.3192 C.2       5 UNK         0.5017 
     38 O          23.9929  -31.5860  -41.5446 O.2       5 UNK        -0.5012 
     39 N          26.1977  -31.7755  -42.1096 N.am      6 UNK        -0.4439 
     40 CA         26.7346  -32.4965  -40.9449 C.3       6 UNK         0.0297 
     41 CB         26.1733  -33.9342  -40.9071 C.3       6 UNK        -0.2006 
     42 C          26.5387  -31.7705  -39.5943 C.2       6 UNK         0.4892 
     43 O          26.6394  -32.4147  -38.5495 O.2       6 UNK        -0.5089 
     44 N          26.2164  -30.4657  -39.6374 N.am      7 UNK        -0.4243 
     45 CA         25.7105  -29.6299  -38.5393 C.3       7 UNK         0.0196 
     46 CB         26.7747  -29.4511  -37.4359 C.3       7 UNK        -0.2007 
     47 C          24.3493  -30.1009  -37.9765 C.2       7 UNK         0.5020 
     48 O          23.9438  -29.6343  -36.9113 O.2       7 UNK        -0.5147 
     49 N          23.6618  -31.0024  -38.6913 N.am      8 UNK        -0.4734 
     50 CA         22.3748  -31.5798  -38.3100 C.3       8 UNK         0.0238 
     51 CB         22.3526  -33.0681  -38.6967 C.3       8 UNK        -0.1912 
     52 C          21.2220  -30.8302  -38.9846 C.2       8 UNK         0.5038 
     53 O          20.2316  -30.5261  -38.3197 O.2       8 UNK        -0.5046 
     54 N          21.3803  -30.5223  -40.2788 N.am      9 UNK        -0.4200 
     55 CA         20.3957  -29.7923  -41.0937 C.3       9 UNK         0.0839 
     56 C          20.4692  -28.2426  -40.9385 C.2       9 UNK         0.5513 
     57 N          20.9355  -27.7092  -39.8183 N.am      9 UNK        -0.7519 
     58 O          20.1276  -27.5050  -41.8614 O.2       9 UNK        -0.4960 
     59 C59        20.4304  -30.2294  -42.5796 C.3       10 UNK        -0.0876 
     60 S60        20.1836  -32.0215  -42.8306 S.3       10 UNK        -0.2414 
     61 C61        18.4207  -32.1280  -43.3134 C.3       10 UNK         0.0169 
     62 H62        15.8740  -29.4752  -40.6379 H         1 UNK         0.0903 
     63 H63        17.2669  -29.7410  -41.6883 H         1 UNK         0.0903 
     64 H64        17.4489  -28.8185  -40.1904 H         1 UNK         0.0903 
     65 H65        16.6971  -28.6227  -43.5826 H         1 UNK         0.3096 
     66 H66        15.2114  -26.1352  -43.4308 H         1 UNK         0.1121 
     67 H67        14.7817  -26.4025  -45.7645 H         1 UNK         0.0849 
     68 H68        16.0839  -27.5249  -45.9847 H         1 UNK         0.0849 
     69 H69        14.1452  -30.8153  -45.8196 H         1 UNK         0.0865 
     70 H70        14.5501  -29.6616  -47.0585 H         1 UNK         0.0865 
     71 H71        15.9217  -31.3273  -43.9776 H         1 UNK         0.1346 
     72 H72        19.9723  -31.1209  -45.4055 H         1 UNK         0.1412 
     73 H73        16.8337  -29.2390  -47.6083 H         1 UNK         0.1426 
     74 H74        19.1055  -29.6904  -48.6135 H         1 UNK         0.0716 
     75 H75        20.4346  -30.1698  -47.5884 H         1 UNK         0.0716 
     76 H76        22.0150  -28.4159  -46.4260 H         1 UNK         0.0695 
     77 H77        20.7754  -28.6508  -45.2150 H         1 UNK         0.0695 
     78 H78        21.6506  -25.8791  -46.1788 H         1 UNK         0.0983 
     79 H79        19.7313  -26.7280  -44.1337 H         1 UNK         0.3095 
     80 H80        19.5149  -24.5098  -42.2482 H         1 UNK         0.0454 
     81 H81        19.3731  -22.2559  -43.2168 H         1 UNK         0.0851 
     82 H82        17.7811  -22.7463  -42.6675 H         1 UNK         0.0851 
     83 H83        18.1725  -22.7773  -44.3868 H         1 UNK         0.0851 
     84 H84        17.8065  -25.8863  -42.3910 H         1 UNK         0.2976 
     85 H85        21.7307  -26.8985  -42.8354 H         1 UNK         0.3116 
     86 H86        23.2807  -27.1345  -41.2826 H         1 UNK         0.0646 
     87 H87        25.2369  -25.6333  -43.0920 H         1 UNK         0.0847 
     88 H88        24.0560  -24.8699  -42.0278 H         1 UNK         0.0847 
     89 H89        25.3554  -25.8369  -41.3530 H         1 UNK         0.0847 
     90 H90        23.2129  -29.0427  -43.7332 H         1 UNK         0.3040 
     91 H91        25.6541  -30.3367  -44.0652 H         1 UNK         0.1015 
     92 H92        24.2814  -32.2385  -44.8886 H         1 UNK         0.0786 
     93 H93        23.6401  -30.7199  -45.4926 H         1 UNK         0.0786 
     94 H94        22.8391  -31.5551  -44.1613 H         1 UNK         0.0786 
     95 H95        26.8891  -31.5155  -42.8006 H         1 UNK         0.3172 
     96 H96        27.8127  -32.5634  -41.0973 H         1 UNK         0.0595 
     97 H97        25.1052  -33.9455  -40.6866 H         1 UNK         0.0839 
     98 H98        26.6685  -34.5309  -40.1400 H         1 UNK         0.0839 
     99 H99        26.3247  -34.4456  -41.8576 H         1 UNK         0.0839 
    100 H100       26.1721  -30.0224  -40.5498 H         1 UNK         0.2998 
    101 H101       25.5247  -28.6481  -38.9774 H         1 UNK         0.0822 
    102 H102       26.4611  -28.7014  -36.7084 H         1 UNK         0.0787 
    103 H103       27.7255  -29.1182  -37.8520 H         1 UNK         0.0787 
    104 H104       26.9526  -30.3768  -36.8880 H         1 UNK         0.0787 
    105 H105       24.0363  -31.2967  -39.5882 H         1 UNK         0.3055 
    106 H106       22.2387  -31.5067  -37.2284 H         1 UNK         0.1106 
    107 H107       23.1477  -33.6182  -38.1931 H         1 UNK         0.0828 
    108 H108       21.4067  -33.5310  -38.4122 H         1 UNK         0.0828 
    109 H109       22.4767  -33.2128  -39.7710 H         1 UNK         0.0828 
    110 H110       22.2253  -30.8216  -40.7523 H         1 UNK         0.2931 
    111 H111       19.4085  -30.0670  -40.7240 H         1 UNK         0.0412 
    112 H112       21.1837  -28.2982  -39.0390 H         1 UNK         0.3472 
    113 H113       20.9744  -26.7067  -39.7270 H         1 UNK         0.3472 
    114 H114       19.6728  -29.6858  -43.1444 H         1 UNK         0.0970 
    115 H115       21.3857  -29.9580  -43.0257 H         1 UNK         0.0970 
    116 H116       18.1898  -33.1753  -43.5112 H         1 UNK         0.0612 
    117 H117       17.8171  -31.8432  -42.4517 H         1 UNK         0.0612 
@<TRIPOS>BOND
     1    1    2 1    
     2    1   62 1    
     3    1   63 1    
     4    1   64 1    
     5    2    3 2    
     6    2    4 am   BACKBONE|DICT|INTERRES
     7    4    5 1    
     8    4   65 1    
     9    5    6 1    
    10    5   25 1    
    11    5   66 1    
    12    6    7 1    
    13    6   67 1    
    14    6   68 1    
    15    7    8 1    
    16    8    9 1    
    17    8   69 1    
    18    8   70 1    
    19    9   10 ar   
    20    9   14 ar   
    21   10   11 ar   
    22   10   71 1    
    23   11   12 ar   
    24   11   61 1    
    25   12   13 ar   
    26   12   72 1    
    27   13   14 ar   
    28   13   15 1    
    29   14   73 1    
    30   15   16 1    
    31   15   74 1    
    32   15   75 1    
    33   16   17 1    
    34   17   18 1    
    35   17   76 1    
    36   17   77 1    
    37   18   19 1    
    38   18   27 1    
    39   18   78 1    
    40   19   20 am   BACKBONE|DICT|INTERRES
    41   19   79 1    
    42   20   21 2    
    43   20   22 1    
    44   22   23 1    
    45   22   24 1    
    46   22   80 1    
    47   23   81 1    
    48   23   82 1    
    49   23   83 1    
    50   24   25 am   BACKBONE|DICT|INTERRES
    51   24   84 1    
    52   25   26 2    
    53   27   28 2    
    54   27   29 am   BACKBONE|DICT|INTERRES
    55   29   30 1    
    56   29   85 1    
    57   30   31 1    
    58   30   32 1    
    59   30   86 1    
    60   31   87 1    
    61   31   88 1    
    62   31   89 1    
    63   32   33 2    
    64   32   34 am   BACKBONE|DICT|INTERRES
    65   34   35 1    
    66   34   90 1    
    67   35   36 1    
    68   35   37 1    
    69   35   91 1    
    70   36   92 1    
    71   36   93 1    
    72   36   94 1    
    73   37   38 2    
    74   37   39 am   BACKBONE|DICT|INTERRES
    75   39   40 1    
    76   39   95 1    
    77   40   41 1    
    78   40   42 1    
    79   40   96 1    
    80   41   97 1    
    81   41   98 1    
    82   41   99 1    
    83   42   43 2    
    84   42   44 am   BACKBONE|DICT|INTERRES
    85   44   45 1    
    86   44  100 1    
    87   45   46 1    
    88   45   47 1    
    89   45  101 1    
    90   46  102 1    
    91   46  103 1    
    92   46  104 1    
    93   47   48 2    
    94   47   49 am   BACKBONE|DICT|INTERRES
    95   49   50 1    
    96   49  105 1    
    97   50   51 1    
    98   50   52 1    
    99   50  106 1    
   100   51  107 1    
   101   51  108 1    
   102   51  109 1    
   103   52   53 2    
   104   52   54 am   BACKBONE|DICT|INTERRES
   105   54   55 1    
   106   54  110 1    
   107   55   56 1    
   108   55   59 1    
   109   55  111 1    
   110   56   57 am   BACKBONE|DICT|INTERRES
   111   56   58 2    
   112   57  112 1    
   113   57  113 1    
   114   59   60 1    
   115   59  114 1    
   116   59  115 1    
   117   60   61 1    
   118   61  116 1    
   119   61  117 1    
@<TRIPOS>SUBSTRUCTURE
     1 UNK         1 GROUP             0       ****    0 ROOT    
