@<TRIPOS>MOLECULE
3R8
117   119    1
SMALL
USER_CHARGES


@<TRIPOS>ATOM
      1 CA         14.7976  -24.9365  -41.4945 C.3       0 UNK        -0.2013 
      2 C          15.7634  -24.6071  -42.6229 C.2       0 UNK         0.4866 
      3 O          16.0346  -23.4323  -42.8746 O.2       0 UNK        -0.5176 
      4 N          16.2767  -25.6345  -43.3104 N.am      1 UNK        -0.4884 
      5 CA         17.2569  -25.5194  -44.3963 C.3       1 UNK         0.0853 
      6 C6         17.4279  -26.8603  -45.1722 C.3       10 UNK        -0.0849 
      7 S7         15.8556  -27.6875  -45.6109 S.3       10 UNK        -0.2776 
      8 C8         16.3936  -29.1069  -46.6350 C.3       10 UNK         0.0316 
      9 C9         17.5184  -29.9233  -46.0045 C.ar      10 UNK        -0.0863 
     10 C10        17.3459  -30.5444  -44.7620 C.ar      10 UNK        -0.1009 
     11 C11        18.3973  -31.2397  -44.1529 C.ar      10 UNK        -0.0712 
     12 C12        19.6333  -31.2949  -44.8103 C.ar      10 UNK        -0.0894 
     13 C13        19.8287  -30.6730  -46.0459 C.ar      10 UNK        -0.0745 
     14 C14        18.7470  -30.0364  -46.6622 C.ar      10 UNK        -0.0972 
     15 C15        21.2235  -30.7185  -46.6733 C.3       10 UNK         0.0209 
     16 S16        21.7944  -29.2235  -47.5696 S.3       10 UNK        -0.2568 
     17 C17        21.0982  -27.7842  -46.6876 C.3       10 UNK        -0.0983 
     18 CA         21.9144  -27.1939  -45.5147 C.3       3 UNK         0.0876 
     19 N          21.3823  -25.8573  -45.2494 N.am      3 UNK        -0.4424 
     20 C          21.6976  -24.9993  -44.2742 C.2       2 UNK         0.4918 
     21 O          22.6204  -25.1585  -43.4761 O.2       2 UNK        -0.4875 
     22 CA         20.7291  -23.8053  -44.1336 C.3       2 UNK         0.0481 
     23 CB         21.1996  -22.6223  -44.9935 C.3       2 UNK        -0.1831 
     24 N          19.3400  -24.1618  -44.4887 N.am      2 UNK        -0.4498 
     25 C          18.6201  -25.0775  -43.8200 C.2       1 UNK         0.5027 
     26 O          19.0410  -25.6408  -42.8089 O.2       1 UNK        -0.4969 
     27 C          21.8688  -28.1218  -44.2768 C.2       3 UNK         0.5005 
     28 O          22.7916  -28.9139  -44.0819 O.2       3 UNK        -0.5279 
     29 N          20.8255  -27.9924  -43.4391 N.am      4 UNK        -0.4463 
     30 CA         20.6093  -28.8265  -42.2540 C.3       4 UNK         0.0283 
     31 CB         19.1847  -28.6274  -41.7142 C.3       4 UNK        -0.1875 
     32 C          21.6316  -28.5815  -41.1387 C.2       4 UNK         0.4949 
     33 O          21.9141  -29.5069  -40.3790 O.2       4 UNK        -0.5039 
     34 N          22.1810  -27.3610  -41.0675 N.am      5 UNK        -0.4663 
     35 CA         23.2552  -27.0027  -40.1400 C.3       5 UNK         0.0242 
     36 CB         23.3351  -25.4734  -40.0106 C.3       5 UNK        -0.1982 
     37 C          24.6102  -27.5849  -40.5738 C.2       5 UNK         0.5017 
     38 O          25.4161  -27.9357  -39.7123 O.2       5 UNK        -0.5012 
     39 N          24.8276  -27.6929  -41.8928 N.am      6 UNK        -0.4439 
     40 CA         26.0131  -28.3101  -42.4896 C.3       6 UNK         0.0297 
     41 CB         26.1593  -27.8551  -43.9511 C.3       6 UNK        -0.2006 
     42 C          25.9668  -29.8432  -42.3893 C.2       6 UNK         0.4892 
     43 O          26.9721  -30.4556  -42.0279 O.2       6 UNK        -0.5089 
     44 N          24.8004  -30.4302  -42.6935 N.am      7 UNK        -0.4243 
     45 CA         24.5428  -31.8695  -42.5921 C.3       7 UNK         0.0196 
     46 CB         23.2727  -32.2052  -43.3861 C.3       7 UNK        -0.2007 
     47 C          24.4137  -32.3758  -41.1445 C.2       7 UNK         0.5020 
     48 O          24.6465  -33.5613  -40.9081 O.2       7 UNK        -0.5147 
     49 N          24.0391  -31.4804  -40.2188 N.am      8 UNK        -0.4734 
     50 CA         23.7493  -31.7201  -38.8006 C.3       8 UNK         0.0238 
     51 CB         25.0134  -32.1780  -38.0414 C.3       8 UNK        -0.1912 
     52 C          22.5450  -32.6628  -38.6171 C.2       8 UNK         0.5038 
     53 O          22.6572  -33.6842  -37.9351 O.2       8 UNK        -0.5046 
     54 N          21.4217  -32.3072  -39.2566 N.am      9 UNK        -0.4200 
     55 CA         20.1474  -33.0444  -39.1992 C.3       9 UNK         0.0839 
     56 C          19.5560  -33.1130  -37.7640 C.2       9 UNK         0.5513 
     57 N          18.9315  -34.2257  -37.4034 N.am      9 UNK        -0.7519 
     58 O          19.6164  -32.1534  -36.9978 O.2       9 UNK        -0.4960 
     59 C59        19.0928  -32.4671  -40.1796 C.3       10 UNK        -0.0876 
     60 S60        19.6565  -32.4747  -41.9116 S.3       10 UNK        -0.2414 
     61 C61        18.1573  -31.8868  -42.7830 C.3       10 UNK         0.0169 
     62 H62        13.8319  -24.4658  -41.6775 H         1 UNK         0.0903 
     63 H63        14.6380  -26.0101  -41.3947 H         1 UNK         0.0903 
     64 H64        15.1859  -24.5620  -40.5477 H         1 UNK         0.0903 
     65 H65        16.0176  -26.5793  -43.0652 H         1 UNK         0.3096 
     66 H66        16.8998  -24.7554  -45.0904 H         1 UNK         0.1121 
     67 H67        17.9918  -26.6909  -46.0910 H         1 UNK         0.0849 
     68 H68        18.0088  -27.5728  -44.5839 H         1 UNK         0.0849 
     69 H69        15.5374  -29.7596  -46.8102 H         1 UNK         0.0865 
     70 H70        16.6926  -28.7309  -47.6146 H         1 UNK         0.0865 
     71 H71        16.3918  -30.4667  -44.2582 H         1 UNK         0.1346 
     72 H72        20.4662  -31.8128  -44.3606 H         1 UNK         0.1412 
     73 H73        18.8842  -29.5724  -47.6294 H         1 UNK         0.1426 
     74 H74        21.2683  -31.5678  -47.3558 H         1 UNK         0.0716 
     75 H75        21.9640  -30.9159  -45.8987 H         1 UNK         0.0716 
     76 H76        21.0074  -27.0248  -47.4667 H         1 UNK         0.0695 
     77 H77        20.0758  -27.9582  -46.3680 H         1 UNK         0.0695 
     78 H78        22.9580  -27.0836  -45.8157 H         1 UNK         0.0983 
     79 H79        20.6210  -25.5799  -45.8497 H         1 UNK         0.3095 
     80 H80        20.7404  -23.4922  -43.0874 H         1 UNK         0.0454 
     81 H81        22.2185  -22.3327  -44.7321 H         1 UNK         0.0851 
     82 H82        21.1927  -22.8628  -46.0572 H         1 UNK         0.0851 
     83 H83        20.5685  -21.7465  -44.8425 H         1 UNK         0.0851 
     84 H84        18.9424  -23.7106  -45.3012 H         1 UNK         0.2976 
     85 H85        20.1524  -27.2520  -43.5891 H         1 UNK         0.3116 
     86 H86        20.7147  -29.8646  -42.5677 H         1 UNK         0.0646 
     87 H87        18.9656  -29.3541  -40.9332 H         1 UNK         0.0847 
     88 H88        18.4350  -28.7531  -42.4942 H         1 UNK         0.0847 
     89 H89        19.0503  -27.6421  -41.2689 H         1 UNK         0.0847 
     90 H90        21.8947  -26.6575  -41.7360 H         1 UNK         0.3040 
     91 H91        23.0164  -27.4162  -39.1572 H         1 UNK         0.1015 
     92 H92        22.3885  -25.0538  -39.6696 H         1 UNK         0.0786 
     93 H93        23.5913  -24.9980  -40.9580 H         1 UNK         0.0786 
     94 H94        24.0973  -25.1843  -39.2856 H         1 UNK         0.0786 
     95 H95        24.0961  -27.3967  -42.5241 H         1 UNK         0.3172 
     96 H96        26.8927  -27.9640  -41.9424 H         1 UNK         0.0595 
     97 H97        27.0617  -28.2738  -44.3985 H         1 UNK         0.0839 
     98 H98        26.2366  -26.7700  -44.0229 H         1 UNK         0.0839 
     99 H99        25.3167  -28.1720  -44.5661 H         1 UNK         0.0839 
    100 H100       24.0425  -29.8541  -43.0557 H         1 UNK         0.2998 
    101 H101       25.3810  -32.4003  -43.0486 H         1 UNK         0.0822 
    102 H102       23.4064  -31.9863  -44.4445 H         1 UNK         0.0787 
    103 H103       23.0194  -33.2630  -43.3025 H         1 UNK         0.0787 
    104 H104       22.4179  -31.6331  -43.0253 H         1 UNK         0.0787 
    105 H105       23.7963  -30.5531  -40.5458 H         1 UNK         0.3055 
    106 H106       23.4488  -30.7583  -38.3812 H         1 UNK         0.1106 
    107 H107       25.3568  -33.1588  -38.3710 H         1 UNK         0.0828 
    108 H108       25.8330  -31.4723  -38.1771 H         1 UNK         0.0828 
    109 H109       24.8188  -32.2472  -36.9705 H         1 UNK         0.0828 
    110 H110       21.4222  -31.4405  -39.7827 H         1 UNK         0.2931 
    111 H111       20.3692  -34.0660  -39.5154 H         1 UNK         0.0412 
    112 H112       18.8688  -35.0147  -38.0286 H         1 UNK         0.3472 
    113 H113       18.5258  -34.2843  -36.4820 H         1 UNK         0.3472 
    114 H114       18.1686  -33.0462  -40.1269 H         1 UNK         0.0970 
    115 H115       18.8312  -31.4467  -39.8963 H         1 UNK         0.0970 
    116 H116       17.4769  -32.7302  -42.9059 H         1 UNK         0.0612 
    117 H117       17.6441  -31.1665  -42.1448 H         1 UNK         0.0612 
@<TRIPOS>BOND
     1    1    2 1    
     2    1   62 1    
     3    1   63 1    
     4    1   64 1    
     5    2    3 2    
     6    2    4 am   BACKBONE|DICT|INTERRES
     7    4    5 1    
     8    4   65 1    
     9    5    6 1    
    10    5   25 1    
    11    5   66 1    
    12    6    7 1    
    13    6   67 1    
    14    6   68 1    
    15    7    8 1    
    16    8    9 1    
    17    8   69 1    
    18    8   70 1    
    19    9   10 ar   
    20    9   14 ar   
    21   10   11 ar   
    22   10   71 1    
    23   11   12 ar   
    24   11   61 1    
    25   12   13 ar   
    26   12   72 1    
    27   13   14 ar   
    28   13   15 1    
    29   14   73 1    
    30   15   16 1    
    31   15   74 1    
    32   15   75 1    
    33   16   17 1    
    34   17   18 1    
    35   17   76 1    
    36   17   77 1    
    37   18   19 1    
    38   18   27 1    
    39   18   78 1    
    40   19   20 am   BACKBONE|DICT|INTERRES
    41   19   79 1    
    42   20   21 2    
    43   20   22 1    
    44   22   23 1    
    45   22   24 1    
    46   22   80 1    
    47   23   81 1    
    48   23   82 1    
    49   23   83 1    
    50   24   25 am   BACKBONE|DICT|INTERRES
    51   24   84 1    
    52   25   26 2    
    53   27   28 2    
    54   27   29 am   BACKBONE|DICT|INTERRES
    55   29   30 1    
    56   29   85 1    
    57   30   31 1    
    58   30   32 1    
    59   30   86 1    
    60   31   87 1    
    61   31   88 1    
    62   31   89 1    
    63   32   33 2    
    64   32   34 am   BACKBONE|DICT|INTERRES
    65   34   35 1    
    66   34   90 1    
    67   35   36 1    
    68   35   37 1    
    69   35   91 1    
    70   36   92 1    
    71   36   93 1    
    72   36   94 1    
    73   37   38 2    
    74   37   39 am   BACKBONE|DICT|INTERRES
    75   39   40 1    
    76   39   95 1    
    77   40   41 1    
    78   40   42 1    
    79   40   96 1    
    80   41   97 1    
    81   41   98 1    
    82   41   99 1    
    83   42   43 2    
    84   42   44 am   BACKBONE|DICT|INTERRES
    85   44   45 1    
    86   44  100 1    
    87   45   46 1    
    88   45   47 1    
    89   45  101 1    
    90   46  102 1    
    91   46  103 1    
    92   46  104 1    
    93   47   48 2    
    94   47   49 am   BACKBONE|DICT|INTERRES
    95   49   50 1    
    96   49  105 1    
    97   50   51 1    
    98   50   52 1    
    99   50  106 1    
   100   51  107 1    
   101   51  108 1    
   102   51  109 1    
   103   52   53 2    
   104   52   54 am   BACKBONE|DICT|INTERRES
   105   54   55 1    
   106   54  110 1    
   107   55   56 1    
   108   55   59 1    
   109   55  111 1    
   110   56   57 am   BACKBONE|DICT|INTERRES
   111   56   58 2    
   112   57  112 1    
   113   57  113 1    
   114   59   60 1    
   115   59  114 1    
   116   59  115 1    
   117   60   61 1    
   118   61  116 1    
   119   61  117 1    
@<TRIPOS>SUBSTRUCTURE
     1 UNK         1 GROUP             0       ****    0 ROOT    
