@<TRIPOS>MOLECULE
3R8
117   119    1
SMALL
USER_CHARGES


@<TRIPOS>ATOM
      1 CA         15.0644  -24.1021  -41.2182 C.3       0 UNK        -0.2013 
      2 C          15.2670  -24.5380  -42.6617 C.2       0 UNK         0.4866 
      3 O          14.2981  -24.6342  -43.4153 O.2       0 UNK        -0.5176 
      4 N          16.5174  -24.8002  -43.0522 N.am      1 UNK        -0.4884 
      5 CA         16.9274  -25.2037  -44.3953 C.3       1 UNK         0.0853 
      6 C6         16.6242  -26.6978  -44.6707 C.3       10 UNK        -0.0849 
      7 S7         16.5136  -27.0918  -46.4456 S.3       10 UNK        -0.2776 
      8 C8         16.3164  -28.9027  -46.3751 C.3       10 UNK         0.0316 
      9 C9         17.5406  -29.5828  -45.7775 C.ar      10 UNK        -0.0863 
     10 C10        17.4931  -30.1381  -44.4945 C.ar      10 UNK        -0.1009 
     11 C11        18.6197  -30.7481  -43.9320 C.ar      10 UNK        -0.0712 
     12 C12        19.8045  -30.7941  -44.6804 C.ar      10 UNK        -0.0894 
     13 C13        19.8663  -30.2441  -45.9634 C.ar      10 UNK        -0.0745 
     14 C14        18.7268  -29.6491  -46.5098 C.ar      10 UNK        -0.0972 
     15 C15        21.1501  -30.3211  -46.7772 C.3       10 UNK         0.0209 
     16 S16        21.7668  -28.6730  -47.2436 S.3       10 UNK        -0.2568 
     17 C17        22.8460  -28.2116  -45.8408 C.3       10 UNK        -0.0983 
     18 CA         22.2186  -27.2811  -44.7574 C.3       3 UNK         0.0876 
     19 N          21.2081  -26.3597  -45.2853 N.am      3 UNK        -0.4424 
     20 C          21.4188  -25.0708  -45.5716 C.2       2 UNK         0.4918 
     21 O          22.4911  -24.4927  -45.3908 O.2       2 UNK        -0.4875 
     22 CA         20.2369  -24.2773  -46.1610 C.3       2 UNK         0.0481 
     23 CB         20.3413  -24.2446  -47.6942 C.3       2 UNK        -0.1831 
     24 N          18.8965  -24.7461  -45.7843 N.am      2 UNK        -0.4498 
     25 C          18.4239  -24.8706  -44.5366 C.2       1 UNK         0.5027 
     26 O          19.1167  -24.7441  -43.5218 O.2       1 UNK        -0.4969 
     27 C          21.7362  -28.0108  -43.4880 C.2       3 UNK         0.5005 
     28 O          22.3911  -28.9667  -43.0608 O.2       3 UNK        -0.5279 
     29 N          20.6696  -27.5104  -42.8380 N.am      4 UNK        -0.4463 
     30 CA         20.1152  -28.0299  -41.5770 C.3       4 UNK         0.0283 
     31 CB         18.6495  -27.5863  -41.4236 C.3       4 UNK        -0.1875 
     32 C          20.9710  -27.6850  -40.3396 C.2       4 UNK         0.4949 
     33 O          20.4563  -27.1875  -39.3377 O.2       4 UNK        -0.5039 
     34 N          22.2687  -27.9706  -40.4459 N.am      5 UNK        -0.4663 
     35 CA         23.3182  -27.8049  -39.4456 C.3       5 UNK         0.0242 
     36 CB         23.5413  -26.3228  -39.0808 C.3       5 UNK        -0.1982 
     37 C          24.5963  -28.4321  -40.0060 C.2       5 UNK         0.5017 
     38 O          25.1730  -29.3110  -39.3674 O.2       5 UNK        -0.5012 
     39 N          24.9740  -28.0093  -41.2228 N.am      6 UNK        -0.4439 
     40 CA         26.1403  -28.4860  -41.9733 C.3       6 UNK         0.0297 
     41 CB         26.2740  -27.6763  -43.2735 C.3       6 UNK        -0.2006 
     42 C          26.1106  -29.9926  -42.2843 C.2       6 UNK         0.4892 
     43 O          27.1584  -30.6372  -42.2351 O.2       6 UNK        -0.5089 
     44 N          24.9163  -30.5281  -42.5723 N.am      7 UNK        -0.4243 
     45 CA         24.6861  -31.9551  -42.8118 C.3       7 UNK         0.0196 
     46 CB         23.4754  -32.1010  -43.7432 C.3       7 UNK        -0.2007 
     47 C          24.4813  -32.7715  -41.5196 C.2       7 UNK         0.5020 
     48 O          24.2917  -33.9844  -41.6150 O.2       7 UNK        -0.5147 
     49 N          24.5126  -32.1131  -40.3487 N.am      8 UNK        -0.4734 
     50 CA         24.3085  -32.6731  -39.0057 C.3       8 UNK         0.0238 
     51 CB         25.4587  -33.6321  -38.6291 C.3       8 UNK        -0.1912 
     52 C          22.9113  -33.2998  -38.8248 C.2       8 UNK         0.5038 
     53 O          22.7949  -34.4173  -38.3174 O.2       8 UNK        -0.5046 
     54 N          21.8765  -32.5612  -39.2498 N.am      9 UNK        -0.4200 
     55 CA         20.4595  -32.9594  -39.1647 C.3       9 UNK         0.0839 
     56 C          19.8918  -33.0771  -37.7190 C.2       9 UNK         0.5513 
     57 N          20.5352  -32.5179  -36.7009 N.am      9 UNK        -0.7519 
     58 O          18.8447  -33.6878  -37.5210 O.2       9 UNK        -0.4960 
     59 C59        19.5471  -32.0412  -40.0203 C.3       10 UNK        -0.0876 
     60 S60        20.0362  -31.9709  -41.7743 S.3       10 UNK        -0.2414 
     61 C61        18.4940  -31.3341  -42.5218 C.3       10 UNK         0.0169 
     62 H62        14.3929  -24.7928  -40.7088 H         1 UNK         0.0903 
     63 H63        16.0033  -24.0732  -40.6654 H         1 UNK         0.0903 
     64 H64        14.6202  -23.1076  -41.1851 H         1 UNK         0.0903 
     65 H65        17.3001  -24.6566  -42.4242 H         1 UNK         0.3096 
     66 H66        16.3787  -24.5817  -45.1069 H         1 UNK         0.1121 
     67 H67        15.6721  -26.9843  -44.2213 H         1 UNK         0.0849 
     68 H68        17.3780  -27.3325  -44.2086 H         1 UNK         0.0849 
     69 H69        15.4179  -29.1470  -45.8061 H         1 UNK         0.0865 
     70 H70        16.1496  -29.2815  -47.3846 H         1 UNK         0.0865 
     71 H71        16.5742  -30.0900  -43.9257 H         1 UNK         0.1346 
     72 H72        20.6881  -31.2592  -44.2766 H         1 UNK         0.1412 
     73 H73        18.7678  -29.2236  -47.5036 H         1 UNK         0.1426 
     74 H74        20.9462  -30.8840  -47.6889 H         1 UNK         0.0716 
     75 H75        21.9267  -30.8733  -46.2477 H         1 UNK         0.0716 
     76 H76        23.6861  -27.6792  -46.2889 H         1 UNK         0.0695 
     77 H77        23.2947  -29.1089  -45.4120 H         1 UNK         0.0695 
     78 H78        23.0462  -26.6857  -44.3661 H         1 UNK         0.0983 
     79 H79        20.3102  -26.7663  -45.5062 H         1 UNK         0.3095 
     80 H80        20.3281  -23.2528  -45.7948 H         1 UNK         0.0454 
     81 H81        20.2183  -25.2382  -48.1274 H         1 UNK         0.0851 
     82 H82        21.3153  -23.8700  -48.0127 H         1 UNK         0.0851 
     83 H83        19.5879  -23.5897  -48.1323 H         1 UNK         0.0851 
     84 H84        18.2592  -24.9235  -46.5488 H         1 UNK         0.2976 
     85 H85        20.2554  -26.6543  -43.1864 H         1 UNK         0.3116 
     86 H86        20.1152  -29.1167  -41.6415 H         1 UNK         0.0646 
     87 H87        18.0301  -27.9994  -42.2160 H         1 UNK         0.0847 
     88 H88        18.5509  -26.5010  -41.4349 H         1 UNK         0.0847 
     89 H89        18.2251  -27.9431  -40.4842 H         1 UNK         0.0847 
     90 H90        22.5472  -28.4236  -41.3147 H         1 UNK         0.3040 
     91 H91        23.0323  -28.3555  -38.5468 H         1 UNK         0.1015 
     92 H92        24.3975  -26.2101  -38.4141 H         1 UNK         0.0786 
     93 H93        22.6790  -25.9043  -38.5621 H         1 UNK         0.0786 
     94 H94        23.7286  -25.7080  -39.9617 H         1 UNK         0.0786 
     95 H95        24.4376  -27.2700  -41.6519 H         1 UNK         0.3172 
     96 H96        27.0228  -28.2947  -41.3591 H         1 UNK         0.0595 
     97 H97        25.4095  -27.8099  -43.9248 H         1 UNK         0.0839 
     98 H98        27.1550  -27.9877  -43.8368 H         1 UNK         0.0839 
     99 H99        26.3834  -26.6107  -43.0712 H         1 UNK         0.0839 
    100 H100       24.1006  -29.9254  -42.6289 H         1 UNK         0.2998 
    101 H101       25.5548  -32.3763  -43.3224 H         1 UNK         0.0822 
    102 H102       23.6272  -31.5624  -44.6779 H         1 UNK         0.0787 
    103 H103       23.2879  -33.1457  -43.9945 H         1 UNK         0.0787 
    104 H104       22.5781  -31.7110  -43.2673 H         1 UNK         0.0787 
    105 H105       24.7141  -31.1197  -40.3695 H         1 UNK         0.3055 
    106 H106       24.3516  -31.8308  -38.3129 H         1 UNK         0.1106 
    107 H107       25.4592  -34.5308  -39.2466 H         1 UNK         0.0828 
    108 H108       25.3741  -33.9537  -37.5903 H         1 UNK         0.0828 
    109 H109       26.4294  -33.1488  -38.7391 H         1 UNK         0.0828 
    110 H110       22.0616  -31.6706  -39.6848 H         1 UNK         0.2931 
    111 H111       20.3964  -33.9629  -39.5906 H         1 UNK         0.0412 
    112 H112       21.3939  -32.0137  -36.8505 H         1 UNK         0.3472 
    113 H113       20.1565  -32.6047  -35.7706 H         1 UNK         0.3472 
    114 H114       19.5445  -31.0249  -39.6215 H         1 UNK         0.0970 
    115 H115       18.5134  -32.3906  -39.9726 H         1 UNK         0.0970 
    116 H116       17.7637  -32.1440  -42.5419 H         1 UNK         0.0612 
    117 H117       18.0851  -30.5646  -41.8657 H         1 UNK         0.0612 
@<TRIPOS>BOND
     1    1    2 1    
     2    1   62 1    
     3    1   63 1    
     4    1   64 1    
     5    2    3 2    
     6    2    4 am   BACKBONE|DICT|INTERRES
     7    4    5 1    
     8    4   65 1    
     9    5    6 1    
    10    5   25 1    
    11    5   66 1    
    12    6    7 1    
    13    6   67 1    
    14    6   68 1    
    15    7    8 1    
    16    8    9 1    
    17    8   69 1    
    18    8   70 1    
    19    9   10 ar   
    20    9   14 ar   
    21   10   11 ar   
    22   10   71 1    
    23   11   12 ar   
    24   11   61 1    
    25   12   13 ar   
    26   12   72 1    
    27   13   14 ar   
    28   13   15 1    
    29   14   73 1    
    30   15   16 1    
    31   15   74 1    
    32   15   75 1    
    33   16   17 1    
    34   17   18 1    
    35   17   76 1    
    36   17   77 1    
    37   18   19 1    
    38   18   27 1    
    39   18   78 1    
    40   19   20 am   BACKBONE|DICT|INTERRES
    41   19   79 1    
    42   20   21 2    
    43   20   22 1    
    44   22   23 1    
    45   22   24 1    
    46   22   80 1    
    47   23   81 1    
    48   23   82 1    
    49   23   83 1    
    50   24   25 am   BACKBONE|DICT|INTERRES
    51   24   84 1    
    52   25   26 2    
    53   27   28 2    
    54   27   29 am   BACKBONE|DICT|INTERRES
    55   29   30 1    
    56   29   85 1    
    57   30   31 1    
    58   30   32 1    
    59   30   86 1    
    60   31   87 1    
    61   31   88 1    
    62   31   89 1    
    63   32   33 2    
    64   32   34 am   BACKBONE|DICT|INTERRES
    65   34   35 1    
    66   34   90 1    
    67   35   36 1    
    68   35   37 1    
    69   35   91 1    
    70   36   92 1    
    71   36   93 1    
    72   36   94 1    
    73   37   38 2    
    74   37   39 am   BACKBONE|DICT|INTERRES
    75   39   40 1    
    76   39   95 1    
    77   40   41 1    
    78   40   42 1    
    79   40   96 1    
    80   41   97 1    
    81   41   98 1    
    82   41   99 1    
    83   42   43 2    
    84   42   44 am   BACKBONE|DICT|INTERRES
    85   44   45 1    
    86   44  100 1    
    87   45   46 1    
    88   45   47 1    
    89   45  101 1    
    90   46  102 1    
    91   46  103 1    
    92   46  104 1    
    93   47   48 2    
    94   47   49 am   BACKBONE|DICT|INTERRES
    95   49   50 1    
    96   49  105 1    
    97   50   51 1    
    98   50   52 1    
    99   50  106 1    
   100   51  107 1    
   101   51  108 1    
   102   51  109 1    
   103   52   53 2    
   104   52   54 am   BACKBONE|DICT|INTERRES
   105   54   55 1    
   106   54  110 1    
   107   55   56 1    
   108   55   59 1    
   109   55  111 1    
   110   56   57 am   BACKBONE|DICT|INTERRES
   111   56   58 2    
   112   57  112 1    
   113   57  113 1    
   114   59   60 1    
   115   59  114 1    
   116   59  115 1    
   117   60   61 1    
   118   61  116 1    
   119   61  117 1    
@<TRIPOS>SUBSTRUCTURE
     1 UNK         1 GROUP             0       ****    0 ROOT    
