@<TRIPOS>MOLECULE
3R8
117   119    1
SMALL
USER_CHARGES


@<TRIPOS>ATOM
      1 CA         19.1884  -26.1790  -38.7556 C.3       0 UNK        -0.2013 
      2 C          18.4673  -25.7653  -40.0283 C.2       0 UNK         0.4866 
      3 O          17.8881  -24.6804  -40.0842 O.2       0 UNK        -0.5176 
      4 N          18.4964  -26.6255  -41.0535 N.am      1 UNK        -0.4884 
      5 CA         17.8012  -26.4187  -42.3333 C.3       1 UNK         0.0853 
      6 C6         17.5898  -27.7504  -43.0892 C.3       10 UNK        -0.0849 
      7 S7         16.6620  -28.9961  -42.1304 S.3       10 UNK        -0.2776 
      8 C8         16.5605  -30.3635  -43.3383 C.3       10 UNK         0.0316 
      9 C9         17.9087  -30.6758  -43.9766 C.ar      10 UNK        -0.0863 
     10 C10        18.9946  -31.0284  -43.1753 C.ar      10 UNK        -0.1009 
     11 C11        20.2543  -31.2529  -43.7312 C.ar      10 UNK        -0.0712 
     12 C12        20.4234  -31.1361  -45.1146 C.ar      10 UNK        -0.0894 
     13 C13        19.3471  -30.7692  -45.9311 C.ar      10 UNK        -0.0745 
     14 C14        18.0898  -30.5521  -45.3564 C.ar      10 UNK        -0.0972 
     15 C15        19.5344  -30.5643  -47.4306 C.3       10 UNK         0.0209 
     16 S16        20.7926  -29.3086  -47.8606 S.3       10 UNK        -0.2568 
     17 C17        20.4193  -27.8924  -46.7556 C.3       10 UNK        -0.0983 
     18 CA         21.6580  -27.1674  -46.1523 C.3       3 UNK         0.0876 
     19 N          21.2639  -26.2993  -45.0484 N.am      3 UNK        -0.4424 
     20 C          21.0597  -24.9797  -45.1075 C.2       2 UNK         0.4918 
     21 O          21.1353  -24.3201  -46.1451 O.2       2 UNK        -0.4875 
     22 CA         20.7199  -24.2938  -43.7665 C.3       2 UNK         0.0481 
     23 CB         20.2261  -22.8409  -43.9334 C.3       2 UNK        -0.1831 
     24 N          19.7880  -25.0888  -42.9536 N.am      2 UNK        -0.4498 
     25 C          18.5237  -25.4205  -43.2645 C.2       1 UNK         0.5027 
     26 O          17.9324  -25.0061  -44.2625 O.2       1 UNK        -0.4969 
     27 C          22.7429  -28.1062  -45.5875 C.2       3 UNK         0.5005 
     28 O          22.7023  -28.4383  -44.3969 O.2       3 UNK        -0.5279 
     29 N          23.6984  -28.4975  -46.4452 N.am      4 UNK        -0.4463 
     30 CA         24.8455  -29.3686  -46.1666 C.3       4 UNK         0.0283 
     31 CB         24.3789  -30.8271  -45.9555 C.3       4 UNK        -0.1875 
     32 C          25.7112  -28.8119  -45.0209 C.2       4 UNK         0.4949 
     33 O          26.3971  -27.8089  -45.2190 O.2       4 UNK        -0.5039 
     34 N          25.6413  -29.4461  -43.8443 N.am      5 UNK        -0.4663 
     35 CA         26.3128  -29.0241  -42.6128 C.3       5 UNK         0.0242 
     36 CB         26.3592  -30.2248  -41.6513 C.3       5 UNK        -0.1982 
     37 C          25.6552  -27.8117  -41.9223 C.2       5 UNK         0.5017 
     38 O          26.2249  -27.3116  -40.9519 O.2       5 UNK        -0.5012 
     39 N          24.4725  -27.3864  -42.3986 N.am      6 UNK        -0.4439 
     40 CA         23.5801  -26.3840  -41.8014 C.3       6 UNK         0.0297 
     41 CB         24.2300  -24.9849  -41.7585 C.3       6 UNK        -0.2006 
     42 C          23.0401  -26.8604  -40.4410 C.2       6 UNK         0.4892 
     43 O          23.0419  -26.1097  -39.4642 O.2       6 UNK        -0.5089 
     44 N          22.6032  -28.1232  -40.4231 N.am      7 UNK        -0.4243 
     45 CA         22.0818  -28.8458  -39.2678 C.3       7 UNK         0.0196 
     46 CB         23.0534  -29.9999  -38.9501 C.3       7 UNK        -0.2007 
     47 C          20.6715  -29.3632  -39.5867 C.2       7 UNK         0.5020 
     48 O          20.1111  -29.0273  -40.6328 O.2       7 UNK        -0.5147 
     49 N          20.1157  -30.1705  -38.6764 N.am      8 UNK        -0.4734 
     50 CA         18.8336  -30.8573  -38.8635 C.3       8 UNK         0.0238 
     51 CB         18.1772  -31.0738  -37.4899 C.3       8 UNK        -0.1912 
     52 C          18.9701  -32.1978  -39.6118 C.2       8 UNK         0.5038 
     53 O          17.9595  -32.7046  -40.0987 O.2       8 UNK        -0.5046 
     54 N          20.1939  -32.7484  -39.6877 N.am      9 UNK        -0.4200 
     55 CA         20.5311  -34.0473  -40.3066 C.3       9 UNK         0.0839 
     56 C          19.8600  -35.2831  -39.6237 C.2       9 UNK         0.5513 
     57 N          19.4058  -35.1833  -38.3797 N.am      9 UNK        -0.7519 
     58 O          19.7839  -36.3624  -40.2056 O.2       9 UNK        -0.4960 
     59 C59        20.3806  -34.0324  -41.8615 C.3       10 UNK        -0.0876 
     60 S60        21.8320  -33.3181  -42.7134 S.3       10 UNK        -0.2414 
     61 C61        21.4357  -31.5478  -42.8195 C.3       10 UNK         0.0169 
     62 H62        20.2676  -26.1385  -38.8986 H         1 UNK         0.0903 
     63 H63        18.9301  -25.5134  -37.9322 H         1 UNK         0.0903 
     64 H64        18.9099  -27.1920  -38.4664 H         1 UNK         0.0903 
     65 H65        18.9803  -27.5171  -40.9540 H         1 UNK         0.3096 
     66 H66        16.8178  -25.9923  -42.1218 H         1 UNK         0.1121 
     67 H67        17.0529  -27.5847  -44.0258 H         1 UNK         0.0849 
     68 H68        18.5608  -28.1691  -43.3609 H         1 UNK         0.0849 
     69 H69        15.8219  -30.1061  -44.0990 H         1 UNK         0.0865 
     70 H70        16.1873  -31.2562  -42.8346 H         1 UNK         0.0865 
     71 H71        18.8633  -31.0797  -42.1062 H         1 UNK         0.1346 
     72 H72        21.3991  -31.2901  -45.5526 H         1 UNK         0.1412 
     73 H73        17.2576  -30.2566  -45.9807 H         1 UNK         0.1426 
     74 H74        18.5928  -30.2741  -47.8991 H         1 UNK         0.0716 
     75 H75        19.8189  -31.5147  -47.8839 H         1 UNK         0.0716 
     76 H76        19.7700  -28.2234  -45.9458 H         1 UNK         0.0695 
     77 H77        19.8240  -27.1750  -47.3221 H         1 UNK         0.0695 
     78 H78        22.1242  -26.5663  -46.9362 H         1 UNK         0.0983 
     79 H79        21.2395  -26.7708  -44.1549 H         1 UNK         0.3095 
     80 H80        21.6527  -24.2501  -43.2042 H         1 UNK         0.0454 
     81 H81        19.9963  -22.3866  -42.9699 H         1 UNK         0.0851 
     82 H82        19.3323  -22.7811  -44.5547 H         1 UNK         0.0851 
     83 H83        20.9894  -22.2232  -44.4080 H         1 UNK         0.0851 
     84 H84        20.1561  -25.4715  -42.0945 H         1 UNK         0.2976 
     85 H85        23.6456  -28.1546  -47.3947 H         1 UNK         0.3116 
     86 H86        25.4727  -29.3524  -47.0593 H         1 UNK         0.0646 
     87 H87        25.2279  -31.4926  -45.7939 H         1 UNK         0.0847 
     88 H88        23.8481  -31.1959  -46.8333 H         1 UNK         0.0847 
     89 H89        23.7086  -30.9314  -45.1035 H         1 UNK         0.0847 
     90 H90        25.0315  -30.2478  -43.7748 H         1 UNK         0.3040 
     91 H91        27.3379  -28.7370  -42.8577 H         1 UNK         0.1015 
     92 H92        25.3587  -30.5519  -41.3649 H         1 UNK         0.0786 
     93 H93        26.8933  -29.9729  -40.7339 H         1 UNK         0.0786 
     94 H94        26.8759  -31.0736  -42.0996 H         1 UNK         0.0786 
     95 H95        24.0780  -27.8882  -43.1916 H         1 UNK         0.3172 
     96 H96        22.7161  -26.3217  -42.4620 H         1 UNK         0.0595 
     97 H97        25.0765  -24.9476  -41.0726 H         1 UNK         0.0839 
     98 H98        23.5140  -24.2336  -41.4233 H         1 UNK         0.0839 
     99 H99        24.5823  -24.6811  -42.7441 H         1 UNK         0.0839 
    100 H100       22.5584  -28.6230  -41.3002 H         1 UNK         0.2998 
    101 H101       22.0078  -28.1846  -38.4019 H         1 UNK         0.0822 
    102 H102       23.0788  -30.7404  -39.7510 H         1 UNK         0.0787 
    103 H103       24.0698  -29.6289  -38.8136 H         1 UNK         0.0787 
    104 H104       22.7809  -30.5159  -38.0292 H         1 UNK         0.0787 
    105 H105       20.6163  -30.3650  -37.8204 H         1 UNK         0.3055 
    106 H106       18.1694  -30.2257  -39.4594 H         1 UNK         0.1106 
    107 H107       17.2072  -31.5624  -37.5933 H         1 UNK         0.0828 
    108 H108       18.7896  -31.6996  -36.8398 H         1 UNK         0.0828 
    109 H109       18.0056  -30.1257  -36.9798 H         1 UNK         0.0828 
    110 H110       20.9602  -32.2652  -39.2456 H         1 UNK         0.2931 
    111 H111       21.5892  -34.1951  -40.0872 H         1 UNK         0.0412 
    112 H112       19.4750  -34.3145  -37.8757 H         1 UNK         0.3472 
    113 H113       18.9873  -35.9894  -37.9422 H         1 UNK         0.3472 
    114 H114       20.2938  -35.0439  -42.2602 H         1 UNK         0.0970 
    115 H115       19.4631  -33.5345  -42.1718 H         1 UNK         0.0970 
    116 H116       21.2482  -31.1698  -41.8161 H         1 UNK         0.0612 
    117 H117       22.3130  -31.0100  -43.1792 H         1 UNK         0.0612 
@<TRIPOS>BOND
     1    1    2 1    
     2    1   62 1    
     3    1   63 1    
     4    1   64 1    
     5    2    3 2    
     6    2    4 am   BACKBONE|DICT|INTERRES
     7    4    5 1    
     8    4   65 1    
     9    5    6 1    
    10    5   25 1    
    11    5   66 1    
    12    6    7 1    
    13    6   67 1    
    14    6   68 1    
    15    7    8 1    
    16    8    9 1    
    17    8   69 1    
    18    8   70 1    
    19    9   10 ar   
    20    9   14 ar   
    21   10   11 ar   
    22   10   71 1    
    23   11   12 ar   
    24   11   61 1    
    25   12   13 ar   
    26   12   72 1    
    27   13   14 ar   
    28   13   15 1    
    29   14   73 1    
    30   15   16 1    
    31   15   74 1    
    32   15   75 1    
    33   16   17 1    
    34   17   18 1    
    35   17   76 1    
    36   17   77 1    
    37   18   19 1    
    38   18   27 1    
    39   18   78 1    
    40   19   20 am   BACKBONE|DICT|INTERRES
    41   19   79 1    
    42   20   21 2    
    43   20   22 1    
    44   22   23 1    
    45   22   24 1    
    46   22   80 1    
    47   23   81 1    
    48   23   82 1    
    49   23   83 1    
    50   24   25 am   BACKBONE|DICT|INTERRES
    51   24   84 1    
    52   25   26 2    
    53   27   28 2    
    54   27   29 am   BACKBONE|DICT|INTERRES
    55   29   30 1    
    56   29   85 1    
    57   30   31 1    
    58   30   32 1    
    59   30   86 1    
    60   31   87 1    
    61   31   88 1    
    62   31   89 1    
    63   32   33 2    
    64   32   34 am   BACKBONE|DICT|INTERRES
    65   34   35 1    
    66   34   90 1    
    67   35   36 1    
    68   35   37 1    
    69   35   91 1    
    70   36   92 1    
    71   36   93 1    
    72   36   94 1    
    73   37   38 2    
    74   37   39 am   BACKBONE|DICT|INTERRES
    75   39   40 1    
    76   39   95 1    
    77   40   41 1    
    78   40   42 1    
    79   40   96 1    
    80   41   97 1    
    81   41   98 1    
    82   41   99 1    
    83   42   43 2    
    84   42   44 am   BACKBONE|DICT|INTERRES
    85   44   45 1    
    86   44  100 1    
    87   45   46 1    
    88   45   47 1    
    89   45  101 1    
    90   46  102 1    
    91   46  103 1    
    92   46  104 1    
    93   47   48 2    
    94   47   49 am   BACKBONE|DICT|INTERRES
    95   49   50 1    
    96   49  105 1    
    97   50   51 1    
    98   50   52 1    
    99   50  106 1    
   100   51  107 1    
   101   51  108 1    
   102   51  109 1    
   103   52   53 2    
   104   52   54 am   BACKBONE|DICT|INTERRES
   105   54   55 1    
   106   54  110 1    
   107   55   56 1    
   108   55   59 1    
   109   55  111 1    
   110   56   57 am   BACKBONE|DICT|INTERRES
   111   56   58 2    
   112   57  112 1    
   113   57  113 1    
   114   59   60 1    
   115   59  114 1    
   116   59  115 1    
   117   60   61 1    
   118   61  116 1    
   119   61  117 1    
@<TRIPOS>SUBSTRUCTURE
     1 UNK         1 GROUP             0       ****    0 ROOT    
