@<TRIPOS>MOLECULE
3R8
117   119    1
SMALL
USER_CHARGES


@<TRIPOS>ATOM
      1 CA         17.7367  -25.2364  -46.4301 C.3       0 UNK        -0.2013 
      2 C          17.8662  -26.7237  -46.7506 C.2       0 UNK         0.4866 
      3 O          17.9010  -27.0737  -47.9286 O.2       0 UNK        -0.5176 
      4 N          17.9326  -27.6445  -45.7764 N.am      1 UNK        -0.4884 
      5 CA         17.9422  -27.4712  -44.3143 C.3       1 UNK         0.0853 
      6 C6         16.6586  -26.8301  -43.7137 C.3       10 UNK        -0.0849 
      7 S7         15.1322  -27.6991  -44.2088 S.3       10 UNK        -0.2776 
      8 C8         14.8428  -28.7931  -42.7776 C.3       10 UNK         0.0316 
      9 C9         15.9378  -29.8410  -42.6197 C.ar      10 UNK        -0.0863 
     10 C10        16.1350  -30.8023  -43.6178 C.ar      10 UNK        -0.1009 
     11 C11        17.1427  -31.7629  -43.4936 C.ar      10 UNK        -0.0712 
     12 C12        17.9419  -31.7637  -42.3473 C.ar      10 UNK        -0.0894 
     13 C13        17.7495  -30.8212  -41.3359 C.ar      10 UNK        -0.0745 
     14 C14        16.7500  -29.8539  -41.4790 C.ar      10 UNK        -0.0972 
     15 C15        18.6118  -30.8886  -40.0849 C.3       10 UNK         0.0209 
     16 S16        20.3341  -30.4114  -40.4289 S.3       10 UNK        -0.2568 
     17 C17        20.3789  -28.7254  -39.7456 C.3       10 UNK        -0.0983 
     18 CA         21.5522  -27.8995  -40.3226 C.3       3 UNK         0.0876 
     19 N          21.3919  -27.6900  -41.7688 N.am      3 UNK        -0.4424 
     20 C          22.2034  -27.0085  -42.5894 C.2       2 UNK         0.4918 
     21 O          23.2744  -26.5248  -42.2274 O.2       2 UNK        -0.4875 
     22 CA         21.7308  -26.7586  -44.0362 C.3       2 UNK         0.0481 
     23 CB         22.7484  -27.3087  -45.0482 C.3       2 UNK        -0.1831 
     24 N          20.3860  -27.2618  -44.3517 N.am      2 UNK        -0.4498 
     25 C          19.2415  -26.8046  -43.8193 C.2       1 UNK         0.5027 
     26 O          19.1992  -25.9044  -42.9787 O.2       1 UNK        -0.4969 
     27 C          21.7390  -26.6003  -39.5058 C.2       3 UNK         0.5005 
     28 O          22.2934  -26.6561  -38.4076 O.2       3 UNK        -0.5279 
     29 N          21.3040  -25.4549  -40.0517 N.am      4 UNK        -0.4463 
     30 CA         21.5572  -24.1200  -39.5052 C.3       4 UNK         0.0283 
     31 CB         20.6975  -23.0988  -40.2676 C.3       4 UNK        -0.1875 
     32 C          23.0424  -23.7009  -39.5410 C.2       4 UNK         0.4949 
     33 O          23.4319  -22.8439  -38.7472 O.2       4 UNK        -0.5039 
     34 N          23.8341  -24.2865  -40.4518 N.am      5 UNK        -0.4663 
     35 CA         25.2564  -23.9870  -40.6445 C.3       5 UNK         0.0242 
     36 CB         25.4554  -23.3951  -42.0502 C.3       5 UNK        -0.1982 
     37 C          26.1517  -25.2230  -40.4588 C.2       5 UNK         0.5017 
     38 O          27.2532  -25.0852  -39.9251 O.2       5 UNK        -0.5012 
     39 N          25.6863  -26.3940  -40.9089 N.am      6 UNK        -0.4439 
     40 CA         26.4118  -27.6608  -40.8947 C.3       6 UNK         0.0297 
     41 CB         27.2079  -27.8163  -42.2084 C.3       6 UNK        -0.2006 
     42 C          25.4152  -28.7962  -40.6175 C.2       6 UNK         0.4892 
     43 O          24.9646  -28.9257  -39.4793 O.2       6 UNK        -0.5089 
     44 N          25.0848  -29.5926  -41.6402 N.am      7 UNK        -0.4243 
     45 CA         24.1494  -30.7138  -41.5917 C.3       7 UNK         0.0196 
     46 CB         24.8602  -31.9686  -41.0520 C.3       7 UNK        -0.2007 
     47 C          23.5985  -30.9549  -43.0018 C.2       7 UNK         0.5020 
     48 O          24.2089  -30.5112  -43.9778 O.2       7 UNK        -0.5147 
     49 N          22.4735  -31.6693  -43.0878 N.am      8 UNK        -0.4734 
     50 CA         21.8200  -32.0721  -44.3315 C.3       8 UNK         0.0238 
     51 CB         20.8360  -30.9745  -44.7756 C.3       8 UNK        -0.1912 
     52 C          21.0961  -33.4076  -44.1138 C.2       8 UNK         0.5038 
     53 O          20.8178  -33.7586  -42.9650 O.2       8 UNK        -0.5046 
     54 N          20.8047  -34.1024  -45.2243 N.am      9 UNK        -0.4200 
     55 CA         20.0597  -35.3744  -45.3432 C.3       9 UNK         0.0839 
     56 C          20.4913  -36.5527  -44.4138 C.2       9 UNK         0.5513 
     57 N          21.7226  -36.5792  -43.9190 N.am      9 UNK        -0.7519 
     58 O          19.7242  -37.4828  -44.1772 O.2       9 UNK        -0.4960 
     59 C59        18.5178  -35.1825  -45.4839 C.3       10 UNK        -0.0876 
     60 S60        17.6713  -34.4621  -44.0354 S.3       10 UNK        -0.2414 
     61 C61        17.3990  -32.7563  -44.6214 C.3       10 UNK         0.0169 
     62 H62        16.6970  -24.9872  -46.2214 H         1 UNK         0.0903 
     63 H63        18.3487  -24.9272  -45.5862 H         1 UNK         0.0903 
     64 H64        18.0513  -24.6407  -47.2868 H         1 UNK         0.0903 
     65 H65        17.9800  -28.6095  -46.0721 H         1 UNK         0.3096 
     66 H66        17.9958  -28.4843  -43.9135 H         1 UNK         0.1121 
     67 H67        16.5661  -25.7834  -44.0021 H         1 UNK         0.0849 
     68 H68        16.7138  -26.8244  -42.6233 H         1 UNK         0.0849 
     69 H69        14.7431  -28.1881  -41.8749 H         1 UNK         0.0865 
     70 H70        13.8858  -29.2998  -42.9101 H         1 UNK         0.0865 
     71 H71        15.5134  -30.7850  -44.5029 H         1 UNK         0.1346 
     72 H72        18.7242  -32.5010  -42.2372 H         1 UNK         0.1412 
     73 H73        16.5985  -29.1203  -40.6988 H         1 UNK         0.1426 
     74 H74        18.6058  -31.9123  -39.7076 H         1 UNK         0.0716 
     75 H75        18.1969  -30.2719  -39.2862 H         1 UNK         0.0716 
     76 H76        20.4618  -28.8193  -38.6606 H         1 UNK         0.0695 
     77 H77        19.4276  -28.2267  -39.9428 H         1 UNK         0.0695 
     78 H78        22.4706  -28.4672  -40.1824 H         1 UNK         0.0983 
     79 H79        20.5410  -28.0619  -42.1609 H         1 UNK         0.3095 
     80 H80        21.7012  -25.6745  -44.1631 H         1 UNK         0.0454 
     81 H81        22.4438  -27.1050  -46.0747 H         1 UNK         0.0851 
     82 H82        22.8905  -28.3827  -44.9431 H         1 UNK         0.0851 
     83 H83        23.7257  -26.8448  -44.9072 H         1 UNK         0.0851 
     84 H84        20.3280  -27.9789  -45.0604 H         1 UNK         0.2976 
     85 H85        20.8240  -25.5007  -40.9409 H         1 UNK         0.3116 
     86 H86        21.2419  -24.1195  -38.4596 H         1 UNK         0.0646 
     87 H87        20.9546  -23.0651  -41.3272 H         1 UNK         0.0847 
     88 H88        20.8373  -22.0939  -39.8666 H         1 UNK         0.0847 
     89 H89        19.6358  -23.3328  -40.1868 H         1 UNK         0.0847 
     90 H90        23.4368  -24.9986  -41.0556 H         1 UNK         0.3040 
     91 H91        25.5910  -23.2446  -39.9164 H         1 UNK         0.1015 
     92 H92        25.1326  -24.0869  -42.8295 H         1 UNK         0.0786 
     93 H93        26.5056  -23.1629  -42.2325 H         1 UNK         0.0786 
     94 H94        24.8934  -22.4688  -42.1713 H         1 UNK         0.0786 
     95 H95        24.7640  -26.4280  -41.3423 H         1 UNK         0.3172 
     96 H96        27.1208  -27.6687  -40.0641 H         1 UNK         0.0595 
     97 H97        26.5690  -27.7340  -43.0887 H         1 UNK         0.0839 
     98 H98        27.7183  -28.7796  -42.2506 H         1 UNK         0.0839 
     99 H99        27.9760  -27.0470  -42.2904 H         1 UNK         0.0839 
    100 H100       25.4461  -29.4005  -42.5668 H         1 UNK         0.2998 
    101 H101       23.3143  -30.4631  -40.9371 H         1 UNK         0.0822 
    102 H102       24.1801  -32.8205  -41.0130 H         1 UNK         0.0787 
    103 H103       25.7056  -32.2523  -41.6801 H         1 UNK         0.0787 
    104 H104       25.2337  -31.8093  -40.0403 H         1 UNK         0.0787 
    105 H105       22.0458  -32.0528  -42.2525 H         1 UNK         0.3055 
    106 H106       22.5766  -32.2200  -45.1059 H         1 UNK         0.1106 
    107 H107       20.3135  -31.2561  -45.6902 H         1 UNK         0.0828 
    108 H108       20.0850  -30.7737  -44.0110 H         1 UNK         0.0828 
    109 H109       21.3570  -30.0436  -44.9842 H         1 UNK         0.0828 
    110 H110       21.1142  -33.7212  -46.1065 H         1 UNK         0.2931 
    111 H111       20.3742  -35.7414  -46.3210 H         1 UNK         0.0412 
    112 H112       22.3619  -35.8220  -44.0986 H         1 UNK         0.3472 
    113 H113       22.0022  -37.3490  -43.3316 H         1 UNK         0.3472 
    114 H114       18.3117  -34.5641  -46.3585 H         1 UNK         0.0970 
    115 H115       18.0398  -36.1383  -45.7058 H         1 UNK         0.0970 
    116 H116       16.5673  -32.7631  -45.3275 H         1 UNK         0.0612 
    117 H117       18.2742  -32.4198  -45.1756 H         1 UNK         0.0612 
@<TRIPOS>BOND
     1    1    2 1    
     2    1   62 1    
     3    1   63 1    
     4    1   64 1    
     5    2    3 2    
     6    2    4 am   BACKBONE|DICT|INTERRES
     7    4    5 1    
     8    4   65 1    
     9    5    6 1    
    10    5   25 1    
    11    5   66 1    
    12    6    7 1    
    13    6   67 1    
    14    6   68 1    
    15    7    8 1    
    16    8    9 1    
    17    8   69 1    
    18    8   70 1    
    19    9   10 ar   
    20    9   14 ar   
    21   10   11 ar   
    22   10   71 1    
    23   11   12 ar   
    24   11   61 1    
    25   12   13 ar   
    26   12   72 1    
    27   13   14 ar   
    28   13   15 1    
    29   14   73 1    
    30   15   16 1    
    31   15   74 1    
    32   15   75 1    
    33   16   17 1    
    34   17   18 1    
    35   17   76 1    
    36   17   77 1    
    37   18   19 1    
    38   18   27 1    
    39   18   78 1    
    40   19   20 am   BACKBONE|DICT|INTERRES
    41   19   79 1    
    42   20   21 2    
    43   20   22 1    
    44   22   23 1    
    45   22   24 1    
    46   22   80 1    
    47   23   81 1    
    48   23   82 1    
    49   23   83 1    
    50   24   25 am   BACKBONE|DICT|INTERRES
    51   24   84 1    
    52   25   26 2    
    53   27   28 2    
    54   27   29 am   BACKBONE|DICT|INTERRES
    55   29   30 1    
    56   29   85 1    
    57   30   31 1    
    58   30   32 1    
    59   30   86 1    
    60   31   87 1    
    61   31   88 1    
    62   31   89 1    
    63   32   33 2    
    64   32   34 am   BACKBONE|DICT|INTERRES
    65   34   35 1    
    66   34   90 1    
    67   35   36 1    
    68   35   37 1    
    69   35   91 1    
    70   36   92 1    
    71   36   93 1    
    72   36   94 1    
    73   37   38 2    
    74   37   39 am   BACKBONE|DICT|INTERRES
    75   39   40 1    
    76   39   95 1    
    77   40   41 1    
    78   40   42 1    
    79   40   96 1    
    80   41   97 1    
    81   41   98 1    
    82   41   99 1    
    83   42   43 2    
    84   42   44 am   BACKBONE|DICT|INTERRES
    85   44   45 1    
    86   44  100 1    
    87   45   46 1    
    88   45   47 1    
    89   45  101 1    
    90   46  102 1    
    91   46  103 1    
    92   46  104 1    
    93   47   48 2    
    94   47   49 am   BACKBONE|DICT|INTERRES
    95   49   50 1    
    96   49  105 1    
    97   50   51 1    
    98   50   52 1    
    99   50  106 1    
   100   51  107 1    
   101   51  108 1    
   102   51  109 1    
   103   52   53 2    
   104   52   54 am   BACKBONE|DICT|INTERRES
   105   54   55 1    
   106   54  110 1    
   107   55   56 1    
   108   55   59 1    
   109   55  111 1    
   110   56   57 am   BACKBONE|DICT|INTERRES
   111   56   58 2    
   112   57  112 1    
   113   57  113 1    
   114   59   60 1    
   115   59  114 1    
   116   59  115 1    
   117   60   61 1    
   118   61  116 1    
   119   61  117 1    
@<TRIPOS>SUBSTRUCTURE
     1 UNK         1 GROUP             0       ****    0 ROOT    
