@<TRIPOS>MOLECULE
3R8
117   119    1
SMALL
USER_CHARGES


@<TRIPOS>ATOM
      1 CA         12.8057  -23.8853  -46.5053 C.3       0 UNK        -0.2013 
      2 C          14.0286  -24.7285  -46.8332 C.2       0 UNK         0.4866 
      3 O          14.5489  -24.6460  -47.9460 O.2       0 UNK        -0.5176 
      4 N          14.4889  -25.5419  -45.8739 N.am      1 UNK        -0.4884 
      5 CA         15.6744  -26.4011  -45.9917 C.3       1 UNK         0.0853 
      6 C6         15.7260  -27.4763  -44.8722 C.3       10 UNK        -0.0849 
      7 S7         15.5378  -26.7962  -43.1844 S.3       10 UNK        -0.2776 
      8 C8         15.6355  -28.3038  -42.1681 C.3       10 UNK         0.0316 
      9 C9         17.0788  -28.6989  -41.8960 C.ar      10 UNK        -0.0863 
     10 C10        17.6742  -29.7541  -42.5946 C.ar      10 UNK        -0.1009 
     11 C11        19.0047  -30.1047  -42.3450 C.ar      10 UNK        -0.0712 
     12 C12        19.7353  -29.4013  -41.3835 C.ar      10 UNK        -0.0894 
     13 C13        19.1570  -28.3288  -40.6957 C.ar      10 UNK        -0.0745 
     14 C14        17.8228  -27.9941  -40.9447 C.ar      10 UNK        -0.0972 
     15 C15        19.9933  -27.4819  -39.7471 C.3       10 UNK         0.0209 
     16 S16        21.4467  -26.7624  -40.5842 S.3       10 UNK        -0.2568 
     17 C17        20.7089  -25.6005  -41.7959 C.3       10 UNK        -0.0983 
     18 CA         20.2029  -26.2352  -43.1300 C.3       3 UNK         0.0876 
     19 N          19.2111  -25.3983  -43.8069 N.am      3 UNK        -0.4424 
     20 C          19.4217  -24.2307  -44.4282 C.2       2 UNK         0.4918 
     21 O          20.5081  -23.6494  -44.4422 O.2       2 UNK        -0.4875 
     22 CA         18.2047  -23.5832  -45.1290 C.3       2 UNK         0.0481 
     23 CB         18.5916  -22.9043  -46.4596 C.3       2 UNK        -0.1831 
     24 N          17.0551  -24.4847  -45.3116 N.am      2 UNK        -0.4498 
     25 C          16.9911  -25.5991  -46.0606 C.2       1 UNK         0.5027 
     26 O          17.9109  -26.0136  -46.7656 O.2       1 UNK        -0.4969 
     27 C          21.2902  -26.7759  -44.0914 C.2       3 UNK         0.5005 
     28 O          21.0523  -26.8878  -45.2968 O.2       3 UNK        -0.5279 
     29 N          22.4368  -27.1717  -43.5372 N.am      4 UNK        -0.4463 
     30 CA         23.5511  -27.8367  -44.2020 C.3       4 UNK         0.0283 
     31 CB         23.2291  -29.3386  -44.3644 C.3       4 UNK        -0.1875 
     32 C          24.8214  -27.5941  -43.3728 C.2       4 UNK         0.4949 
     33 O          24.8051  -26.7780  -42.4478 O.2       4 UNK        -0.5039 
     34 N          25.9017  -28.3154  -43.7020 N.am      5 UNK        -0.4663 
     35 CA         27.1893  -28.2675  -42.9959 C.3       5 UNK         0.0242 
     36 CB         28.2288  -29.0728  -43.7929 C.3       5 UNK        -0.1982 
     37 C          27.1300  -28.7629  -41.5365 C.2       5 UNK         0.5017 
     38 O          27.9927  -28.3890  -40.7409 O.2       5 UNK        -0.5012 
     39 N          26.1209  -29.5782  -41.2105 N.am      6 UNK        -0.4439 
     40 CA         25.8060  -30.0592  -39.8722 C.3       6 UNK         0.0297 
     41 CB         26.6337  -31.3189  -39.5578 C.3       6 UNK        -0.2006 
     42 C          24.3066  -30.3642  -39.8156 C.2       6 UNK         0.4892 
     43 O          23.7100  -30.6894  -40.8461 O.2       6 UNK        -0.5089 
     44 N          23.7395  -30.3213  -38.6028 N.am      7 UNK        -0.4243 
     45 CA         22.3367  -30.6521  -38.3170 C.3       7 UNK         0.0196 
     46 CB         21.9964  -30.2103  -36.8845 C.3       7 UNK        -0.2007 
     47 C          21.9816  -32.1373  -38.5312 C.2       7 UNK         0.5020 
     48 O          20.7996  -32.4715  -38.5954 O.2       7 UNK        -0.5147 
     49 N          23.0022  -32.9974  -38.6569 N.am      8 UNK        -0.4734 
     50 CA         22.8806  -34.3985  -39.0680 C.3       8 UNK         0.0238 
     51 CB         24.1791  -35.1368  -38.7012 C.3       8 UNK        -0.1912 
     52 C          22.5658  -34.5722  -40.5684 C.2       8 UNK         0.5038 
     53 O          22.1986  -35.6772  -40.9698 O.2       8 UNK        -0.5046 
     54 N          22.7195  -33.5006  -41.3620 N.am      9 UNK        -0.4200 
     55 CA         22.4333  -33.4275  -42.8055 C.3       9 UNK         0.0839 
     56 C          23.4285  -34.2165  -43.7082 C.2       9 UNK         0.5513 
     57 N          24.5859  -34.6345  -43.2096 N.am      9 UNK        -0.7519 
     58 O          23.1650  -34.4278  -44.8893 O.2       9 UNK        -0.4960 
     59 C59        20.9433  -33.7145  -43.1643 C.3       10 UNK        -0.0876 
     60 S60        19.7581  -32.7479  -42.1675 S.3       10 UNK        -0.2414 
     61 C61        19.6753  -31.2153  -43.1356 C.3       10 UNK         0.0169 
     62 H62        11.9949  -24.1159  -47.1960 H         1 UNK         0.0903 
     63 H63        12.4476  -24.0623  -45.4913 H         1 UNK         0.0903 
     64 H64        13.0439  -22.8262  -46.6008 H         1 UNK         0.0903 
     65 H65        14.0218  -25.5769  -44.9777 H         1 UNK         0.3096 
     66 H66        15.5946  -26.9295  -46.9449 H         1 UNK         0.1121 
     67 H67        16.6516  -28.0534  -44.9281 H         1 UNK         0.0849 
     68 H68        14.9219  -28.1961  -45.0334 H         1 UNK         0.0849 
     69 H69        15.1291  -28.1210  -41.2191 H         1 UNK         0.0865 
     70 H70        15.0892  -29.1164  -42.6496 H         1 UNK         0.0865 
     71 H71        17.1067  -30.2960  -43.3390 H         1 UNK         0.1346 
     72 H72        20.7707  -29.6604  -41.2061 H         1 UNK         0.1412 
     73 H73        17.3688  -27.1618  -40.4239 H         1 UNK         0.1426 
     74 H74        20.3306  -28.1033  -38.9171 H         1 UNK         0.0716 
     75 H75        19.4007  -26.6775  -39.3086 H         1 UNK         0.0716 
     76 H76        21.4384  -24.8169  -42.0079 H         1 UNK         0.0695 
     77 H77        19.8810  -25.0982  -41.2929 H         1 UNK         0.0695 
     78 H78        19.6303  -27.1237  -42.8890 H         1 UNK         0.0983 
     79 H79        18.2839  -25.7923  -43.8670 H         1 UNK         0.3095 
     80 H80        17.8582  -22.7998  -44.4537 H         1 UNK         0.0454 
     81 H81        19.0293  -23.6121  -47.1639 H         1 UNK         0.0851 
     82 H82        19.3266  -22.1150  -46.2975 H         1 UNK         0.0851 
     83 H83        17.7266  -22.4453  -46.9381 H         1 UNK         0.0851 
     84 H84        16.2334  -24.2554  -44.7687 H         1 UNK         0.2976 
     85 H85        22.5850  -26.9933  -42.5484 H         1 UNK         0.3116 
     86 H86        23.7047  -27.3851  -45.1841 H         1 UNK         0.0646 
     87 H87        23.1182  -29.8309  -43.3974 H         1 UNK         0.0847 
     88 H88        24.0089  -29.8639  -44.9158 H         1 UNK         0.0847 
     89 H89        22.3022  -29.4875  -44.9183 H         1 UNK         0.0847 
     90 H90        25.8400  -28.9535  -44.4826 H         1 UNK         0.3040 
     91 H91        27.5128  -27.2246  -42.9650 H         1 UNK         0.1015 
     92 H92        27.9493  -30.1240  -43.8747 H         1 UNK         0.0786 
     93 H93        29.2069  -29.0329  -43.3109 H         1 UNK         0.0786 
     94 H94        28.3517  -28.6765  -44.8011 H         1 UNK         0.0786 
     95 H95        25.4249  -29.8089  -41.9085 H         1 UNK         0.3172 
     96 H96        26.0302  -29.2764  -39.1442 H         1 UNK         0.0595 
     97 H97        26.4187  -31.6936  -38.5564 H         1 UNK         0.0839 
     98 H98        27.7031  -31.1108  -39.5987 H         1 UNK         0.0839 
     99 H99        26.4245  -32.1247  -40.2627 H         1 UNK         0.0839 
    100 H100       24.3080  -30.0560  -37.8107 H         1 UNK         0.2998 
    101 H101       21.7159  -30.0791  -39.0075 H         1 UNK         0.0822 
    102 H102       20.9486  -30.4082  -36.6533 H         1 UNK         0.0787 
    103 H103       22.5990  -30.7390  -36.1449 H         1 UNK         0.0787 
    104 H104       22.1577  -29.1404  -36.7501 H         1 UNK         0.0787 
    105 H105       23.9382  -32.6337  -38.5576 H         1 UNK         0.3055 
    106 H106       22.0557  -34.8512  -38.5128 H         1 UNK         0.1106 
    107 H107       24.1155  -36.1937  -38.9645 H         1 UNK         0.0828 
    108 H108       25.0426  -34.7230  -39.2235 H         1 UNK         0.0828 
    109 H109       24.3766  -35.0850  -37.6303 H         1 UNK         0.0828 
    110 H110       23.0338  -32.6295  -40.9500 H         1 UNK         0.2931 
    111 H111       22.6194  -32.3841  -43.0610 H         1 UNK         0.0412 
    112 H112       25.2281  -35.1352  -43.8037 H         1 UNK         0.3472 
    113 H113       24.8187  -34.4603  -42.2457 H         1 UNK         0.3472 
    114 H114       20.7178  -34.7727  -43.0236 H         1 UNK         0.0970 
    115 H115       20.7556  -33.5103  -44.2200 H         1 UNK         0.0970 
    116 H116       19.1423  -31.4044  -44.0687 H         1 UNK         0.0612 
    117 H117       20.6829  -30.9014  -43.4110 H         1 UNK         0.0612 
@<TRIPOS>BOND
     1    1    2 1    
     2    1   62 1    
     3    1   63 1    
     4    1   64 1    
     5    2    3 2    
     6    2    4 am   BACKBONE|DICT|INTERRES
     7    4    5 1    
     8    4   65 1    
     9    5    6 1    
    10    5   25 1    
    11    5   66 1    
    12    6    7 1    
    13    6   67 1    
    14    6   68 1    
    15    7    8 1    
    16    8    9 1    
    17    8   69 1    
    18    8   70 1    
    19    9   10 ar   
    20    9   14 ar   
    21   10   11 ar   
    22   10   71 1    
    23   11   12 ar   
    24   11   61 1    
    25   12   13 ar   
    26   12   72 1    
    27   13   14 ar   
    28   13   15 1    
    29   14   73 1    
    30   15   16 1    
    31   15   74 1    
    32   15   75 1    
    33   16   17 1    
    34   17   18 1    
    35   17   76 1    
    36   17   77 1    
    37   18   19 1    
    38   18   27 1    
    39   18   78 1    
    40   19   20 am   BACKBONE|DICT|INTERRES
    41   19   79 1    
    42   20   21 2    
    43   20   22 1    
    44   22   23 1    
    45   22   24 1    
    46   22   80 1    
    47   23   81 1    
    48   23   82 1    
    49   23   83 1    
    50   24   25 am   BACKBONE|DICT|INTERRES
    51   24   84 1    
    52   25   26 2    
    53   27   28 2    
    54   27   29 am   BACKBONE|DICT|INTERRES
    55   29   30 1    
    56   29   85 1    
    57   30   31 1    
    58   30   32 1    
    59   30   86 1    
    60   31   87 1    
    61   31   88 1    
    62   31   89 1    
    63   32   33 2    
    64   32   34 am   BACKBONE|DICT|INTERRES
    65   34   35 1    
    66   34   90 1    
    67   35   36 1    
    68   35   37 1    
    69   35   91 1    
    70   36   92 1    
    71   36   93 1    
    72   36   94 1    
    73   37   38 2    
    74   37   39 am   BACKBONE|DICT|INTERRES
    75   39   40 1    
    76   39   95 1    
    77   40   41 1    
    78   40   42 1    
    79   40   96 1    
    80   41   97 1    
    81   41   98 1    
    82   41   99 1    
    83   42   43 2    
    84   42   44 am   BACKBONE|DICT|INTERRES
    85   44   45 1    
    86   44  100 1    
    87   45   46 1    
    88   45   47 1    
    89   45  101 1    
    90   46  102 1    
    91   46  103 1    
    92   46  104 1    
    93   47   48 2    
    94   47   49 am   BACKBONE|DICT|INTERRES
    95   49   50 1    
    96   49  105 1    
    97   50   51 1    
    98   50   52 1    
    99   50  106 1    
   100   51  107 1    
   101   51  108 1    
   102   51  109 1    
   103   52   53 2    
   104   52   54 am   BACKBONE|DICT|INTERRES
   105   54   55 1    
   106   54  110 1    
   107   55   56 1    
   108   55   59 1    
   109   55  111 1    
   110   56   57 am   BACKBONE|DICT|INTERRES
   111   56   58 2    
   112   57  112 1    
   113   57  113 1    
   114   59   60 1    
   115   59  114 1    
   116   59  115 1    
   117   60   61 1    
   118   61  116 1    
   119   61  117 1    
@<TRIPOS>SUBSTRUCTURE
     1 UNK         1 GROUP             0       ****    0 ROOT    
