@<TRIPOS>MOLECULE
3R8
117   119    1
SMALL
USER_CHARGES


@<TRIPOS>ATOM
      1 CA         15.6793  -21.8585  -43.9150 C.3       0 UNK        -0.2013 
      2 C          16.1766  -22.8925  -44.9138 C.2       0 UNK         0.4866 
      3 O          16.4643  -22.5487  -46.0602 O.2       0 UNK        -0.5176 
      4 N          16.2839  -24.1577  -44.4875 N.am      1 UNK        -0.4884 
      5 CA         16.7465  -25.2879  -45.3058 C.3       1 UNK         0.0853 
      6 C6         16.1796  -26.6365  -44.7943 C.3       10 UNK        -0.0849 
      7 S7         16.4927  -26.9700  -43.0240 S.3       10 UNK        -0.2776 
      8 C8         16.0764  -28.7429  -42.9014 C.3       10 UNK         0.0316 
      9 C9         17.3164  -29.6183  -43.0171 C.ar      10 UNK        -0.0863 
     10 C10        17.8839  -30.2022  -41.8792 C.ar      10 UNK        -0.1009 
     11 C11        19.0511  -30.9664  -41.9798 C.ar      10 UNK        -0.0712 
     12 C12        19.6555  -31.1371  -43.2294 C.ar      10 UNK        -0.0894 
     13 C13        19.0866  -30.5758  -44.3740 C.ar      10 UNK        -0.0745 
     14 C14        17.9077  -29.8364  -44.2631 C.ar      10 UNK        -0.0972 
     15 C15        19.7351  -30.7579  -45.7362 C.3       10 UNK         0.0209 
     16 S16        20.2800  -29.1672  -46.4339 S.3       10 UNK        -0.2568 
     17 C17        21.8983  -28.8986  -45.6342 C.3       10 UNK        -0.0983 
     18 CA         21.9528  -27.7867  -44.5513 C.3       3 UNK         0.0876 
     19 N          21.1763  -26.5838  -44.8954 N.am      3 UNK        -0.4424 
     20 C          21.3687  -25.3699  -44.3624 C.2       2 UNK         0.4918 
     21 O          22.2081  -25.1467  -43.4900 O.2       2 UNK        -0.4875 
     22 CA         20.4655  -24.2180  -44.8322 C.3       2 UNK         0.0481 
     23 CB         20.8880  -23.7099  -46.2242 C.3       2 UNK        -0.1831 
     24 N          19.0227  -24.4910  -44.7615 N.am      2 UNK        -0.4498 
     25 C          18.2802  -25.3229  -45.5087 C.2       1 UNK         0.5027 
     26 O          18.7546  -26.0825  -46.3532 O.2       1 UNK        -0.4969 
     27 C          21.7288  -28.3015  -43.1094 C.2       3 UNK         0.5005 
     28 O          22.4923  -29.1545  -42.6477 O.2       3 UNK        -0.5279 
     29 N          20.7648  -27.7117  -42.3863 N.am      4 UNK        -0.4463 
     30 CA         20.6133  -27.8184  -40.9343 C.3       4 UNK         0.0283 
     31 CB         19.3099  -27.1341  -40.4964 C.3       4 UNK        -0.1875 
     32 C          21.8009  -27.2330  -40.1516 C.2       4 UNK         0.4949 
     33 O          22.1208  -27.7547  -39.0848 O.2       4 UNK        -0.5039 
     34 N          22.4550  -26.1924  -40.6932 N.am      5 UNK        -0.4663 
     35 CA         23.6547  -25.5858  -40.1034 C.3       5 UNK         0.0242 
     36 CB         23.9123  -24.2143  -40.7473 C.3       5 UNK        -0.1982 
     37 C          24.8932  -26.4881  -40.2361 C.2       5 UNK         0.5017 
     38 O          25.7535  -26.4713  -39.3558 O.2       5 UNK        -0.5012 
     39 N          24.9420  -27.2774  -41.3183 N.am      6 UNK        -0.4439 
     40 CA         25.9401  -28.3249  -41.5461 C.3       6 UNK         0.0297 
     41 CB         26.0234  -28.6171  -43.0541 C.3       6 UNK        -0.2006 
     42 C          25.6297  -29.6183  -40.7683 C.2       6 UNK         0.4892 
     43 O          26.5272  -30.4462  -40.6101 O.2       6 UNK        -0.5089 
     44 N          24.3712  -29.7720  -40.3243 N.am      7 UNK        -0.4243 
     45 CA         23.7806  -30.9416  -39.6647 C.3       7 UNK         0.0196 
     46 CB         24.4119  -31.1734  -38.2761 C.3       7 UNK        -0.2007 
     47 C          23.8099  -32.1942  -40.5608 C.2       7 UNK         0.5020 
     48 O          24.0127  -33.3050  -40.0674 O.2       7 UNK        -0.5147 
     49 N          23.5987  -31.9957  -41.8714 N.am      8 UNK        -0.4734 
     50 CA         23.7388  -33.0298  -42.9064 C.3       8 UNK         0.0238 
     51 CB         23.6595  -32.3680  -44.2902 C.3       8 UNK        -0.1912 
     52 C          22.7244  -34.1842  -42.8038 C.2       8 UNK         0.5038 
     53 O          22.9784  -35.2592  -43.3480 O.2       8 UNK        -0.5046 
     54 N          21.6058  -33.9396  -42.1127 N.am      9 UNK        -0.4200 
     55 CA         20.5655  -34.9231  -41.7952 C.3       9 UNK         0.0839 
     56 C          20.9094  -35.8594  -40.5985 C.2       9 UNK         0.5513 
     57 N          22.0036  -35.6492  -39.8736 N.am      9 UNK        -0.7519 
     58 O          20.1749  -36.8079  -40.3346 O.2       9 UNK        -0.4960 
     59 C59        19.1732  -34.2472  -41.6657 C.3       10 UNK        -0.0876 
     60 S60        18.9570  -33.1457  -40.2186 S.3       10 UNK        -0.2414 
     61 C61        19.6913  -31.5585  -40.7323 C.3       10 UNK         0.0169 
     62 H62        15.4659  -22.3005  -42.9418 H         1 UNK         0.0903 
     63 H63        16.4284  -21.0793  -43.7768 H         1 UNK         0.0903 
     64 H64        14.7659  -21.3916  -44.2824 H         1 UNK         0.0903 
     65 H65        16.0317  -24.3943  -43.5369 H         1 UNK         0.3096 
     66 H66        16.3394  -25.1457  -46.3100 H         1 UNK         0.1121 
     67 H67        15.0982  -26.6443  -44.9396 H         1 UNK         0.0849 
     68 H68        16.5554  -27.4567  -45.4045 H         1 UNK         0.0849 
     69 H69        15.5829  -28.9171  -41.9440 H         1 UNK         0.0865 
     70 H70        15.3497  -29.0168  -43.6678 H         1 UNK         0.0865 
     71 H71        17.4305  -30.0470  -40.9098 H         1 UNK         0.1346 
     72 H72        20.5723  -31.7002  -43.3130 H         1 UNK         0.1412 
     73 H73        17.4724  -29.4095  -45.1539 H         1 UNK         0.1426 
     74 H74        20.5724  -31.4554  -45.6937 H         1 UNK         0.0716 
     75 H75        19.0042  -31.2019  -46.4133 H         1 UNK         0.0716 
     76 H76        22.2884  -29.8421  -45.2545 H         1 UNK         0.0695 
     77 H77        22.5817  -28.6231  -46.4388 H         1 UNK         0.0695 
     78 H78        22.9956  -27.4612  -44.5335 H         1 UNK         0.0983 
     79 H79        20.4331  -26.7000  -45.5803 H         1 UNK         0.3095 
     80 H80        20.6300  -23.3959  -44.1338 H         1 UNK         0.0454 
     81 H81        20.7755  -24.4734  -46.9943 H         1 UNK         0.0851 
     82 H82        20.2993  -22.8430  -46.5244 H         1 UNK         0.0851 
     83 H83        21.9354  -23.4053  -46.2243 H         1 UNK         0.0851 
     84 H84        18.5171  -23.9376  -44.0838 H         1 UNK         0.2976 
     85 H85        20.1639  -27.0523  -42.8579 H         1 UNK         0.3116 
     86 H86        20.5525  -28.8763  -40.6827 H         1 UNK         0.0646 
     87 H87        19.1827  -27.1907  -39.4145 H         1 UNK         0.0847 
     88 H88        18.4413  -27.6131  -40.9429 H         1 UNK         0.0847 
     89 H89        19.2910  -26.0793  -40.7729 H         1 UNK         0.0847 
     90 H90        22.1527  -25.8218  -41.5890 H         1 UNK         0.3040 
     91 H91        23.4718  -25.4326  -39.0372 H         1 UNK         0.1015 
     92 H92        23.0493  -23.5567  -40.6413 H         1 UNK         0.0786 
     93 H93        24.1394  -24.3011  -41.8105 H         1 UNK         0.0786 
     94 H94        24.7596  -23.7161  -40.2743 H         1 UNK         0.0786 
     95 H95        24.1851  -27.2152  -41.9834 H         1 UNK         0.3172 
     96 H96        26.9151  -27.9624  -41.2136 H         1 UNK         0.0595 
     97 H97        26.7931  -29.3614  -43.2634 H         1 UNK         0.0839 
     98 H98        26.2797  -27.7213  -43.6199 H         1 UNK         0.0839 
     99 H99        25.0835  -29.0066  -43.4464 H         1 UNK         0.0839 
    100 H100       23.7174  -29.0326  -40.5423 H         1 UNK         0.2998 
    101 H101       22.7276  -30.7015  -39.5104 H         1 UNK         0.0822 
    102 H102       24.3678  -30.2706  -37.6667 H         1 UNK         0.0787 
    103 H103       23.8826  -31.9569  -37.7325 H         1 UNK         0.0787 
    104 H104       25.4560  -31.4787  -38.3504 H         1 UNK         0.0787 
    105 H105       23.4034  -31.0505  -42.1874 H         1 UNK         0.3055 
    106 H106       24.7322  -33.4702  -42.7945 H         1 UNK         0.1106 
    107 H107       23.8593  -33.0925  -45.0810 H         1 UNK         0.0828 
    108 H108       22.6707  -31.9523  -44.4752 H         1 UNK         0.0828 
    109 H109       24.3904  -31.5658  -44.3944 H         1 UNK         0.0828 
    110 H110       21.5156  -33.0430  -41.6634 H         1 UNK         0.2931 
    111 H111       20.4923  -35.5897  -42.6568 H         1 UNK         0.0412 
    112 H112       22.2107  -36.2709  -39.1081 H         1 UNK         0.3472 
    113 H113       22.6255  -34.8741  -40.0717 H         1 UNK         0.3472 
    114 H114       18.4053  -35.0198  -41.5967 H         1 UNK         0.0970 
    115 H115       18.9327  -33.7046  -42.5796 H         1 UNK         0.0970 
    116 H116       20.7652  -31.6703  -40.8713 H         1 UNK         0.0612 
    117 H117       19.5763  -30.8593  -39.9030 H         1 UNK         0.0612 
@<TRIPOS>BOND
     1    1    2 1    
     2    1   62 1    
     3    1   63 1    
     4    1   64 1    
     5    2    3 2    
     6    2    4 am   BACKBONE|DICT|INTERRES
     7    4    5 1    
     8    4   65 1    
     9    5    6 1    
    10    5   25 1    
    11    5   66 1    
    12    6    7 1    
    13    6   67 1    
    14    6   68 1    
    15    7    8 1    
    16    8    9 1    
    17    8   69 1    
    18    8   70 1    
    19    9   10 ar   
    20    9   14 ar   
    21   10   11 ar   
    22   10   71 1    
    23   11   12 ar   
    24   11   61 1    
    25   12   13 ar   
    26   12   72 1    
    27   13   14 ar   
    28   13   15 1    
    29   14   73 1    
    30   15   16 1    
    31   15   74 1    
    32   15   75 1    
    33   16   17 1    
    34   17   18 1    
    35   17   76 1    
    36   17   77 1    
    37   18   19 1    
    38   18   27 1    
    39   18   78 1    
    40   19   20 am   BACKBONE|DICT|INTERRES
    41   19   79 1    
    42   20   21 2    
    43   20   22 1    
    44   22   23 1    
    45   22   24 1    
    46   22   80 1    
    47   23   81 1    
    48   23   82 1    
    49   23   83 1    
    50   24   25 am   BACKBONE|DICT|INTERRES
    51   24   84 1    
    52   25   26 2    
    53   27   28 2    
    54   27   29 am   BACKBONE|DICT|INTERRES
    55   29   30 1    
    56   29   85 1    
    57   30   31 1    
    58   30   32 1    
    59   30   86 1    
    60   31   87 1    
    61   31   88 1    
    62   31   89 1    
    63   32   33 2    
    64   32   34 am   BACKBONE|DICT|INTERRES
    65   34   35 1    
    66   34   90 1    
    67   35   36 1    
    68   35   37 1    
    69   35   91 1    
    70   36   92 1    
    71   36   93 1    
    72   36   94 1    
    73   37   38 2    
    74   37   39 am   BACKBONE|DICT|INTERRES
    75   39   40 1    
    76   39   95 1    
    77   40   41 1    
    78   40   42 1    
    79   40   96 1    
    80   41   97 1    
    81   41   98 1    
    82   41   99 1    
    83   42   43 2    
    84   42   44 am   BACKBONE|DICT|INTERRES
    85   44   45 1    
    86   44  100 1    
    87   45   46 1    
    88   45   47 1    
    89   45  101 1    
    90   46  102 1    
    91   46  103 1    
    92   46  104 1    
    93   47   48 2    
    94   47   49 am   BACKBONE|DICT|INTERRES
    95   49   50 1    
    96   49  105 1    
    97   50   51 1    
    98   50   52 1    
    99   50  106 1    
   100   51  107 1    
   101   51  108 1    
   102   51  109 1    
   103   52   53 2    
   104   52   54 am   BACKBONE|DICT|INTERRES
   105   54   55 1    
   106   54  110 1    
   107   55   56 1    
   108   55   59 1    
   109   55  111 1    
   110   56   57 am   BACKBONE|DICT|INTERRES
   111   56   58 2    
   112   57  112 1    
   113   57  113 1    
   114   59   60 1    
   115   59  114 1    
   116   59  115 1    
   117   60   61 1    
   118   61  116 1    
   119   61  117 1    
@<TRIPOS>SUBSTRUCTURE
     1 UNK         1 GROUP             0       ****    0 ROOT    
