@<TRIPOS>MOLECULE
3R8
117   119    1
SMALL
USER_CHARGES


@<TRIPOS>ATOM
      1 CA         14.9205  -25.2663  -41.1025 C.3       0 UNK        -0.2013 
      2 C          15.7134  -25.0032  -42.3741 C.2       0 UNK         0.4866 
      3 O          15.8563  -23.8488  -42.7793 O.2       0 UNK        -0.5176 
      4 N          16.2218  -26.0648  -43.0111 N.am      1 UNK        -0.4884 
      5 CA         17.0618  -25.9953  -44.2110 C.3       1 UNK         0.0853 
      6 C6         17.2193  -27.3811  -44.8785 C.3       10 UNK        -0.0849 
      7 S7         15.6592  -28.0314  -45.5662 S.3       10 UNK        -0.2776 
      8 C8         15.6837  -29.7738  -45.0028 C.3       10 UNK         0.0316 
      9 C9         16.9739  -30.5453  -45.2981 C.ar      10 UNK        -0.0863 
     10 C10        17.3287  -31.6107  -44.4628 C.ar      10 UNK        -0.1009 
     11 C11        18.5137  -32.3224  -44.6736 C.ar      10 UNK        -0.0712 
     12 C12        19.3605  -31.9510  -45.7208 C.ar      10 UNK        -0.0894 
     13 C13        19.0275  -30.8833  -46.5575 C.ar      10 UNK        -0.0745 
     14 C14        17.8171  -30.2123  -46.3670 C.ar      10 UNK        -0.0972 
     15 C15        20.0055  -30.4149  -47.6264 C.3       10 UNK         0.0209 
     16 S16        20.7227  -28.7814  -47.2303 S.3       10 UNK        -0.2568 
     17 C17        21.2817  -29.0235  -45.5078 C.3       10 UNK        -0.0983 
     18 CA         21.9879  -27.7880  -44.8973 C.3       3 UNK         0.0876 
     19 N          21.1930  -26.5646  -45.0552 N.am      3 UNK        -0.4424 
     20 C          21.5201  -25.3365  -44.6259 C.2       2 UNK         0.4918 
     21 O          22.5885  -25.0637  -44.0789 O.2       2 UNK        -0.4875 
     22 CA         20.4514  -24.2372  -44.7873 C.3       2 UNK         0.0481 
     23 CB         20.7429  -23.3898  -46.0354 C.3       2 UNK        -0.1831 
     24 N          19.0744  -24.7481  -44.8548 N.am      2 UNK        -0.4498 
     25 C          18.4606  -25.4385  -43.8811 C.2       1 UNK         0.5027 
     26 O          18.9922  -25.7179  -42.8038 O.2       1 UNK        -0.4969 
     27 C          22.3394  -28.0860  -43.4241 C.2       3 UNK         0.5005 
     28 O          23.4209  -28.6124  -43.1597 O.2       3 UNK        -0.5279 
     29 N          21.4482  -27.7082  -42.4911 N.am      4 UNK        -0.4463 
     30 CA         21.5899  -27.8960  -41.0427 C.3       4 UNK         0.0283 
     31 CB         20.2638  -27.5366  -40.3536 C.3       4 UNK        -0.1875 
     32 C          22.7645  -27.1268  -40.4021 C.2       4 UNK         0.4949 
     33 O          23.0784  -27.3712  -39.2373 O.2       4 UNK        -0.5039 
     34 N          23.4017  -26.2186  -41.1553 N.am      5 UNK        -0.4663 
     35 CA         24.6515  -25.5609  -40.7719 C.3       5 UNK         0.0242 
     36 CB         24.8323  -24.2967  -41.6275 C.3       5 UNK        -0.1982 
     37 C          25.8839  -26.4786  -40.9036 C.2       5 UNK         0.5017 
     38 O          26.9140  -26.1658  -40.3049 O.2       5 UNK        -0.5012 
     39 N          25.7762  -27.5649  -41.6839 N.am      6 UNK        -0.4439 
     40 CA         26.8584  -28.5155  -41.9540 C.3       6 UNK         0.0297 
     41 CB         27.2716  -28.4101  -43.4320 C.3       6 UNK        -0.2006 
     42 C          26.4537  -29.9550  -41.6047 C.2       6 UNK         0.4892 
     43 O          27.2285  -30.6557  -40.9519 O.2       6 UNK        -0.5089 
     44 N          25.2618  -30.3726  -42.0458 N.am      7 UNK        -0.4243 
     45 CA         24.6655  -31.6789  -41.7700 C.3       7 UNK         0.0196 
     46 CB         23.8821  -32.1164  -43.0207 C.3       7 UNK        -0.2007 
     47 C          23.7475  -31.5998  -40.5384 C.2       7 UNK         0.5020 
     48 O          23.5724  -30.5257  -39.9625 O.2       7 UNK        -0.5147 
     49 N          23.1546  -32.7351  -40.1567 N.am      8 UNK        -0.4734 
     50 CA         22.1686  -32.8231  -39.0819 C.3       8 UNK         0.0238 
     51 CB         22.8775  -32.8882  -37.7135 C.3       8 UNK        -0.1912 
     52 C          21.2932  -34.0630  -39.3267 C.2       8 UNK         0.5038 
     53 O          21.7706  -35.1650  -39.0566 O.2       8 UNK        -0.5046 
     54 N          20.0584  -33.9578  -39.8416 N.am      9 UNK        -0.4200 
     55 CA         19.3071  -32.7772  -40.3190 C.3       9 UNK         0.0839 
     56 C          18.8572  -31.7762  -39.2141 C.2       9 UNK         0.5513 
     57 N          18.8898  -32.1508  -37.9414 N.am      9 UNK        -0.7519 
     58 O          18.4642  -30.6523  -39.5118 O.2       9 UNK        -0.4960 
     59 C59        19.9275  -32.0774  -41.5662 C.3       10 UNK        -0.0876 
     60 S60        20.4311  -33.2475  -42.8741 S.3       10 UNK        -0.2414 
     61 C61        18.8749  -33.5037  -43.7843 C.3       10 UNK         0.0169 
     62 H62        13.9042  -24.8878  -41.2086 H         1 UNK         0.0903 
     63 H63        14.8637  -26.3295  -40.8695 H         1 UNK         0.0903 
     64 H64        15.3871  -24.7591  -40.2585 H         1 UNK         0.0903 
     65 H65        16.0837  -26.9887  -42.6282 H         1 UNK         0.3096 
     66 H66        16.5823  -25.3152  -44.9191 H         1 UNK         0.1121 
     67 H67        17.6381  -28.0957  -44.1665 H         1 UNK         0.0849 
     68 H68        17.9285  -27.3321  -45.7073 H         1 UNK         0.0849 
     69 H69        15.4905  -29.7797  -43.9288 H         1 UNK         0.0865 
     70 H70        14.8495  -30.3011  -45.4672 H         1 UNK         0.0865 
     71 H71        16.6789  -31.8879  -43.6437 H         1 UNK         0.1346 
     72 H72        20.2913  -32.4823  -45.8666 H         1 UNK         0.1412 
     73 H73        17.5651  -29.3957  -47.0287 H         1 UNK         0.1426 
     74 H74        19.4938  -30.3570  -48.5880 H         1 UNK         0.0716 
     75 H75        20.8160  -31.1345  -47.7514 H         1 UNK         0.0716 
     76 H76        21.9437  -29.8918  -45.4828 H         1 UNK         0.0695 
     77 H77        20.4104  -29.2838  -44.9032 H         1 UNK         0.0695 
     78 H78        22.9287  -27.6295  -45.4284 H         1 UNK         0.0983 
     79 H79        20.3139  -26.6801  -45.5354 H         1 UNK         0.3095 
     80 H80        20.5188  -23.5888  -43.9114 H         1 UNK         0.0454 
     81 H81        20.0533  -22.5494  -46.1162 H         1 UNK         0.0851 
     82 H82        20.6677  -23.9775  -46.9512 H         1 UNK         0.0851 
     83 H83        21.7512  -22.9745  -45.9978 H         1 UNK         0.0851 
     84 H84        18.5739  -24.5685  -45.7142 H         1 UNK         0.2976 
     85 H85        20.6133  -27.2181  -42.7909 H         1 UNK         0.3116 
     86 H86        21.7702  -28.9582  -40.8772 H         1 UNK         0.0646 
     87 H87        19.4297  -28.1011  -40.7712 H         1 UNK         0.0847 
     88 H88        20.0350  -26.4746  -40.4482 H         1 UNK         0.0847 
     89 H89        20.3041  -27.7670  -39.2882 H         1 UNK         0.0847 
     90 H90        23.0646  -26.0405  -42.0939 H         1 UNK         0.3040 
     91 H91        24.5797  -25.2580  -39.7247 H         1 UNK         0.1015 
     92 H92        25.7264  -23.7474  -41.3292 H         1 UNK         0.0786 
     93 H93        23.9850  -23.6190  -41.5205 H         1 UNK         0.0786 
     94 H94        24.9365  -24.5381  -42.6862 H         1 UNK         0.0786 
     95 H95        24.8767  -27.7681  -42.1096 H         1 UNK         0.3172 
     96 H96        27.7334  -28.2770  -41.3459 H         1 UNK         0.0595 
     97 H97        26.4365  -28.6170  -44.1027 H         1 UNK         0.0839 
     98 H98        28.0653  -29.1204  -43.6680 H         1 UNK         0.0839 
     99 H99        27.6484  -27.4143  -43.6659 H         1 UNK         0.0839 
    100 H100       24.6495  -29.7119  -42.5213 H         1 UNK         0.2998 
    101 H101       25.4489  -32.4124  -41.5684 H         1 UNK         0.0822 
    102 H102       23.0306  -31.4615  -43.2122 H         1 UNK         0.0787 
    103 H103       23.4990  -33.1315  -42.9155 H         1 UNK         0.0787 
    104 H104       24.5151  -32.1058  -43.9082 H         1 UNK         0.0787 
    105 H105       23.3186  -33.5893  -40.6736 H         1 UNK         0.3055 
    106 H106       21.5562  -31.9235  -39.0841 H         1 UNK         0.1106 
    107 H107       23.5751  -33.7245  -37.6559 H         1 UNK         0.0828 
    108 H108       22.1543  -33.0072  -36.9058 H         1 UNK         0.0828 
    109 H109       23.4368  -31.9745  -37.5120 H         1 UNK         0.0828 
    110 H110       19.5508  -34.8223  -39.9560 H         1 UNK         0.2931 
    111 H111       18.3633  -33.2023  -40.6617 H         1 UNK         0.0412 
    112 H112       19.1643  -33.0856  -37.6840 H         1 UNK         0.3472 
    113 H113       18.5896  -31.5011  -37.2311 H         1 UNK         0.3472 
    114 H114       19.2204  -31.3642  -41.9941 H         1 UNK         0.0970 
    115 H115       20.7994  -31.4859  -41.2878 H         1 UNK         0.0970 
    116 H116       18.0743  -33.7260  -43.0776 H         1 UNK         0.0612 
    117 H117       18.9831  -34.3901  -44.4106 H         1 UNK         0.0612 
@<TRIPOS>BOND
     1    1    2 1    
     2    1   62 1    
     3    1   63 1    
     4    1   64 1    
     5    2    3 2    
     6    2    4 am   BACKBONE|DICT|INTERRES
     7    4    5 1    
     8    4   65 1    
     9    5    6 1    
    10    5   25 1    
    11    5   66 1    
    12    6    7 1    
    13    6   67 1    
    14    6   68 1    
    15    7    8 1    
    16    8    9 1    
    17    8   69 1    
    18    8   70 1    
    19    9   10 ar   
    20    9   14 ar   
    21   10   11 ar   
    22   10   71 1    
    23   11   12 ar   
    24   11   61 1    
    25   12   13 ar   
    26   12   72 1    
    27   13   14 ar   
    28   13   15 1    
    29   14   73 1    
    30   15   16 1    
    31   15   74 1    
    32   15   75 1    
    33   16   17 1    
    34   17   18 1    
    35   17   76 1    
    36   17   77 1    
    37   18   19 1    
    38   18   27 1    
    39   18   78 1    
    40   19   20 am   BACKBONE|DICT|INTERRES
    41   19   79 1    
    42   20   21 2    
    43   20   22 1    
    44   22   23 1    
    45   22   24 1    
    46   22   80 1    
    47   23   81 1    
    48   23   82 1    
    49   23   83 1    
    50   24   25 am   BACKBONE|DICT|INTERRES
    51   24   84 1    
    52   25   26 2    
    53   27   28 2    
    54   27   29 am   BACKBONE|DICT|INTERRES
    55   29   30 1    
    56   29   85 1    
    57   30   31 1    
    58   30   32 1    
    59   30   86 1    
    60   31   87 1    
    61   31   88 1    
    62   31   89 1    
    63   32   33 2    
    64   32   34 am   BACKBONE|DICT|INTERRES
    65   34   35 1    
    66   34   90 1    
    67   35   36 1    
    68   35   37 1    
    69   35   91 1    
    70   36   92 1    
    71   36   93 1    
    72   36   94 1    
    73   37   38 2    
    74   37   39 am   BACKBONE|DICT|INTERRES
    75   39   40 1    
    76   39   95 1    
    77   40   41 1    
    78   40   42 1    
    79   40   96 1    
    80   41   97 1    
    81   41   98 1    
    82   41   99 1    
    83   42   43 2    
    84   42   44 am   BACKBONE|DICT|INTERRES
    85   44   45 1    
    86   44  100 1    
    87   45   46 1    
    88   45   47 1    
    89   45  101 1    
    90   46  102 1    
    91   46  103 1    
    92   46  104 1    
    93   47   48 2    
    94   47   49 am   BACKBONE|DICT|INTERRES
    95   49   50 1    
    96   49  105 1    
    97   50   51 1    
    98   50   52 1    
    99   50  106 1    
   100   51  107 1    
   101   51  108 1    
   102   51  109 1    
   103   52   53 2    
   104   52   54 am   BACKBONE|DICT|INTERRES
   105   54   55 1    
   106   54  110 1    
   107   55   56 1    
   108   55   59 1    
   109   55  111 1    
   110   56   57 am   BACKBONE|DICT|INTERRES
   111   56   58 2    
   112   57  112 1    
   113   57  113 1    
   114   59   60 1    
   115   59  114 1    
   116   59  115 1    
   117   60   61 1    
   118   61  116 1    
   119   61  117 1    
@<TRIPOS>SUBSTRUCTURE
     1 UNK         1 GROUP             0       ****    0 ROOT    
