@<TRIPOS>MOLECULE
3R8
117   119    1
SMALL
USER_CHARGES


@<TRIPOS>ATOM
      1 CA         13.9417  -23.7898  -46.0103 C.3       0 UNK        -0.2013 
      2 C          14.9666  -24.9056  -46.1493 C.2       0 UNK         0.4866 
      3 O          15.2769  -25.3136  -47.2685 O.2       0 UNK        -0.5176 
      4 N          15.4866  -25.4050  -45.0203 N.am      1 UNK        -0.4884 
      5 CA         16.4975  -26.4677  -44.9538 C.3       1 UNK         0.0853 
      6 C6         16.7108  -26.9623  -43.5017 C.3       10 UNK        -0.0849 
      7 S7         15.4363  -28.1560  -42.9716 S.3       10 UNK        -0.2776 
      8 C8         16.1172  -29.7545  -43.5499 C.3       10 UNK         0.0316 
      9 C9         17.5873  -29.9442  -43.1932 C.ar      10 UNK        -0.0863 
     10 C10        17.9963  -29.9384  -41.8559 C.ar      10 UNK        -0.1009 
     11 C11        19.3519  -30.0268  -41.5271 C.ar      10 UNK        -0.0712 
     12 C12        20.2983  -30.1430  -42.5494 C.ar      10 UNK        -0.0894 
     13 C13        19.9021  -30.1870  -43.8888 C.ar      10 UNK        -0.0745 
     14 C14        18.5446  -30.0806  -44.2048 C.ar      10 UNK        -0.0972 
     15 C15        20.9363  -30.3739  -44.9919 C.3       10 UNK         0.0209 
     16 S16        21.3470  -28.8142  -45.8372 S.3       10 UNK        -0.2568 
     17 C17        22.3278  -27.9753  -44.5520 C.3       10 UNK        -0.0983 
     18 CA         22.8488  -26.5731  -44.9857 C.3       3 UNK         0.0876 
     19 N          21.7725  -25.6624  -45.4220 N.am      3 UNK        -0.4424 
     20 C          20.7282  -25.2364  -44.6947 C.2       2 UNK         0.4918 
     21 O          20.5858  -25.4877  -43.4957 O.2       2 UNK        -0.4875 
     22 CA         19.6823  -24.3388  -45.3929 C.3       2 UNK         0.0481 
     23 CB         19.9441  -24.0813  -46.8953 C.3       2 UNK        -0.1831 
     24 N          18.3264  -24.8496  -45.1652 N.am      2 UNK        -0.4498 
     25 C          17.8491  -26.0418  -45.5569 C.2       1 UNK         0.5027 
     26 O          18.4293  -26.8048  -46.3294 O.2       1 UNK        -0.4969 
     27 C          23.7655  -25.9821  -43.8873 C.2       3 UNK         0.5005 
     28 O          24.5871  -26.7153  -43.3363 O.2       3 UNK        -0.5279 
     29 N          23.5787  -24.7000  -43.5285 N.am      4 UNK        -0.4463 
     30 CA         24.1420  -24.0167  -42.3521 C.3       4 UNK         0.0283 
     31 CB         25.6594  -23.7959  -42.5275 C.3       4 UNK        -0.1875 
     32 C          23.8014  -24.7199  -41.0163 C.2       4 UNK         0.4949 
     33 O          24.5409  -24.5691  -40.0433 O.2       4 UNK        -0.5039 
     34 N          22.7100  -25.5052  -41.0123 N.am      5 UNK        -0.4663 
     35 CA         22.2800  -26.4463  -39.9694 C.3       5 UNK         0.0242 
     36 CB         21.8263  -25.6874  -38.7044 C.3       5 UNK        -0.1982 
     37 C          23.3040  -27.5646  -39.6568 C.2       5 UNK         0.5017 
     38 O          23.2393  -28.1510  -38.5748 O.2       5 UNK        -0.5012 
     39 N          24.2263  -27.8427  -40.5893 N.am      6 UNK        -0.4439 
     40 CA         25.2578  -28.8751  -40.4777 C.3       6 UNK         0.0297 
     41 CB         26.5523  -28.3367  -41.1155 C.3       6 UNK        -0.2006 
     42 C          24.8085  -30.1827  -41.1538 C.2       6 UNK         0.4892 
     43 O          23.7392  -30.2295  -41.7635 O.2       6 UNK        -0.5089 
     44 N          25.6641  -31.2098  -41.0501 N.am      7 UNK        -0.4243 
     45 CA         25.4868  -32.5815  -41.5460 C.3       7 UNK         0.0196 
     46 CB         25.1800  -32.6136  -43.0628 C.3       7 UNK        -0.2007 
     47 C          24.4905  -33.3916  -40.6923 C.2       7 UNK         0.5020 
     48 O          24.2206  -33.0271  -39.5462 O.2       7 UNK        -0.5147 
     49 N          24.0209  -34.5229  -41.2357 N.am      8 UNK        -0.4734 
     50 CA         23.1802  -35.5003  -40.5337 C.3       8 UNK         0.0238 
     51 CB         23.2508  -36.8454  -41.2763 C.3       8 UNK        -0.1912 
     52 C          21.7147  -35.0664  -40.3544 C.2       8 UNK         0.5038 
     53 O          21.0445  -35.5995  -39.4690 O.2       8 UNK        -0.5046 
     54 N          21.2441  -34.1359  -41.1964 N.am      9 UNK        -0.4200 
     55 CA         19.8742  -33.5869  -41.2074 C.3       9 UNK         0.0839 
     56 C          18.7668  -34.6078  -41.6122 C.2       9 UNK         0.5513 
     57 N          19.0989  -35.7113  -42.2722 N.am      9 UNK        -0.7519 
     58 O          17.5859  -34.3901  -41.3529 O.2       9 UNK        -0.4960 
     59 C59        19.5202  -32.7973  -39.9114 C.3       10 UNK        -0.0876 
     60 S60        20.7152  -31.4628  -39.5553 S.3       10 UNK        -0.2414 
     61 C61        19.7908  -29.9796  -40.0684 C.3       10 UNK         0.0169 
     62 H62        14.2910  -22.8939  -46.5230 H         1 UNK         0.0903 
     63 H63        12.9955  -24.0918  -46.4586 H         1 UNK         0.0903 
     64 H64        13.7556  -23.5328  -44.9677 H         1 UNK         0.0903 
     65 H65        15.1680  -25.0470  -44.1307 H         1 UNK         0.3096 
     66 H66        16.1424  -27.3031  -45.5618 H         1 UNK         0.1121 
     67 H67        17.6985  -27.4043  -43.3639 H         1 UNK         0.0849 
     68 H68        16.6966  -26.1207  -42.8068 H         1 UNK         0.0849 
     69 H69        15.5360  -30.5671  -43.1119 H         1 UNK         0.0865 
     70 H70        15.9714  -29.8243  -44.6290 H         1 UNK         0.0865 
     71 H71        17.2566  -29.8315  -41.0741 H         1 UNK         0.1346 
     72 H72        21.3451  -30.2172  -42.2966 H         1 UNK         0.1412 
     73 H73        18.2400  -30.0882  -45.2427 H         1 UNK         0.1426 
     74 H74        20.5514  -31.0797  -45.7293 H         1 UNK         0.0716 
     75 H75        21.8483  -30.8210  -44.5924 H         1 UNK         0.0716 
     76 H76        23.1593  -28.6370  -44.3004 H         1 UNK         0.0695 
     77 H77        21.7223  -27.8959  -43.6479 H         1 UNK         0.0695 
     78 H78        23.4939  -26.7152  -45.8541 H         1 UNK         0.0983 
     79 H79        21.8050  -25.3984  -46.3962 H         1 UNK         0.3095 
     80 H80        19.7290  -23.3740  -44.8862 H         1 UNK         0.0454 
     81 H81        19.9679  -25.0018  -47.4794 H         1 UNK         0.0851 
     82 H82        20.8918  -23.5639  -47.0491 H         1 UNK         0.0851 
     83 H83        19.1673  -23.4462  -47.3212 H         1 UNK         0.0851 
     84 H84        17.7617  -24.3106  -44.5240 H         1 UNK         0.2976 
     85 H85        22.8783  -24.1804  -44.0386 H         1 UNK         0.3116 
     86 H86        23.6656  -23.0363  -42.3084 H         1 UNK         0.0646 
     87 H87        26.2110  -24.7363  -42.5016 H         1 UNK         0.0847 
     88 H88        26.0584  -23.1650  -41.7323 H         1 UNK         0.0847 
     89 H89        25.8829  -23.3017  -43.4728 H         1 UNK         0.0847 
     90 H90        22.1554  -25.5279  -41.8611 H         1 UNK         0.3040 
     91 H91        21.4054  -26.9550  -40.3774 H         1 UNK         0.1015 
     92 H92        21.0926  -24.9180  -38.9448 H         1 UNK         0.0786 
     93 H93        22.6642  -25.2069  -38.1987 H         1 UNK         0.0786 
     94 H94        21.3592  -26.3637  -37.9873 H         1 UNK         0.0786 
     95 H95        24.1932  -27.3550  -41.4799 H         1 UNK         0.3172 
     96 H96        25.4552  -29.0876  -39.4251 H         1 UNK         0.0595 
     97 H97        26.4534  -28.2235  -42.1957 H         1 UNK         0.0839 
     98 H98        27.3943  -29.0056  -40.9356 H         1 UNK         0.0839 
     99 H99        26.8231  -27.3644  -40.7030 H         1 UNK         0.0839 
    100 H100       26.4989  -31.0648  -40.4998 H         1 UNK         0.2998 
    101 H101       26.4549  -33.0643  -41.4039 H         1 UNK         0.0822 
    102 H102       25.8397  -31.9422  -43.6127 H         1 UNK         0.0787 
    103 H103       25.3284  -33.6103  -43.4788 H         1 UNK         0.0787 
    104 H104       24.1525  -32.3184  -43.2790 H         1 UNK         0.0787 
    105 H105       24.3037  -34.7590  -42.1763 H         1 UNK         0.3055 
    106 H106       23.5910  -35.6449  -39.5315 H         1 UNK         0.1106 
    107 H107       22.6559  -37.6051  -40.7669 H         1 UNK         0.0828 
    108 H108       22.8727  -36.7665  -42.2962 H         1 UNK         0.0828 
    109 H109       24.2737  -37.2195  -41.3244 H         1 UNK         0.0828 
    110 H110       21.8765  -33.7560  -41.8844 H         1 UNK         0.2931 
    111 H111       19.8716  -32.8689  -42.0267 H         1 UNK         0.0412 
    112 H112       20.0608  -35.8999  -42.5032 H         1 UNK         0.3472 
    113 H113       18.3774  -36.3629  -42.5390 H         1 UNK         0.3472 
    114 H114       19.4859  -33.4678  -39.0517 H         1 UNK         0.0970 
    115 H115       18.5222  -32.3620  -39.9854 H         1 UNK         0.0970 
    116 H116       18.9326  -29.8551  -39.4064 H         1 UNK         0.0612 
    117 H117       20.4254  -29.1068  -39.9168 H         1 UNK         0.0612 
@<TRIPOS>BOND
     1    1    2 1    
     2    1   62 1    
     3    1   63 1    
     4    1   64 1    
     5    2    3 2    
     6    2    4 am   BACKBONE|DICT|INTERRES
     7    4    5 1    
     8    4   65 1    
     9    5    6 1    
    10    5   25 1    
    11    5   66 1    
    12    6    7 1    
    13    6   67 1    
    14    6   68 1    
    15    7    8 1    
    16    8    9 1    
    17    8   69 1    
    18    8   70 1    
    19    9   10 ar   
    20    9   14 ar   
    21   10   11 ar   
    22   10   71 1    
    23   11   12 ar   
    24   11   61 1    
    25   12   13 ar   
    26   12   72 1    
    27   13   14 ar   
    28   13   15 1    
    29   14   73 1    
    30   15   16 1    
    31   15   74 1    
    32   15   75 1    
    33   16   17 1    
    34   17   18 1    
    35   17   76 1    
    36   17   77 1    
    37   18   19 1    
    38   18   27 1    
    39   18   78 1    
    40   19   20 am   BACKBONE|DICT|INTERRES
    41   19   79 1    
    42   20   21 2    
    43   20   22 1    
    44   22   23 1    
    45   22   24 1    
    46   22   80 1    
    47   23   81 1    
    48   23   82 1    
    49   23   83 1    
    50   24   25 am   BACKBONE|DICT|INTERRES
    51   24   84 1    
    52   25   26 2    
    53   27   28 2    
    54   27   29 am   BACKBONE|DICT|INTERRES
    55   29   30 1    
    56   29   85 1    
    57   30   31 1    
    58   30   32 1    
    59   30   86 1    
    60   31   87 1    
    61   31   88 1    
    62   31   89 1    
    63   32   33 2    
    64   32   34 am   BACKBONE|DICT|INTERRES
    65   34   35 1    
    66   34   90 1    
    67   35   36 1    
    68   35   37 1    
    69   35   91 1    
    70   36   92 1    
    71   36   93 1    
    72   36   94 1    
    73   37   38 2    
    74   37   39 am   BACKBONE|DICT|INTERRES
    75   39   40 1    
    76   39   95 1    
    77   40   41 1    
    78   40   42 1    
    79   40   96 1    
    80   41   97 1    
    81   41   98 1    
    82   41   99 1    
    83   42   43 2    
    84   42   44 am   BACKBONE|DICT|INTERRES
    85   44   45 1    
    86   44  100 1    
    87   45   46 1    
    88   45   47 1    
    89   45  101 1    
    90   46  102 1    
    91   46  103 1    
    92   46  104 1    
    93   47   48 2    
    94   47   49 am   BACKBONE|DICT|INTERRES
    95   49   50 1    
    96   49  105 1    
    97   50   51 1    
    98   50   52 1    
    99   50  106 1    
   100   51  107 1    
   101   51  108 1    
   102   51  109 1    
   103   52   53 2    
   104   52   54 am   BACKBONE|DICT|INTERRES
   105   54   55 1    
   106   54  110 1    
   107   55   56 1    
   108   55   59 1    
   109   55  111 1    
   110   56   57 am   BACKBONE|DICT|INTERRES
   111   56   58 2    
   112   57  112 1    
   113   57  113 1    
   114   59   60 1    
   115   59  114 1    
   116   59  115 1    
   117   60   61 1    
   118   61  116 1    
   119   61  117 1    
@<TRIPOS>SUBSTRUCTURE
     1 UNK         1 GROUP             0       ****    0 ROOT    
