@<TRIPOS>MOLECULE
3R8
117   119    1
SMALL
USER_CHARGES


@<TRIPOS>ATOM
      1 CA         21.0021  -26.5689  -49.3627 C.3       0 UNK        -0.2013 
      2 C          21.4398  -27.3080  -48.1071 C.2       0 UNK         0.4866 
      3 O          22.6364  -27.3864  -47.8292 O.2       0 UNK        -0.5176 
      4 N          20.4794  -27.8526  -47.3483 N.am      1 UNK        -0.4884 
      5 CA         20.7190  -28.6078  -46.1115 C.3       1 UNK         0.0853 
      6 C6         19.4548  -29.3632  -45.6474 C.3       10 UNK        -0.0849 
      7 S7         18.9377  -30.6986  -46.7815 S.3       10 UNK        -0.2776 
      8 C8         17.2259  -31.0623  -46.2399 C.3       10 UNK         0.0316 
      9 C9         17.0036  -30.7945  -44.7563 C.ar      10 UNK        -0.0863 
     10 C10        17.6070  -31.6040  -43.7906 C.ar      10 UNK        -0.1009 
     11 C11        17.5081  -31.2814  -42.4334 C.ar      10 UNK        -0.0712 
     12 C12        16.7691  -30.1607  -42.0396 C.ar      10 UNK        -0.0894 
     13 C13        16.1355  -29.3635  -42.9980 C.ar      10 UNK        -0.0745 
     14 C14        16.2522  -29.6883  -44.3519 C.ar      10 UNK        -0.0972 
     15 C15        15.3337  -28.1386  -42.5916 C.3       10 UNK         0.0209 
     16 S16        16.2904  -26.6107  -42.8497 S.3       10 UNK        -0.2568 
     17 C17        17.0993  -26.3729  -41.2311 C.3       10 UNK        -0.0983 
     18 CA         18.6209  -26.6741  -41.2212 C.3       3 UNK         0.0876 
     19 N          19.3239  -26.0144  -42.3358 N.am      3 UNK        -0.4424 
     20 C          20.6475  -25.9096  -42.5220 C.2       2 UNK         0.4918 
     21 O          21.4913  -26.2120  -41.6802 O.2       2 UNK        -0.4875 
     22 CA         21.1025  -25.4347  -43.9136 C.3       2 UNK         0.0481 
     23 CB         22.5915  -25.0301  -43.9412 C.3       2 UNK        -0.1831 
     24 N          20.8290  -26.4475  -44.9405 N.am      2 UNK        -0.4498 
     25 C          21.2281  -27.7320  -44.9494 C.2       1 UNK         0.5027 
     26 O          21.9386  -28.2507  -44.0855 O.2       1 UNK        -0.4969 
     27 C          19.1780  -26.3705  -39.8118 C.2       3 UNK         0.5005 
     28 O          19.2792  -27.2831  -38.9911 O.2       3 UNK        -0.5279 
     29 N          19.5186  -25.0982  -39.5572 N.am      4 UNK        -0.4463 
     30 CA         20.0531  -24.6205  -38.2783 C.3       4 UNK         0.0283 
     31 CB         19.9170  -23.0907  -38.2127 C.3       4 UNK        -0.1875 
     32 C          21.5130  -25.0374  -38.0230 C.2       4 UNK         0.4949 
     33 O          21.8989  -25.1851  -36.8631 O.2       4 UNK        -0.5039 
     34 N          22.2974  -25.2048  -39.0951 N.am      5 UNK        -0.4663 
     35 CA         23.6948  -25.6408  -39.0433 C.3       5 UNK         0.0242 
     36 CB         24.4759  -24.9634  -40.1820 C.3       5 UNK        -0.1982 
     37 C          23.8223  -27.1682  -39.1510 C.2       5 UNK         0.5017 
     38 O          24.7495  -27.7312  -38.5688 O.2       5 UNK        -0.5012 
     39 N          22.8988  -27.7922  -39.8986 N.am      6 UNK        -0.4439 
     40 CA         22.8446  -29.2041  -40.2826 C.3       6 UNK         0.0297 
     41 CB         22.6310  -30.1125  -39.0538 C.3       6 UNK        -0.2006 
     42 C          24.0706  -29.5905  -41.1270 C.2       6 UNK         0.4892 
     43 O          24.8796  -30.4198  -40.7070 O.2       6 UNK        -0.5089 
     44 N          24.1993  -28.9460  -42.2966 N.am      7 UNK        -0.4243 
     45 CA         25.2683  -29.2087  -43.2653 C.3       7 UNK         0.0196 
     46 CB         25.3716  -28.0370  -44.2556 C.3       7 UNK        -0.2007 
     47 C          25.0652  -30.5407  -44.0082 C.2       7 UNK         0.5020 
     48 O          26.0502  -31.1792  -44.3807 O.2       7 UNK        -0.5147 
     49 N          23.7996  -30.9389  -44.1880 N.am      8 UNK        -0.4734 
     50 CA         23.3917  -32.2627  -44.6547 C.3       8 UNK         0.0238 
     51 CB         22.3547  -32.1011  -45.7843 C.3       8 UNK        -0.1912 
     52 C          22.8869  -33.0610  -43.4386 C.2       8 UNK         0.5038 
     53 O          23.6581  -33.2672  -42.4999 O.2       8 UNK        -0.5046 
     54 N          21.6130  -33.4748  -43.4626 N.am      9 UNK        -0.4200 
     55 CA         20.9123  -34.2084  -42.3945 C.3       9 UNK         0.0839 
     56 C          21.4816  -35.6415  -42.1560 C.2       9 UNK         0.5513 
     57 N          21.1639  -36.2813  -41.0376 N.am      9 UNK        -0.7519 
     58 O          22.1672  -36.2111  -43.0034 O.2       9 UNK        -0.4960 
     59 C59        20.7432  -33.3681  -41.0893 C.3       10 UNK        -0.0876 
     60 S60        20.0080  -31.7237  -41.3880 S.3       10 UNK        -0.2414 
     61 C61        18.2349  -32.1316  -41.4060 C.3       10 UNK         0.0169 
     62 H62        21.4502  -27.0284  -50.2433 H         1 UNK         0.0903 
     63 H63        19.9195  -26.5814  -49.4880 H         1 UNK         0.0903 
     64 H64        21.3266  -25.5296  -49.3184 H         1 UNK         0.0903 
     65 H65        19.5149  -27.7887  -47.6429 H         1 UNK         0.3096 
     66 H66        21.5062  -29.3354  -46.3171 H         1 UNK         0.1121 
     67 H67        19.6253  -29.8215  -44.6702 H         1 UNK         0.0849 
     68 H68        18.6288  -28.6616  -45.5166 H         1 UNK         0.0849 
     69 H69        16.5376  -30.4668  -46.8416 H         1 UNK         0.0865 
     70 H70        16.9954  -32.1053  -46.4613 H         1 UNK         0.0865 
     71 H71        18.2013  -32.4533  -44.0988 H         1 UNK         0.1346 
     72 H72        16.6975  -29.9031  -40.9917 H         1 UNK         0.1412 
     73 H73        15.7863  -29.0525  -45.0929 H         1 UNK         0.1426 
     74 H74        14.9939  -28.2151  -41.5579 H         1 UNK         0.0716 
     75 H75        14.4287  -28.0864  -43.1988 H         1 UNK         0.0716 
     76 H76        16.5904  -26.9790  -40.4794 H         1 UNK         0.0695 
     77 H77        16.9187  -25.3349  -40.9439 H         1 UNK         0.0695 
     78 H78        18.7507  -27.7466  -41.3829 H         1 UNK         0.0983 
     79 H79        18.7202  -25.7421  -43.0986 H         1 UNK         0.3095 
     80 H80        20.5116  -24.5531  -44.1659 H         1 UNK         0.0454 
     81 H81        23.2463  -25.8637  -43.6872 H         1 UNK         0.0851 
     82 H82        22.7912  -24.2316  -43.2258 H         1 UNK         0.0851 
     83 H83        22.8846  -24.6654  -44.9255 H         1 UNK         0.0851 
     84 H84        20.2448  -26.1464  -45.7078 H         1 UNK         0.2976 
     85 H85        19.4039  -24.4151  -40.2923 H         1 UNK         0.3116 
     86 H86        19.4465  -25.0473  -37.4764 H         1 UNK         0.0646 
     87 H87        20.4909  -22.5985  -38.9988 H         1 UNK         0.0847 
     88 H88        20.2801  -22.7080  -37.2577 H         1 UNK         0.0847 
     89 H89        18.8768  -22.7790  -38.3087 H         1 UNK         0.0847 
     90 H90        21.8808  -25.1358  -40.0165 H         1 UNK         0.3040 
     91 H91        24.1418  -25.3342  -38.0946 H         1 UNK         0.1015 
     92 H92        24.0913  -25.2469  -41.1624 H         1 UNK         0.0786 
     93 H93        25.5294  -25.2450  -40.1525 H         1 UNK         0.0786 
     94 H94        24.4285  -23.8771  -40.1039 H         1 UNK         0.0786 
     95 H95        22.2394  -27.1948  -40.3946 H         1 UNK         0.3172 
     96 H96        21.9713  -29.3131  -40.9280 H         1 UNK         0.0595 
     97 H97        23.4684  -30.0664  -38.3574 H         1 UNK         0.0839 
     98 H98        22.5214  -31.1535  -39.3590 H         1 UNK         0.0839 
     99 H99        21.7261  -29.8360  -38.5126 H         1 UNK         0.0839 
    100 H100       23.4593  -28.3205  -42.5977 H         1 UNK         0.2998 
    101 H101       26.2128  -29.2747  -42.7208 H         1 UNK         0.0822 
    102 H102       25.5440  -27.0934  -43.7379 H         1 UNK         0.0787 
    103 H103       26.2042  -28.1853  -44.9445 H         1 UNK         0.0787 
    104 H104       24.4693  -27.9313  -44.8585 H         1 UNK         0.0787 
    105 H105       23.0668  -30.3354  -43.8372 H         1 UNK         0.3055 
    106 H106       24.2476  -32.8089  -45.0576 H         1 UNK         0.1106 
    107 H107       22.0604  -33.0682  -46.1944 H         1 UNK         0.0828 
    108 H108       21.4541  -31.5939  -45.4400 H         1 UNK         0.0828 
    109 H109       22.7653  -31.5210  -46.6110 H         1 UNK         0.0828 
    110 H110       21.0652  -33.2828  -44.2872 H         1 UNK         0.2931 
    111 H111       19.9135  -34.3818  -42.7959 H         1 UNK         0.0412 
    112 H112       20.5787  -35.8582  -40.3352 H         1 UNK         0.3472 
    113 H113       21.5159  -37.2156  -40.8958 H         1 UNK         0.3472 
    114 H114       21.7105  -33.2249  -40.6052 H         1 UNK         0.0970 
    115 H115       20.1186  -33.8881  -40.3619 H         1 UNK         0.0970 
    116 H116       17.8208  -31.9814  -40.4079 H         1 UNK         0.0612 
    117 H117       18.0881  -33.1851  -41.6475 H         1 UNK         0.0612 
@<TRIPOS>BOND
     1    1    2 1    
     2    1   62 1    
     3    1   63 1    
     4    1   64 1    
     5    2    3 2    
     6    2    4 am   BACKBONE|DICT|INTERRES
     7    4    5 1    
     8    4   65 1    
     9    5    6 1    
    10    5   25 1    
    11    5   66 1    
    12    6    7 1    
    13    6   67 1    
    14    6   68 1    
    15    7    8 1    
    16    8    9 1    
    17    8   69 1    
    18    8   70 1    
    19    9   10 ar   
    20    9   14 ar   
    21   10   11 ar   
    22   10   71 1    
    23   11   12 ar   
    24   11   61 1    
    25   12   13 ar   
    26   12   72 1    
    27   13   14 ar   
    28   13   15 1    
    29   14   73 1    
    30   15   16 1    
    31   15   74 1    
    32   15   75 1    
    33   16   17 1    
    34   17   18 1    
    35   17   76 1    
    36   17   77 1    
    37   18   19 1    
    38   18   27 1    
    39   18   78 1    
    40   19   20 am   BACKBONE|DICT|INTERRES
    41   19   79 1    
    42   20   21 2    
    43   20   22 1    
    44   22   23 1    
    45   22   24 1    
    46   22   80 1    
    47   23   81 1    
    48   23   82 1    
    49   23   83 1    
    50   24   25 am   BACKBONE|DICT|INTERRES
    51   24   84 1    
    52   25   26 2    
    53   27   28 2    
    54   27   29 am   BACKBONE|DICT|INTERRES
    55   29   30 1    
    56   29   85 1    
    57   30   31 1    
    58   30   32 1    
    59   30   86 1    
    60   31   87 1    
    61   31   88 1    
    62   31   89 1    
    63   32   33 2    
    64   32   34 am   BACKBONE|DICT|INTERRES
    65   34   35 1    
    66   34   90 1    
    67   35   36 1    
    68   35   37 1    
    69   35   91 1    
    70   36   92 1    
    71   36   93 1    
    72   36   94 1    
    73   37   38 2    
    74   37   39 am   BACKBONE|DICT|INTERRES
    75   39   40 1    
    76   39   95 1    
    77   40   41 1    
    78   40   42 1    
    79   40   96 1    
    80   41   97 1    
    81   41   98 1    
    82   41   99 1    
    83   42   43 2    
    84   42   44 am   BACKBONE|DICT|INTERRES
    85   44   45 1    
    86   44  100 1    
    87   45   46 1    
    88   45   47 1    
    89   45  101 1    
    90   46  102 1    
    91   46  103 1    
    92   46  104 1    
    93   47   48 2    
    94   47   49 am   BACKBONE|DICT|INTERRES
    95   49   50 1    
    96   49  105 1    
    97   50   51 1    
    98   50   52 1    
    99   50  106 1    
   100   51  107 1    
   101   51  108 1    
   102   51  109 1    
   103   52   53 2    
   104   52   54 am   BACKBONE|DICT|INTERRES
   105   54   55 1    
   106   54  110 1    
   107   55   56 1    
   108   55   59 1    
   109   55  111 1    
   110   56   57 am   BACKBONE|DICT|INTERRES
   111   56   58 2    
   112   57  112 1    
   113   57  113 1    
   114   59   60 1    
   115   59  114 1    
   116   59  115 1    
   117   60   61 1    
   118   61  116 1    
   119   61  117 1    
@<TRIPOS>SUBSTRUCTURE
     1 UNK         1 GROUP             0       ****    0 ROOT    
