@<TRIPOS>MOLECULE
3R8
117   119    1
SMALL
USER_CHARGES


@<TRIPOS>ATOM
      1 CA         19.1663  -28.5395  -41.0011 C.3       0 UNK        -0.2013 
      2 C          18.4762  -27.2216  -41.3109 C.2       0 UNK         0.4866 
      3 O          17.9383  -26.5872  -40.4031 O.2       0 UNK        -0.5176 
      4 N          18.4899  -26.8052  -42.5812 N.am      1 UNK        -0.4884 
      5 CA         17.9166  -25.5431  -43.0469 C.3       1 UNK         0.0853 
      6 C6         16.4090  -25.6629  -43.4133 C.3       10 UNK        -0.0849 
      7 S7         16.0063  -26.6563  -44.8956 S.3       10 UNK        -0.2776 
      8 C8         15.8166  -28.3491  -44.2357 C.3       10 UNK         0.0316 
      9 C9         16.9585  -29.2783  -44.6414 C.ar      10 UNK        -0.0863 
     10 C10        17.5061  -30.1679  -43.7101 C.ar      10 UNK        -0.1009 
     11 C11        18.5246  -31.0601  -44.0797 C.ar      10 UNK        -0.0712 
     12 C12        19.0031  -31.0311  -45.3933 C.ar      10 UNK        -0.0894 
     13 C13        18.4610  -30.1567  -46.3382 C.ar      10 UNK        -0.0745 
     14 C14        17.4298  -29.2952  -45.9585 C.ar      10 UNK        -0.0972 
     15 C15        18.9698  -30.1685  -47.7751 C.3       10 UNK         0.0209 
     16 S16        19.5376  -28.5324  -48.3427 S.3       10 UNK        -0.2568 
     17 C17        20.9430  -28.2251  -47.2222 C.3       10 UNK        -0.0983 
     18 CA         21.3557  -26.7329  -47.1981 C.3       3 UNK         0.0876 
     19 N          20.2392  -25.8656  -46.8032 N.am      3 UNK        -0.4424 
     20 C          20.2022  -24.5350  -46.9533 C.2       2 UNK         0.4918 
     21 O          21.0818  -23.8882  -47.5222 O.2       2 UNK        -0.4875 
     22 CA         18.9987  -23.7878  -46.3438 C.3       2 UNK         0.0481 
     23 CB         17.9759  -23.4501  -47.4401 C.3       2 UNK        -0.1831 
     24 N          18.3083  -24.4796  -45.2454 N.am      2 UNK        -0.4498 
     25 C          18.8541  -24.9281  -44.1055 C.2       1 UNK         0.5027 
     26 O          20.0637  -24.8792  -43.8700 O.2       1 UNK        -0.4969 
     27 C          22.6118  -26.5422  -46.3152 C.2       3 UNK         0.5005 
     28 O          23.6923  -26.9697  -46.7244 O.2       3 UNK        -0.5279 
     29 N          22.4561  -25.9248  -45.1302 N.am      4 UNK        -0.4463 
     30 CA         23.4915  -25.6348  -44.1293 C.3       4 UNK         0.0283 
     31 CB         24.5464  -24.6547  -44.6857 C.3       4 UNK        -0.1875 
     32 C          24.1149  -26.8968  -43.5000 C.2       4 UNK         0.4949 
     33 O          25.2752  -26.8679  -43.0876 O.2       4 UNK        -0.5039 
     34 N          23.3267  -27.9792  -43.4189 N.am      5 UNK        -0.4663 
     35 CA         23.7164  -29.2519  -42.8032 C.3       5 UNK         0.0242 
     36 CB         22.6864  -30.3313  -43.1739 C.3       5 UNK        -0.1982 
     37 C          23.8689  -29.1570  -41.2759 C.2       5 UNK         0.5017 
     38 O          24.7373  -29.8247  -40.7132 O.2       5 UNK        -0.5012 
     39 N          23.0259  -28.3260  -40.6421 N.am      6 UNK        -0.4439 
     40 CA         22.9751  -28.0476  -39.2028 C.3       6 UNK         0.0297 
     41 CB         24.1520  -27.1274  -38.8045 C.3       6 UNK        -0.2006 
     42 C          22.8715  -29.3436  -38.3722 C.2       6 UNK         0.4892 
     43 O          21.9156  -30.0980  -38.5579 O.2       6 UNK        -0.5089 
     44 N          23.8648  -29.5987  -37.5101 N.am      7 UNK        -0.4243 
     45 CA         23.9686  -30.7767  -36.6449 C.3       7 UNK         0.0196 
     46 CB         25.1472  -30.5794  -35.6771 C.3       7 UNK        -0.2007 
     47 C          24.1032  -32.1199  -37.3886 C.2       7 UNK         0.5020 
     48 O          23.8560  -33.1587  -36.7758 O.2       7 UNK        -0.5147 
     49 N          24.4804  -32.0998  -38.6766 N.am      8 UNK        -0.4734 
     50 CA         24.5371  -33.2973  -39.5226 C.3       8 UNK         0.0238 
     51 CB         25.4615  -33.0409  -40.7244 C.3       8 UNK        -0.1912 
     52 C          23.1491  -33.7643  -39.9997 C.2       8 UNK         0.5038 
     53 O          23.0321  -34.9043  -40.4513 O.2       8 UNK        -0.5046 
     54 N          22.1340  -32.8930  -39.9098 N.am      9 UNK        -0.4200 
     55 CA         20.7381  -33.2072  -40.2316 C.3       9 UNK         0.0839 
     56 C          20.1024  -34.1473  -39.1712 C.2       9 UNK         0.5513 
     57 N          19.3733  -35.1690  -39.5984 N.am      9 UNK        -0.7519 
     58 O          20.2394  -33.9376  -37.9679 O.2       9 UNK        -0.4960 
     59 C59        19.9190  -31.9060  -40.4242 C.3       10 UNK        -0.0876 
     60 S60        18.4280  -32.1610  -41.4435 S.3       10 UNK        -0.2414 
     61 C61        19.1289  -32.0982  -43.1300 C.3       10 UNK         0.0169 
     62 H62        18.4469  -29.2393  -40.5777 H         1 UNK         0.0903 
     63 H63        19.5989  -28.9932  -41.8919 H         1 UNK         0.0903 
     64 H64        19.9605  -28.3909  -40.2706 H         1 UNK         0.0903 
     65 H65        18.9496  -27.3561  -43.2921 H         1 UNK         0.3096 
     66 H66        17.9738  -24.8275  -42.2230 H         1 UNK         0.1121 
     67 H67        15.9941  -24.6650  -43.5664 H         1 UNK         0.0849 
     68 H68        15.8568  -26.0601  -42.5603 H         1 UNK         0.0849 
     69 H69        15.7118  -28.3160  -43.1504 H         1 UNK         0.0865 
     70 H70        14.8844  -28.7667  -44.6181 H         1 UNK         0.0865 
     71 H71        17.1154  -30.1705  -42.7032 H         1 UNK         0.1346 
     72 H72        19.7899  -31.7129  -45.6872 H         1 UNK         0.1412 
     73 H73        16.9963  -28.6327  -46.6953 H         1 UNK         0.1426 
     74 H74        18.1652  -30.5067  -48.4292 H         1 UNK         0.0716 
     75 H75        19.7855  -30.8831  -47.8958 H         1 UNK         0.0716 
     76 H76        21.7740  -28.8518  -47.5524 H         1 UNK         0.0695 
     77 H77        20.6850  -28.5605  -46.2162 H         1 UNK         0.0695 
     78 H78        21.6473  -26.4491  -48.2119 H         1 UNK         0.0983 
     79 H79        19.4521  -26.3218  -46.3668 H         1 UNK         0.3095 
     80 H80        19.3815  -22.8500  -45.9367 H         1 UNK         0.0454 
     81 H81        17.1748  -22.8179  -47.0569 H         1 UNK         0.0851 
     82 H82        17.5237  -24.3497  -47.8598 H         1 UNK         0.0851 
     83 H83        18.4462  -22.9083  -48.2620 H         1 UNK         0.0851 
     84 H84        17.3152  -24.6295  -45.3683 H         1 UNK         0.2976 
     85 H85        21.5256  -25.6008  -44.8759 H         1 UNK         0.3116 
     86 H86        22.9762  -25.1243  -43.3143 H         1 UNK         0.0646 
     87 H87        25.1632  -25.1165  -45.4572 H         1 UNK         0.0847 
     88 H88        25.2179  -24.3133  -43.8970 H         1 UNK         0.0847 
     89 H89        24.0778  -23.7693  -45.1153 H         1 UNK         0.0847 
     90 H90        22.3979  -27.9191  -43.8082 H         1 UNK         0.3040 
     91 H91        24.6868  -29.5459  -43.2100 H         1 UNK         0.1015 
     92 H92        21.6839  -30.0589  -42.8448 H         1 UNK         0.0786 
     93 H93        22.9347  -31.2879  -42.7113 H         1 UNK         0.0786 
     94 H94        22.6521  -30.4930  -44.2515 H         1 UNK         0.0786 
     95 H95        22.3500  -27.8359  -41.2085 H         1 UNK         0.3172 
     96 H96        22.0504  -27.4977  -39.0225 H         1 UNK         0.0595 
     97 H97        25.1214  -27.5944  -38.9834 H         1 UNK         0.0839 
     98 H98        24.1004  -26.8468  -37.7515 H         1 UNK         0.0839 
     99 H99        24.1298  -26.2004  -39.3777 H         1 UNK         0.0839 
    100 H100       24.6235  -28.9347  -37.4562 H         1 UNK         0.2998 
    101 H101       23.0493  -30.8315  -36.0577 H         1 UNK         0.0822 
    102 H102       25.2343  -31.4219  -34.9892 H         1 UNK         0.0787 
    103 H103       26.0956  -30.4946  -36.2093 H         1 UNK         0.0787 
    104 H104       25.0189  -29.6825  -35.0707 H         1 UNK         0.0787 
    105 H105       24.6579  -31.2098  -39.1324 H         1 UNK         0.3055 
    106 H106       24.9679  -34.1134  -38.9376 H         1 UNK         0.1106 
    107 H107       25.0384  -32.3119  -41.4152 H         1 UNK         0.0828 
    108 H108       26.4393  -32.6782  -40.4075 H         1 UNK         0.0828 
    109 H109       25.6246  -33.9597  -41.2894 H         1 UNK         0.0828 
    110 H110       22.2971  -31.9963  -39.4670 H         1 UNK         0.2931 
    111 H111       20.7575  -33.7337  -41.1886 H         1 UNK         0.0412 
    112 H112       18.9421  -35.7823  -38.9244 H         1 UNK         0.3472 
    113 H113       19.2387  -35.3327  -40.5842 H         1 UNK         0.3472 
    114 H114       20.5300  -31.1391  -40.9012 H         1 UNK         0.0970 
    115 H115       19.6256  -31.4813  -39.4619 H         1 UNK         0.0970 
    116 H116       20.2062  -31.9423  -43.0797 H         1 UNK         0.0612 
    117 H117       18.9930  -33.0861  -43.5722 H         1 UNK         0.0612 
@<TRIPOS>BOND
     1    1    2 1    
     2    1   62 1    
     3    1   63 1    
     4    1   64 1    
     5    2    3 2    
     6    2    4 am   BACKBONE|DICT|INTERRES
     7    4    5 1    
     8    4   65 1    
     9    5    6 1    
    10    5   25 1    
    11    5   66 1    
    12    6    7 1    
    13    6   67 1    
    14    6   68 1    
    15    7    8 1    
    16    8    9 1    
    17    8   69 1    
    18    8   70 1    
    19    9   10 ar   
    20    9   14 ar   
    21   10   11 ar   
    22   10   71 1    
    23   11   12 ar   
    24   11   61 1    
    25   12   13 ar   
    26   12   72 1    
    27   13   14 ar   
    28   13   15 1    
    29   14   73 1    
    30   15   16 1    
    31   15   74 1    
    32   15   75 1    
    33   16   17 1    
    34   17   18 1    
    35   17   76 1    
    36   17   77 1    
    37   18   19 1    
    38   18   27 1    
    39   18   78 1    
    40   19   20 am   BACKBONE|DICT|INTERRES
    41   19   79 1    
    42   20   21 2    
    43   20   22 1    
    44   22   23 1    
    45   22   24 1    
    46   22   80 1    
    47   23   81 1    
    48   23   82 1    
    49   23   83 1    
    50   24   25 am   BACKBONE|DICT|INTERRES
    51   24   84 1    
    52   25   26 2    
    53   27   28 2    
    54   27   29 am   BACKBONE|DICT|INTERRES
    55   29   30 1    
    56   29   85 1    
    57   30   31 1    
    58   30   32 1    
    59   30   86 1    
    60   31   87 1    
    61   31   88 1    
    62   31   89 1    
    63   32   33 2    
    64   32   34 am   BACKBONE|DICT|INTERRES
    65   34   35 1    
    66   34   90 1    
    67   35   36 1    
    68   35   37 1    
    69   35   91 1    
    70   36   92 1    
    71   36   93 1    
    72   36   94 1    
    73   37   38 2    
    74   37   39 am   BACKBONE|DICT|INTERRES
    75   39   40 1    
    76   39   95 1    
    77   40   41 1    
    78   40   42 1    
    79   40   96 1    
    80   41   97 1    
    81   41   98 1    
    82   41   99 1    
    83   42   43 2    
    84   42   44 am   BACKBONE|DICT|INTERRES
    85   44   45 1    
    86   44  100 1    
    87   45   46 1    
    88   45   47 1    
    89   45  101 1    
    90   46  102 1    
    91   46  103 1    
    92   46  104 1    
    93   47   48 2    
    94   47   49 am   BACKBONE|DICT|INTERRES
    95   49   50 1    
    96   49  105 1    
    97   50   51 1    
    98   50   52 1    
    99   50  106 1    
   100   51  107 1    
   101   51  108 1    
   102   51  109 1    
   103   52   53 2    
   104   52   54 am   BACKBONE|DICT|INTERRES
   105   54   55 1    
   106   54  110 1    
   107   55   56 1    
   108   55   59 1    
   109   55  111 1    
   110   56   57 am   BACKBONE|DICT|INTERRES
   111   56   58 2    
   112   57  112 1    
   113   57  113 1    
   114   59   60 1    
   115   59  114 1    
   116   59  115 1    
   117   60   61 1    
   118   61  116 1    
   119   61  117 1    
@<TRIPOS>SUBSTRUCTURE
     1 UNK         1 GROUP             0       ****    0 ROOT    
