@<TRIPOS>MOLECULE
3R8
117   119    1
SMALL
USER_CHARGES


@<TRIPOS>ATOM
      1 CA         19.7669  -29.2495  -42.2131 C.3       0 UNK        -0.2013 
      2 C          18.7896  -28.0918  -42.2679 C.2       0 UNK         0.4866 
      3 O          19.0624  -27.0271  -41.7151 O.2       0 UNK        -0.5176 
      4 N          17.6506  -28.3099  -42.9367 N.am      1 UNK        -0.4884 
      5 CA         16.4397  -27.4719  -42.9496 C.3       1 UNK         0.0853 
      6 C6         15.3255  -28.0746  -43.8484 C.3       10 UNK        -0.0849 
      7 S7         15.1542  -29.8920  -43.6976 S.3       10 UNK        -0.2776 
      8 C8         15.6903  -30.4739  -45.3438 C.3       10 UNK         0.0316 
      9 C9         17.1926  -30.3293  -45.5686 C.ar      10 UNK        -0.0863 
     10 C10        18.0628  -31.3731  -45.2374 C.ar      10 UNK        -0.1009 
     11 C11        19.4383  -31.2669  -45.4920 C.ar      10 UNK        -0.0712 
     12 C12        19.9290  -30.0938  -46.0773 C.ar      10 UNK        -0.0894 
     13 C13        19.0779  -29.0251  -46.3866 C.ar      10 UNK        -0.0745 
     14 C14        17.7085  -29.1669  -46.1482 C.ar      10 UNK        -0.0972 
     15 C15        19.5663  -27.7103  -47.0041 C.3       10 UNK         0.0209 
     16 S16        21.3558  -27.3380  -46.8969 S.3       10 UNK        -0.2568 
     17 C17        21.7393  -27.4396  -45.1167 C.3       10 UNK        -0.0983 
     18 CA         21.7344  -26.0875  -44.3521 C.3       3 UNK         0.0876 
     19 N          20.3778  -25.6010  -44.1218 N.am      3 UNK        -0.4424 
     20 C          19.7518  -24.6598  -44.8392 C.2       2 UNK         0.4918 
     21 O          20.2987  -23.9914  -45.7167 O.2       2 UNK        -0.4875 
     22 CA         18.2473  -24.4827  -44.5618 C.3       2 UNK         0.0481 
     23 CB         17.4824  -23.8679  -45.7494 C.3       2 UNK        -0.1831 
     24 N          17.6664  -25.7786  -44.2128 N.am      2 UNK        -0.4498 
     25 C          16.6913  -25.9953  -43.3243 C.2       1 UNK         0.5027 
     26 O          16.0301  -25.1037  -42.7903 O.2       1 UNK        -0.4969 
     27 C          22.3978  -26.2307  -42.9728 C.2       3 UNK         0.5005 
     28 O          22.5554  -27.3507  -42.4843 O.2       3 UNK        -0.5279 
     29 N          22.7799  -25.1056  -42.3513 N.am      4 UNK        -0.4463 
     30 CA         23.4213  -25.0685  -41.0264 C.3       4 UNK         0.0283 
     31 CB         23.6915  -23.6096  -40.6259 C.3       4 UNK        -0.1875 
     32 C          24.7153  -25.9024  -40.9277 C.2       4 UNK         0.4949 
     33 O          24.9916  -26.4797  -39.8760 O.2       4 UNK        -0.5039 
     34 N          25.4536  -25.9926  -42.0424 N.am      5 UNK        -0.4663 
     35 CA         26.6572  -26.8126  -42.1954 C.3       5 UNK         0.0242 
     36 CB         27.3934  -26.3762  -43.4729 C.3       5 UNK        -0.1982 
     37 C          26.3919  -28.3313  -42.2228 C.2       5 UNK         0.5017 
     38 O          27.3364  -29.0948  -42.0197 O.2       5 UNK        -0.5012 
     39 N          25.1408  -28.7546  -42.4675 N.am      6 UNK        -0.4439 
     40 CA         24.7411  -30.1660  -42.5076 C.3       6 UNK         0.0297 
     41 CB         23.5674  -30.3496  -43.4849 C.3       6 UNK        -0.2006 
     42 C          24.3956  -30.7420  -41.1222 C.2       6 UNK         0.4892 
     43 O          24.0519  -31.9220  -41.0490 O.2       6 UNK        -0.5089 
     44 N          24.4743  -29.9199  -40.0616 N.am      7 UNK        -0.4243 
     45 CA         24.2845  -30.2754  -38.6478 C.3       7 UNK         0.0196 
     46 CB         25.4772  -31.1181  -38.1478 C.3       7 UNK        -0.2007 
     47 C          22.9223  -30.9413  -38.3688 C.2       7 UNK         0.5020 
     48 O          22.8636  -31.9926  -37.7300 O.2       7 UNK        -0.5147 
     49 N          21.8566  -30.3125  -38.8850 N.am      8 UNK        -0.4734 
     50 CA         20.4513  -30.7422  -38.8290 C.3       8 UNK         0.0238 
     51 CB         19.9576  -30.9040  -37.3742 C.3       8 UNK        -0.1912 
     52 C          20.1199  -31.9684  -39.7075 C.2       8 UNK         0.5038 
     53 O          19.0360  -32.5331  -39.5519 O.2       8 UNK        -0.5046 
     54 N          21.0057  -32.3152  -40.6544 N.am      9 UNK        -0.4200 
     55 CA         20.8395  -33.3993  -41.6369 C.3       9 UNK         0.0839 
     56 C          20.8819  -34.8219  -40.9971 C.2       9 UNK         0.5513 
     57 N          20.4780  -35.8537  -41.7253 N.am      9 UNK        -0.7519 
     58 O          21.3170  -35.0133  -39.8632 O.2       9 UNK        -0.4960 
     59 C59        19.6170  -33.1508  -42.5775 C.3       10 UNK        -0.0876 
     60 S60        19.8211  -33.8309  -44.2589 S.3       10 UNK        -0.2414 
     61 C61        20.4442  -32.3810  -45.1814 C.3       10 UNK         0.0169 
     62 H62        20.6808  -28.9688  -41.6917 H         1 UNK         0.0903 
     63 H63        19.3052  -30.0713  -41.6730 H         1 UNK         0.0903 
     64 H64        20.0287  -29.5961  -43.2102 H         1 UNK         0.0903 
     65 H65        17.5212  -29.2048  -43.3923 H         1 UNK         0.3096 
     66 H66        16.0710  -27.4690  -41.9216 H         1 UNK         0.1121 
     67 H67        15.4800  -27.8166  -44.8962 H         1 UNK         0.0849 
     68 H68        14.3646  -27.6286  -43.5848 H         1 UNK         0.0849 
     69 H69        15.4065  -31.5222  -45.4488 H         1 UNK         0.0865 
     70 H70        15.1370  -29.9406  -46.1185 H         1 UNK         0.0865 
     71 H71        17.6537  -32.2724  -44.7998 H         1 UNK         0.1346 
     72 H72        20.9869  -30.0174  -46.2855 H         1 UNK         0.1412 
     73 H73        17.0389  -28.3652  -46.4264 H         1 UNK         0.1426 
     74 H74        19.2937  -27.7154  -48.0601 H         1 UNK         0.0716 
     75 H75        19.0218  -26.8777  -46.5616 H         1 UNK         0.0716 
     76 H76        21.0704  -28.1463  -44.6312 H         1 UNK         0.0695 
     77 H77        22.7320  -27.8896  -45.0664 H         1 UNK         0.0695 
     78 H78        22.3168  -25.3588  -44.9202 H         1 UNK         0.0983 
     79 H79        19.8909  -26.0275  -43.3386 H         1 UNK         0.3095 
     80 H80        18.1667  -23.8082  -43.7070 H         1 UNK         0.0454 
     81 H81        16.4242  -23.7451  -45.5190 H         1 UNK         0.0851 
     82 H82        17.5616  -24.4888  -46.6424 H         1 UNK         0.0851 
     83 H83        17.8734  -22.8811  -46.0001 H         1 UNK         0.0851 
     84 H84        18.1472  -26.5891  -44.5768 H         1 UNK         0.2976 
     85 H85        22.6034  -24.2171  -42.7992 H         1 UNK         0.3116 
     86 H86        22.7115  -25.4913  -40.3122 H         1 UNK         0.0646 
     87 H87        22.7691  -23.0301  -40.5861 H         1 UNK         0.0847 
     88 H88        24.1474  -23.5551  -39.6361 H         1 UNK         0.0847 
     89 H89        24.3698  -23.1168  -41.3236 H         1 UNK         0.0847 
     90 H90        25.1455  -25.4824  -42.8573 H         1 UNK         0.3040 
     91 H91        27.3090  -26.6179  -41.3405 H         1 UNK         0.1015 
     92 H92        26.7860  -26.5376  -44.3645 H         1 UNK         0.0786 
     93 H93        28.3187  -26.9395  -43.6032 H         1 UNK         0.0786 
     94 H94        27.6636  -25.3206  -43.4353 H         1 UNK         0.0786 
     95 H95        24.3913  -28.0749  -42.5659 H         1 UNK         0.3172 
     96 H96        25.5754  -30.7560  -42.8928 H         1 UNK         0.0595 
     97 H97        22.6612  -29.8568  -43.1349 H         1 UNK         0.0839 
     98 H98        23.3334  -31.4076  -43.6067 H         1 UNK         0.0839 
     99 H99        23.8081  -29.9611  -44.4740 H         1 UNK         0.0839 
    100 H100       24.7307  -28.9570  -40.2379 H         1 UNK         0.2998 
    101 H101       24.2871  -29.3376  -38.0897 H         1 UNK         0.0822 
    102 H102       25.4025  -31.3054  -37.0758 H         1 UNK         0.0787 
    103 H103       25.5237  -32.0875  -38.6456 H         1 UNK         0.0787 
    104 H104       26.4241  -30.6068  -38.3213 H         1 UNK         0.0787 
    105 H105       22.0298  -29.4599  -39.4008 H         1 UNK         0.3055 
    106 H106       19.8797  -29.9187  -39.2593 H         1 UNK         0.1106 
    107 H107       20.2006  -30.0294  -36.7709 H         1 UNK         0.0828 
    108 H108       18.8742  -31.0259  -37.3411 H         1 UNK         0.0828 
    109 H109       20.3920  -31.7791  -36.8905 H         1 UNK         0.0828 
    110 H110       21.9162  -31.8727  -40.6527 H         1 UNK         0.2931 
    111 H111       21.7443  -33.3357  -42.2425 H         1 UNK         0.0412 
    112 H112       20.5137  -36.7827  -41.3354 H         1 UNK         0.3472 
    113 H113       20.1415  -35.7085  -42.6662 H         1 UNK         0.3472 
    114 H114       18.7027  -33.5553  -42.1392 H         1 UNK         0.0970 
    115 H115       19.4319  -32.0844  -42.6854 H         1 UNK         0.0970 
    116 H116       20.8524  -32.7409  -46.1267 H         1 UNK         0.0612 
    117 H117       21.2820  -31.9595  -44.6265 H         1 UNK         0.0612 
@<TRIPOS>BOND
     1    1    2 1    
     2    1   62 1    
     3    1   63 1    
     4    1   64 1    
     5    2    3 2    
     6    2    4 am   BACKBONE|DICT|INTERRES
     7    4    5 1    
     8    4   65 1    
     9    5    6 1    
    10    5   25 1    
    11    5   66 1    
    12    6    7 1    
    13    6   67 1    
    14    6   68 1    
    15    7    8 1    
    16    8    9 1    
    17    8   69 1    
    18    8   70 1    
    19    9   10 ar   
    20    9   14 ar   
    21   10   11 ar   
    22   10   71 1    
    23   11   12 ar   
    24   11   61 1    
    25   12   13 ar   
    26   12   72 1    
    27   13   14 ar   
    28   13   15 1    
    29   14   73 1    
    30   15   16 1    
    31   15   74 1    
    32   15   75 1    
    33   16   17 1    
    34   17   18 1    
    35   17   76 1    
    36   17   77 1    
    37   18   19 1    
    38   18   27 1    
    39   18   78 1    
    40   19   20 am   BACKBONE|DICT|INTERRES
    41   19   79 1    
    42   20   21 2    
    43   20   22 1    
    44   22   23 1    
    45   22   24 1    
    46   22   80 1    
    47   23   81 1    
    48   23   82 1    
    49   23   83 1    
    50   24   25 am   BACKBONE|DICT|INTERRES
    51   24   84 1    
    52   25   26 2    
    53   27   28 2    
    54   27   29 am   BACKBONE|DICT|INTERRES
    55   29   30 1    
    56   29   85 1    
    57   30   31 1    
    58   30   32 1    
    59   30   86 1    
    60   31   87 1    
    61   31   88 1    
    62   31   89 1    
    63   32   33 2    
    64   32   34 am   BACKBONE|DICT|INTERRES
    65   34   35 1    
    66   34   90 1    
    67   35   36 1    
    68   35   37 1    
    69   35   91 1    
    70   36   92 1    
    71   36   93 1    
    72   36   94 1    
    73   37   38 2    
    74   37   39 am   BACKBONE|DICT|INTERRES
    75   39   40 1    
    76   39   95 1    
    77   40   41 1    
    78   40   42 1    
    79   40   96 1    
    80   41   97 1    
    81   41   98 1    
    82   41   99 1    
    83   42   43 2    
    84   42   44 am   BACKBONE|DICT|INTERRES
    85   44   45 1    
    86   44  100 1    
    87   45   46 1    
    88   45   47 1    
    89   45  101 1    
    90   46  102 1    
    91   46  103 1    
    92   46  104 1    
    93   47   48 2    
    94   47   49 am   BACKBONE|DICT|INTERRES
    95   49   50 1    
    96   49  105 1    
    97   50   51 1    
    98   50   52 1    
    99   50  106 1    
   100   51  107 1    
   101   51  108 1    
   102   51  109 1    
   103   52   53 2    
   104   52   54 am   BACKBONE|DICT|INTERRES
   105   54   55 1    
   106   54  110 1    
   107   55   56 1    
   108   55   59 1    
   109   55  111 1    
   110   56   57 am   BACKBONE|DICT|INTERRES
   111   56   58 2    
   112   57  112 1    
   113   57  113 1    
   114   59   60 1    
   115   59  114 1    
   116   59  115 1    
   117   60   61 1    
   118   61  116 1    
   119   61  117 1    
@<TRIPOS>SUBSTRUCTURE
     1 UNK         1 GROUP             0       ****    0 ROOT    
