@<TRIPOS>MOLECULE
3R8
117   119    1
SMALL
USER_CHARGES


@<TRIPOS>ATOM
      1 CA         17.2040  -23.4021  -45.5321 C.3       0 UNK        -0.2013 
      2 C          17.4920  -24.7251  -44.8392 C.2       0 UNK         0.4866 
      3 O          18.3725  -24.7822  -43.9812 O.2       0 UNK        -0.5176 
      4 N          16.7580  -25.7827  -45.2117 N.am      1 UNK        -0.4884 
      5 CA         16.8558  -27.1413  -44.6641 C.3       1 UNK         0.0853 
      6 C6         15.9939  -28.1475  -45.4700 C.3       10 UNK        -0.0849 
      7 S7         16.4842  -28.2211  -47.2281 S.3       10 UNK        -0.2776 
      8 C8         17.2463  -29.8742  -47.3522 C.3       10 UNK         0.0316 
      9 C9         18.4011  -30.0765  -46.3778 C.ar      10 UNK        -0.0863 
     10 C10        18.3940  -31.1682  -45.5024 C.ar      10 UNK        -0.1009 
     11 C11        19.4503  -31.3696  -44.6094 C.ar      10 UNK        -0.0712 
     12 C12        20.5182  -30.4715  -44.5966 C.ar      10 UNK        -0.0894 
     13 C13        20.5215  -29.3593  -45.4408 C.ar      10 UNK        -0.0745 
     14 C14        19.4744  -29.1793  -46.3479 C.ar      10 UNK        -0.0972 
     15 C15        21.6355  -28.3311  -45.3328 C.3       10 UNK         0.0209 
     16 S16        21.1207  -26.8990  -44.3285 S.3       10 UNK        -0.2568 
     17 C17        20.7376  -27.7049  -42.7390 C.3       10 UNK        -0.0983 
     18 CA         20.3611  -26.7234  -41.6016 C.3       3 UNK         0.0876 
     19 N          19.8104  -27.4626  -40.4681 N.am      3 UNK        -0.4424 
     20 C          18.5439  -27.6511  -40.0652 C.2       2 UNK         0.4918 
     21 O          18.3062  -28.3033  -39.0507 O.2       2 UNK        -0.4875 
     22 CA         17.3412  -27.0884  -40.8460 C.3       2 UNK         0.0481 
     23 CB         17.0756  -25.6196  -40.4589 C.3       2 UNK        -0.1831 
     24 N          17.4656  -27.2414  -42.2937 N.am      2 UNK        -0.4498 
     25 C          16.4632  -27.1431  -43.1733 C.2       1 UNK         0.5027 
     26 O          15.2784  -27.0114  -42.8573 O.2       1 UNK        -0.4969 
     27 C          21.5994  -25.9703  -41.0978 C.2       3 UNK         0.5005 
     28 O          22.3136  -26.4912  -40.2375 O.2       3 UNK        -0.5279 
     29 N          21.8720  -24.7961  -41.6834 N.am      4 UNK        -0.4463 
     30 CA         23.0699  -23.9910  -41.4158 C.3       4 UNK         0.0283 
     31 CB         22.9310  -22.6240  -42.1043 C.3       4 UNK        -0.1875 
     32 C          24.3758  -24.6825  -41.8508 C.2       4 UNK         0.4949 
     33 O          25.4169  -24.4498  -41.2373 O.2       4 UNK        -0.5039 
     34 N          24.2899  -25.5383  -42.8789 N.am      5 UNK        -0.4663 
     35 CA         25.3863  -26.3839  -43.3580 C.3       5 UNK         0.0242 
     36 CB         25.2046  -26.6222  -44.8667 C.3       5 UNK        -0.1982 
     37 C          25.4975  -27.7212  -42.5976 C.2       5 UNK         0.5017 
     38 O          26.4241  -28.4816  -42.8793 O.2       5 UNK        -0.5012 
     39 N          24.5716  -27.9861  -41.6611 N.am      6 UNK        -0.4439 
     40 CA         24.4360  -29.1953  -40.8449 C.3       6 UNK         0.0297 
     41 CB         25.6114  -29.3379  -39.8528 C.3       6 UNK        -0.2006 
     42 C          24.1858  -30.4529  -41.6959 C.2       6 UNK         0.4892 
     43 O          23.0346  -30.7148  -42.0475 O.2       6 UNK        -0.5089 
     44 N          25.2513  -31.2108  -41.9947 N.am      7 UNK        -0.4243 
     45 CA         25.2447  -32.5182  -42.6586 C.3       7 UNK         0.0196 
     46 CB         24.7591  -32.3966  -44.1232 C.3       7 UNK        -0.2007 
     47 C          24.4725  -33.5425  -41.8056 C.2       7 UNK         0.5020 
     48 O          24.8627  -33.7797  -40.6617 O.2       7 UNK        -0.5147 
     49 N          23.3924  -34.1150  -42.3506 N.am      8 UNK        -0.4734 
     50 CA         22.4777  -35.0079  -41.6306 C.3       8 UNK         0.0238 
     51 CB         21.7257  -35.8768  -42.6537 C.3       8 UNK        -0.1912 
     52 C          21.4817  -34.2614  -40.7191 C.2       8 UNK         0.5038 
     53 O          20.8070  -34.9123  -39.9197 O.2       8 UNK        -0.5046 
     54 N          21.3876  -32.9354  -40.8697 N.am      9 UNK        -0.4200 
     55 CA         20.4783  -32.0399  -40.1458 C.3       9 UNK         0.0839 
     56 C          21.2595  -31.1712  -39.1158 C.2       9 UNK         0.5513 
     57 N          20.6239  -30.1842  -38.4983 N.am      9 UNK        -0.7519 
     58 O          22.4344  -31.3960  -38.8318 O.2       9 UNK        -0.4960 
     59 C59        19.6352  -31.2039  -41.1495 C.3       10 UNK        -0.0876 
     60 S60        18.4957  -32.2323  -42.1435 S.3       10 UNK        -0.2414 
     61 C61        19.4439  -32.5607  -43.6651 C.3       10 UNK         0.0169 
     62 H62        18.1005  -23.0409  -46.0354 H         1 UNK         0.0903 
     63 H63        16.4114  -23.4931  -46.2746 H         1 UNK         0.0903 
     64 H64        16.8997  -22.6547  -44.8000 H         1 UNK         0.0903 
     65 H65        16.0533  -25.6645  -45.9256 H         1 UNK         0.3096 
     66 H66        17.8997  -27.4515  -44.7443 H         1 UNK         0.1121 
     67 H67        16.0598  -29.1455  -45.0323 H         1 UNK         0.0849 
     68 H68        14.9384  -27.8715  -45.4273 H         1 UNK         0.0849 
     69 H69        16.4717  -30.6275  -47.1998 H         1 UNK         0.0865 
     70 H70        17.6150  -30.0170  -48.3688 H         1 UNK         0.0865 
     71 H71        17.5670  -31.8653  -45.5127 H         1 UNK         0.1346 
     72 H72        21.3348  -30.6189  -43.9050 H         1 UNK         0.1412 
     73 H73        19.4772  -28.3209  -47.0062 H         1 UNK         0.1426 
     74 H74        21.9218  -27.9876  -46.3278 H         1 UNK         0.0716 
     75 H75        22.5264  -28.7810  -44.8911 H         1 UNK         0.0716 
     76 H76        21.5787  -28.3387  -42.4489 H         1 UNK         0.0695 
     77 H77        19.9063  -28.3868  -42.9150 H         1 UNK         0.0695 
     78 H78        19.6538  -25.9735  -41.9543 H         1 UNK         0.0983 
     79 H79        20.5434  -27.7982  -39.8559 H         1 UNK         0.3095 
     80 H80        16.4744  -27.6748  -40.5332 H         1 UNK         0.0454 
     81 H81        17.0365  -25.5010  -39.3752 H         1 UNK         0.0851 
     82 H82        16.1206  -25.2702  -40.8508 H         1 UNK         0.0851 
     83 H83        17.8503  -24.9504  -40.8329 H         1 UNK         0.0851 
     84 H84        18.4064  -27.3533  -42.6432 H         1 UNK         0.2976 
     85 H85        21.2459  -24.4522  -42.3998 H         1 UNK         0.3116 
     86 H86        23.1288  -23.8269  -40.3376 H         1 UNK         0.0646 
     87 H87        23.7989  -21.9952  -41.9004 H         1 UNK         0.0847 
     88 H88        22.0532  -22.0855  -41.7466 H         1 UNK         0.0847 
     89 H89        22.8481  -22.7221  -43.1875 H         1 UNK         0.0847 
     90 H90        23.3934  -25.6593  -43.3301 H         1 UNK         0.3040 
     91 H91        26.3334  -25.8590  -43.2131 H         1 UNK         0.1015 
     92 H92        25.1869  -25.6812  -45.4168 H         1 UNK         0.0786 
     93 H93        24.2797  -27.1543  -45.0840 H         1 UNK         0.0786 
     94 H94        26.0249  -27.2160  -45.2725 H         1 UNK         0.0786 
     95 H95        23.8678  -27.2801  -41.4818 H         1 UNK         0.3172 
     96 H96        23.5331  -29.0537  -40.2486 H         1 UNK         0.0595 
     97 H97        26.5801  -29.3938  -40.3495 H         1 UNK         0.0839 
     98 H98        25.4986  -30.2371  -39.2449 H         1 UNK         0.0839 
     99 H99        25.6441  -28.4914  -39.1670 H         1 UNK         0.0839 
    100 H100       26.1525  -30.8897  -41.6700 H         1 UNK         0.2998 
    101 H101       26.2805  -32.8599  -42.6821 H         1 UNK         0.0822 
    102 H102       23.7236  -32.0633  -44.1983 H         1 UNK         0.0787 
    103 H103       25.3697  -31.6808  -44.6739 H         1 UNK         0.0787 
    104 H104       24.8411  -33.3506  -44.6456 H         1 UNK         0.0787 
    105 H105       23.1419  -33.8657  -43.2967 H         1 UNK         0.3055 
    106 H106       23.0639  -35.6693  -40.9883 H         1 UNK         0.1106 
    107 H107       21.1133  -35.2756  -43.3261 H         1 UNK         0.0828 
    108 H108       22.4161  -36.4629  -43.2605 H         1 UNK         0.0828 
    109 H109       21.0606  -36.5822  -42.1533 H         1 UNK         0.0828 
    110 H110       22.0495  -32.4619  -41.4738 H         1 UNK         0.2931 
    111 H111       19.7866  -32.6358  -39.5479 H         1 UNK         0.0412 
    112 H112       19.6535  -29.9648  -38.6784 H         1 UNK         0.3472 
    113 H113       21.1294  -29.6511  -37.8085 H         1 UNK         0.3472 
    114 H114       19.0055  -30.4915  -40.6190 H         1 UNK         0.0970 
    115 H115       20.2795  -30.6105  -41.7971 H         1 UNK         0.0970 
    116 H116       20.4641  -32.8514  -43.4160 H         1 UNK         0.0612 
    117 H117       19.0013  -33.4207  -44.1698 H         1 UNK         0.0612 
@<TRIPOS>BOND
     1    1    2 1    
     2    1   62 1    
     3    1   63 1    
     4    1   64 1    
     5    2    3 2    
     6    2    4 am   BACKBONE|DICT|INTERRES
     7    4    5 1    
     8    4   65 1    
     9    5    6 1    
    10    5   25 1    
    11    5   66 1    
    12    6    7 1    
    13    6   67 1    
    14    6   68 1    
    15    7    8 1    
    16    8    9 1    
    17    8   69 1    
    18    8   70 1    
    19    9   10 ar   
    20    9   14 ar   
    21   10   11 ar   
    22   10   71 1    
    23   11   12 ar   
    24   11   61 1    
    25   12   13 ar   
    26   12   72 1    
    27   13   14 ar   
    28   13   15 1    
    29   14   73 1    
    30   15   16 1    
    31   15   74 1    
    32   15   75 1    
    33   16   17 1    
    34   17   18 1    
    35   17   76 1    
    36   17   77 1    
    37   18   19 1    
    38   18   27 1    
    39   18   78 1    
    40   19   20 am   BACKBONE|DICT|INTERRES
    41   19   79 1    
    42   20   21 2    
    43   20   22 1    
    44   22   23 1    
    45   22   24 1    
    46   22   80 1    
    47   23   81 1    
    48   23   82 1    
    49   23   83 1    
    50   24   25 am   BACKBONE|DICT|INTERRES
    51   24   84 1    
    52   25   26 2    
    53   27   28 2    
    54   27   29 am   BACKBONE|DICT|INTERRES
    55   29   30 1    
    56   29   85 1    
    57   30   31 1    
    58   30   32 1    
    59   30   86 1    
    60   31   87 1    
    61   31   88 1    
    62   31   89 1    
    63   32   33 2    
    64   32   34 am   BACKBONE|DICT|INTERRES
    65   34   35 1    
    66   34   90 1    
    67   35   36 1    
    68   35   37 1    
    69   35   91 1    
    70   36   92 1    
    71   36   93 1    
    72   36   94 1    
    73   37   38 2    
    74   37   39 am   BACKBONE|DICT|INTERRES
    75   39   40 1    
    76   39   95 1    
    77   40   41 1    
    78   40   42 1    
    79   40   96 1    
    80   41   97 1    
    81   41   98 1    
    82   41   99 1    
    83   42   43 2    
    84   42   44 am   BACKBONE|DICT|INTERRES
    85   44   45 1    
    86   44  100 1    
    87   45   46 1    
    88   45   47 1    
    89   45  101 1    
    90   46  102 1    
    91   46  103 1    
    92   46  104 1    
    93   47   48 2    
    94   47   49 am   BACKBONE|DICT|INTERRES
    95   49   50 1    
    96   49  105 1    
    97   50   51 1    
    98   50   52 1    
    99   50  106 1    
   100   51  107 1    
   101   51  108 1    
   102   51  109 1    
   103   52   53 2    
   104   52   54 am   BACKBONE|DICT|INTERRES
   105   54   55 1    
   106   54  110 1    
   107   55   56 1    
   108   55   59 1    
   109   55  111 1    
   110   56   57 am   BACKBONE|DICT|INTERRES
   111   56   58 2    
   112   57  112 1    
   113   57  113 1    
   114   59   60 1    
   115   59  114 1    
   116   59  115 1    
   117   60   61 1    
   118   61  116 1    
   119   61  117 1    
@<TRIPOS>SUBSTRUCTURE
     1 UNK         1 GROUP             0       ****    0 ROOT    
