@<TRIPOS>MOLECULE
3R8
117   119    1
SMALL
USER_CHARGES


@<TRIPOS>ATOM
      1 CA         14.7341  -23.7441  -47.2002 C.3       0 UNK        -0.2013 
      2 C          15.8912  -24.5283  -46.6010 C.2       0 UNK         0.4866 
      3 O          16.8473  -24.8490  -47.3079 O.2       0 UNK        -0.5176 
      4 N          15.8258  -24.8281  -45.2977 N.am      1 UNK        -0.4884 
      5 CA         16.8129  -25.6078  -44.5368 C.3       1 UNK         0.0853 
      6 C6         16.1801  -26.2380  -43.2667 C.3       10 UNK        -0.0849 
      7 S7         14.9327  -27.5032  -43.6825 S.3       10 UNK        -0.2776 
      8 C8         15.5107  -28.9462  -42.7154 C.3       10 UNK         0.0316 
      9 C9         16.9224  -29.4270  -43.0556 C.ar      10 UNK        -0.0863 
     10 C10        17.7508  -29.9086  -42.0355 C.ar      10 UNK        -0.1009 
     11 C11        19.0388  -30.3759  -42.3184 C.ar      10 UNK        -0.0712 
     12 C12        19.5094  -30.3379  -43.6343 C.ar      10 UNK        -0.0894 
     13 C13        18.6883  -29.8757  -44.6654 C.ar      10 UNK        -0.0745 
     14 C14        17.3955  -29.4321  -44.3724 C.ar      10 UNK        -0.0972 
     15 C15        19.1752  -29.8821  -46.1047 C.3       10 UNK         0.0209 
     16 S16        19.6020  -28.2094  -46.6745 S.3       10 UNK        -0.2568 
     17 C17        21.3770  -28.0675  -46.2459 C.3       10 UNK        -0.0983 
     18 CA         21.7160  -26.9669  -45.2021 C.3       3 UNK         0.0876 
     19 N          20.9137  -25.7623  -45.4085 N.am      3 UNK        -0.4424 
     20 C          21.1363  -24.5384  -44.9162 C.2       2 UNK         0.4918 
     21 O          22.1298  -24.2301  -44.2584 O.2       2 UNK        -0.4875 
     22 CA         20.0094  -23.5132  -45.1522 C.3       2 UNK         0.0481 
     23 CB         20.2674  -22.7110  -46.4364 C.3       2 UNK        -0.1831 
     24 N          18.6872  -24.1518  -45.2302 N.am      2 UNK        -0.4498 
     25 C          18.0926  -24.7984  -44.2171 C.2       1 UNK         0.5027 
     26 O          18.5562  -24.8027  -43.0771 O.2       1 UNK        -0.4969 
     27 C          21.7033  -27.4991  -43.7508 C.2       3 UNK         0.5005 
     28 O          22.5098  -28.3792  -43.4460 O.2       3 UNK        -0.5279 
     29 N          20.8683  -26.9426  -42.8537 N.am      4 UNK        -0.4463 
     30 CA         20.8574  -27.2684  -41.4198 C.3       4 UNK         0.0283 
     31 CB         19.6966  -26.5543  -40.7144 C.3       4 UNK        -0.1875 
     32 C          22.1854  -26.9811  -40.6985 C.2       4 UNK         0.4949 
     33 O          22.4641  -27.6157  -39.6820 O.2       4 UNK        -0.5039 
     34 N          23.0086  -26.0887  -41.2683 N.am      5 UNK        -0.4663 
     35 CA         24.3851  -25.8122  -40.8503 C.3       5 UNK         0.0242 
     36 CB         24.9331  -24.6476  -41.6907 C.3       5 UNK        -0.1982 
     37 C          25.3301  -27.0289  -40.9347 C.2       5 UNK         0.5017 
     38 O          26.3460  -27.0357  -40.2389 O.2       5 UNK        -0.5012 
     39 N          24.9885  -28.0369  -41.7555 N.am      6 UNK        -0.4439 
     40 CA         25.7098  -29.3111  -41.8353 C.3       6 UNK         0.0297 
     41 CB         25.3158  -30.0468  -43.1262 C.3       6 UNK        -0.2006 
     42 C          25.4671  -30.2190  -40.6152 C.2       6 UNK         0.4892 
     43 O          26.3067  -31.0775  -40.3413 O.2       6 UNK        -0.5089 
     44 N          24.3341  -30.0228  -39.9202 N.am      7 UNK        -0.4243 
     45 CA         23.8416  -30.7085  -38.7165 C.3       7 UNK         0.0196 
     46 CB         24.7809  -30.4705  -37.5187 C.3       7 UNK        -0.2007 
     47 C          23.5357  -32.2081  -38.8858 C.2       7 UNK         0.5020 
     48 O          22.4561  -32.6521  -38.4965 O.2       7 UNK        -0.5147 
     49 N          24.4735  -32.9700  -39.4570 N.am      8 UNK        -0.4734 
     50 CA         24.4284  -34.4250  -39.6288 C.3       8 UNK         0.0238 
     51 CB         25.8740  -34.9521  -39.7071 C.3       8 UNK        -0.1912 
     52 C          23.5696  -34.8704  -40.8308 C.2       8 UNK         0.5038 
     53 O          24.0081  -35.7094  -41.6203 O.2       8 UNK        -0.5046 
     54 N          22.3634  -34.3055  -40.9525 N.am      9 UNK        -0.4200 
     55 CA         21.3620  -34.6582  -41.9713 C.3       9 UNK         0.0839 
     56 C          20.5307  -35.9354  -41.6516 C.2       9 UNK         0.5513 
     57 N          20.6437  -36.5279  -40.4683 N.am      9 UNK        -0.7519 
     58 O          19.7820  -36.4088  -42.5027 O.2       9 UNK        -0.4960 
     59 C59        20.4670  -33.4471  -42.3409 C.3       10 UNK        -0.0876 
     60 S60        19.6127  -32.6908  -40.9120 S.3       10 UNK        -0.2414 
     61 C61        19.9175  -30.9206  -41.1995 C.3       10 UNK         0.0169 
     62 H62        15.0915  -22.7964  -47.6024 H         1 UNK         0.0903 
     63 H63        14.2800  -24.3099  -48.0133 H         1 UNK         0.0903 
     64 H64        13.9606  -23.5302  -46.4628 H         1 UNK         0.0903 
     65 H65        15.0214  -24.5242  -44.7669 H         1 UNK         0.3096 
     66 H66        17.1490  -26.4316  -45.1714 H         1 UNK         0.1121 
     67 H67        15.7174  -25.4717  -42.6423 H         1 UNK         0.0849 
     68 H68        16.9431  -26.7083  -42.6458 H         1 UNK         0.0849 
     69 H69        15.4430  -28.6935  -41.6559 H         1 UNK         0.0865 
     70 H70        14.8176  -29.7727  -42.8769 H         1 UNK         0.0865 
     71 H71        17.3902  -29.9341  -41.0162 H         1 UNK         0.1346 
     72 H72        20.5108  -30.6772  -43.8589 H         1 UNK         0.1412 
     73 H73        16.7598  -29.0866  -45.1760 H         1 UNK         0.1426 
     74 H74        18.3827  -30.2730  -46.7447 H         1 UNK         0.0716 
     75 H75        20.0227  -30.5568  -46.2336 H         1 UNK         0.0716 
     76 H76        21.8933  -27.8283  -47.1767 H         1 UNK         0.0695 
     77 H77        21.7761  -29.0394  -45.9492 H         1 UNK         0.0695 
     78 H78        22.7549  -26.6770  -45.3749 H         1 UNK         0.0983 
     79 H79        20.0689  -25.9122  -45.9419 H         1 UNK         0.3095 
     80 H80        20.0045  -22.8207  -44.3080 H         1 UNK         0.0454 
     81 H81        19.5125  -21.9377  -46.5790 H         1 UNK         0.0851 
     82 H82        20.2648  -23.3494  -47.3208 H         1 UNK         0.0851 
     83 H83        21.2368  -22.2123  -46.3964 H         1 UNK         0.0851 
     84 H84        18.2378  -24.2034  -46.1412 H         1 UNK         0.2976 
     85 H85        20.2320  -26.2143  -43.1535 H         1 UNK         0.3116 
     86 H86        20.6887  -28.3393  -41.3368 H         1 UNK         0.0646 
     87 H87        18.7372  -26.8455  -41.1396 H         1 UNK         0.0847 
     88 H88        19.7863  -25.4698  -40.7847 H         1 UNK         0.0847 
     89 H89        19.6667  -26.8102  -39.6545 H         1 UNK         0.0847 
     90 H90        22.6861  -25.6115  -42.0996 H         1 UNK         0.3040 
     91 H91        24.3561  -25.5014  -39.8036 H         1 UNK         0.1015 
     92 H92        25.9508  -24.3929  -41.3913 H         1 UNK         0.0786 
     93 H93        24.3269  -23.7496  -41.5683 H         1 UNK         0.0786 
     94 H94        24.9564  -24.8933  -42.7533 H         1 UNK         0.0786 
     95 H95        24.1332  -27.9666  -42.3000 H         1 UNK         0.3172 
     96 H96        26.7796  -29.0965  -41.8819 H         1 UNK         0.0595 
     97 H97        24.2671  -30.3465  -43.1178 H         1 UNK         0.0839 
     98 H98        25.9094  -30.9532  -43.2533 H         1 UNK         0.0839 
     99 H99        25.4802  -29.4255  -44.0066 H         1 UNK         0.0839 
    100 H100       23.7354  -29.2661  -40.2300 H         1 UNK         0.2998 
    101 H101       22.8908  -30.2265  -38.4818 H         1 UNK         0.0822 
    102 H102       24.9211  -29.4053  -37.3337 H         1 UNK         0.0787 
    103 H103       24.3686  -30.9065  -36.6078 H         1 UNK         0.0787 
    104 H104       25.7642  -30.9153  -37.6747 H         1 UNK         0.0787 
    105 H105       25.3084  -32.4904  -39.7901 H         1 UNK         0.3055 
    106 H106       23.9667  -34.8620  -38.7405 H         1 UNK         0.1106 
    107 H107       26.3957  -34.5654  -40.5834 H         1 UNK         0.0828 
    108 H108       25.8943  -36.0411  -39.7669 H         1 UNK         0.0828 
    109 H109       26.4477  -34.6696  -38.8242 H         1 UNK         0.0828 
    110 H110       22.0681  -33.6463  -40.2402 H         1 UNK         0.2931 
    111 H111       21.9093  -34.9093  -42.8821 H         1 UNK         0.0412 
    112 H112       20.1047  -37.3582  -40.2779 H         1 UNK         0.3472 
    113 H113       21.2471  -36.1437  -39.7595 H         1 UNK         0.3472 
    114 H114       21.0942  -32.6967  -42.8218 H         1 UNK         0.0970 
    115 H115       19.7212  -33.7224  -43.0890 H         1 UNK         0.0970 
    116 H116       19.7133  -30.3791  -40.2746 H         1 UNK         0.0612 
    117 H117       20.9741  -30.7578  -41.4192 H         1 UNK         0.0612 
@<TRIPOS>BOND
     1    1    2 1    
     2    1   62 1    
     3    1   63 1    
     4    1   64 1    
     5    2    3 2    
     6    2    4 am   BACKBONE|DICT|INTERRES
     7    4    5 1    
     8    4   65 1    
     9    5    6 1    
    10    5   25 1    
    11    5   66 1    
    12    6    7 1    
    13    6   67 1    
    14    6   68 1    
    15    7    8 1    
    16    8    9 1    
    17    8   69 1    
    18    8   70 1    
    19    9   10 ar   
    20    9   14 ar   
    21   10   11 ar   
    22   10   71 1    
    23   11   12 ar   
    24   11   61 1    
    25   12   13 ar   
    26   12   72 1    
    27   13   14 ar   
    28   13   15 1    
    29   14   73 1    
    30   15   16 1    
    31   15   74 1    
    32   15   75 1    
    33   16   17 1    
    34   17   18 1    
    35   17   76 1    
    36   17   77 1    
    37   18   19 1    
    38   18   27 1    
    39   18   78 1    
    40   19   20 am   BACKBONE|DICT|INTERRES
    41   19   79 1    
    42   20   21 2    
    43   20   22 1    
    44   22   23 1    
    45   22   24 1    
    46   22   80 1    
    47   23   81 1    
    48   23   82 1    
    49   23   83 1    
    50   24   25 am   BACKBONE|DICT|INTERRES
    51   24   84 1    
    52   25   26 2    
    53   27   28 2    
    54   27   29 am   BACKBONE|DICT|INTERRES
    55   29   30 1    
    56   29   85 1    
    57   30   31 1    
    58   30   32 1    
    59   30   86 1    
    60   31   87 1    
    61   31   88 1    
    62   31   89 1    
    63   32   33 2    
    64   32   34 am   BACKBONE|DICT|INTERRES
    65   34   35 1    
    66   34   90 1    
    67   35   36 1    
    68   35   37 1    
    69   35   91 1    
    70   36   92 1    
    71   36   93 1    
    72   36   94 1    
    73   37   38 2    
    74   37   39 am   BACKBONE|DICT|INTERRES
    75   39   40 1    
    76   39   95 1    
    77   40   41 1    
    78   40   42 1    
    79   40   96 1    
    80   41   97 1    
    81   41   98 1    
    82   41   99 1    
    83   42   43 2    
    84   42   44 am   BACKBONE|DICT|INTERRES
    85   44   45 1    
    86   44  100 1    
    87   45   46 1    
    88   45   47 1    
    89   45  101 1    
    90   46  102 1    
    91   46  103 1    
    92   46  104 1    
    93   47   48 2    
    94   47   49 am   BACKBONE|DICT|INTERRES
    95   49   50 1    
    96   49  105 1    
    97   50   51 1    
    98   50   52 1    
    99   50  106 1    
   100   51  107 1    
   101   51  108 1    
   102   51  109 1    
   103   52   53 2    
   104   52   54 am   BACKBONE|DICT|INTERRES
   105   54   55 1    
   106   54  110 1    
   107   55   56 1    
   108   55   59 1    
   109   55  111 1    
   110   56   57 am   BACKBONE|DICT|INTERRES
   111   56   58 2    
   112   57  112 1    
   113   57  113 1    
   114   59   60 1    
   115   59  114 1    
   116   59  115 1    
   117   60   61 1    
   118   61  116 1    
   119   61  117 1    
@<TRIPOS>SUBSTRUCTURE
     1 UNK         1 GROUP             0       ****    0 ROOT    
