@<TRIPOS>MOLECULE
3R8
117   119    1
SMALL
USER_CHARGES


@<TRIPOS>ATOM
      1 CA         15.4653  -24.6053  -47.7758 C.3       0 UNK        -0.2013 
      2 C          15.9537  -25.0035  -46.3911 C.2       0 UNK         0.4866 
      3 O          15.6502  -24.3143  -45.4175 O.2       0 UNK        -0.5176 
      4 N          16.7164  -26.1032  -46.3037 N.am      1 UNK        -0.4884 
      5 CA         17.2664  -26.6963  -45.0712 C.3       1 UNK         0.0853 
      6 C6         16.1743  -27.2265  -44.0983 C.3       10 UNK        -0.0849 
      7 S7         15.2669  -28.6232  -44.8554 S.3       10 UNK        -0.2776 
      8 C8         15.5121  -29.9947  -43.6696 C.3       10 UNK         0.0316 
      9 C9         16.9572  -30.1860  -43.2151 C.ar      10 UNK        -0.0863 
     10 C10        17.2413  -30.2940  -41.8502 C.ar      10 UNK        -0.1009 
     11 C11        18.5557  -30.4467  -41.4016 C.ar      10 UNK        -0.0712 
     12 C12        19.5961  -30.4611  -42.3368 C.ar      10 UNK        -0.0894 
     13 C13        19.3305  -30.3730  -43.7056 C.ar      10 UNK        -0.0745 
     14 C14        18.0053  -30.2567  -44.1392 C.ar      10 UNK        -0.0972 
     15 C15        20.4753  -30.4231  -44.7095 C.3       10 UNK         0.0209 
     16 S16        20.5109  -28.9365  -45.7646 S.3       10 UNK        -0.2568 
     17 C17        22.2429  -28.3638  -45.6197 C.3       10 UNK        -0.0983 
     18 CA         22.4292  -27.1379  -44.6862 C.3       3 UNK         0.0876 
     19 N          21.4377  -26.0958  -44.9612 N.am      3 UNK        -0.4424 
     20 C          21.3654  -24.8750  -44.4148 C.2       2 UNK         0.4918 
     21 O          22.2182  -24.4079  -43.6593 O.2       2 UNK        -0.4875 
     22 CA         20.0920  -24.0637  -44.7286 C.3       2 UNK         0.0481 
     23 CB         20.3786  -23.0112  -45.8106 C.3       2 UNK        -0.1831 
     24 N          18.9565  -24.8976  -45.1510 N.am      2 UNK        -0.4498 
     25 C          18.3366  -25.8130  -44.3867 C.2       1 UNK         0.5027 
     26 O          18.6432  -26.0164  -43.2117 O.2       1 UNK        -0.4969 
     27 C          22.5035  -27.5606  -43.2027 C.2       3 UNK         0.5005 
     28 O          23.5575  -28.0416  -42.7887 O.2       3 UNK        -0.5279 
     29 N          21.4361  -27.3224  -42.4190 N.am      4 UNK        -0.4463 
     30 CA         21.3305  -27.5938  -40.9785 C.3       4 UNK         0.0283 
     31 CB         19.9845  -27.0608  -40.4645 C.3       4 UNK        -0.1875 
     32 C          22.4761  -27.0303  -40.1195 C.2       4 UNK         0.4949 
     33 O          22.8051  -27.6278  -39.0951 O.2       4 UNK        -0.5039 
     34 N          23.1035  -25.9350  -40.5723 N.am      5 UNK        -0.4663 
     35 CA         24.3139  -25.3527  -39.9833 C.3       5 UNK         0.0242 
     36 CB         24.6318  -24.0345  -40.7072 C.3       5 UNK        -0.1982 
     37 C          25.5412  -26.2886  -40.0059 C.2       5 UNK         0.5017 
     38 O          26.4410  -26.1081  -39.1851 O.2       5 UNK        -0.5012 
     39 N          25.5526  -27.2671  -40.9217 N.am      6 UNK        -0.4439 
     40 CA         26.5700  -28.3114  -41.0513 C.3       6 UNK         0.0297 
     41 CB         27.1411  -28.2604  -42.4802 C.3       6 UNK        -0.2006 
     42 C          25.9994  -29.7073  -40.7258 C.2       6 UNK         0.4892 
     43 O          26.6573  -30.7030  -41.0330 O.2       6 UNK        -0.5089 
     44 N          24.8044  -29.7639  -40.1142 N.am      7 UNK        -0.4243 
     45 CA         24.0192  -30.9643  -39.8069 C.3       7 UNK         0.0196 
     46 CB         24.7164  -31.8243  -38.7273 C.3       7 UNK        -0.2007 
     47 C          23.6253  -31.7290  -41.0876 C.2       7 UNK         0.5020 
     48 O          23.0971  -31.1067  -42.0076 O.2       7 UNK        -0.5147 
     49 N          23.8538  -33.0522  -41.1194 N.am      8 UNK        -0.4734 
     50 CA         23.5011  -33.9823  -42.2064 C.3       8 UNK         0.0238 
     51 CB         24.3259  -33.6807  -43.4769 C.3       8 UNK        -0.1912 
     52 C          21.9818  -34.0367  -42.4750 C.2       8 UNK         0.5038 
     53 O          21.5539  -34.0840  -43.6298 O.2       8 UNK        -0.5046 
     54 N          21.2015  -34.0125  -41.3877 N.am      9 UNK        -0.4200 
     55 CA         19.7321  -33.9316  -41.3881 C.3       9 UNK         0.0839 
     56 C          18.9974  -35.2433  -41.7899 C.2       9 UNK         0.5513 
     57 N          19.6777  -36.3752  -41.9270 N.am      9 UNK        -0.7519 
     58 O          17.7843  -35.2331  -41.9812 O.2       9 UNK        -0.4960 
     59 C59        19.1911  -33.3820  -40.0388 C.3       10 UNK        -0.0876 
     60 S60        20.0409  -31.8626  -39.4778 S.3       10 UNK        -0.2414 
     61 C61        18.8322  -30.5673  -39.9049 C.3       10 UNK         0.0169 
     62 H62        14.3759  -24.5921  -47.7987 H         1 UNK         0.0903 
     63 H63        15.8233  -23.6074  -48.0279 H         1 UNK         0.0903 
     64 H64        15.8113  -25.2945  -48.5459 H         1 UNK         0.0903 
     65 H65        16.9184  -26.6212  -47.1486 H         1 UNK         0.3096 
     66 H66        17.8354  -27.5660  -45.4017 H         1 UNK         0.1121 
     67 H67        15.4652  -26.4404  -43.8367 H         1 UNK         0.0849 
     68 H68        16.6095  -27.5525  -43.1528 H         1 UNK         0.0849 
     69 H69        15.1632  -30.9213  -44.1272 H         1 UNK         0.0865 
     70 H70        14.8624  -29.8168  -42.8112 H         1 UNK         0.0865 
     71 H71        16.4346  -30.2564  -41.1308 H         1 UNK         0.1346 
     72 H72        20.6163  -30.5659  -41.9979 H         1 UNK         0.1412 
     73 H73        17.7926  -30.1922  -45.1975 H         1 UNK         0.1426 
     74 H74        20.3598  -31.3057  -45.3398 H         1 UNK         0.0716 
     75 H75        21.4283  -30.5414  -44.1916 H         1 UNK         0.0716 
     76 H76        22.5645  -28.0878  -46.6251 H         1 UNK         0.0695 
     77 H77        22.8971  -29.1896  -45.3323 H         1 UNK         0.0695 
     78 H78        23.4039  -26.7001  -44.9124 H         1 UNK         0.0983 
     79 H79        20.6849  -26.3827  -45.5691 H         1 UNK         0.3095 
     80 H80        19.8017  -23.5443  -43.8131 H         1 UNK         0.0454 
     81 H81        20.6591  -23.4707  -46.7591 H         1 UNK         0.0851 
     82 H82        21.1990  -22.3574  -45.5107 H         1 UNK         0.0851 
     83 H83        19.5103  -22.3763  -45.9873 H         1 UNK         0.0851 
     84 H84        18.6384  -24.7888  -46.1035 H         1 UNK         0.2976 
     85 H85        20.6119  -26.9182  -42.8487 H         1 UNK         0.3116 
     86 H86        21.3475  -28.6771  -40.8523 H         1 UNK         0.0646 
     87 H87        19.1472  -27.5401  -40.9719 H         1 UNK         0.0847 
     88 H88        19.8935  -25.9847  -40.6177 H         1 UNK         0.0847 
     89 H89        19.8675  -27.2483  -39.3963 H         1 UNK         0.0847 
     90 H90        22.7703  -25.5166  -41.4313 H         1 UNK         0.3040 
     91 H91        24.0990  -25.1299  -38.9359 H         1 UNK         0.1015 
     92 H92        25.5159  -23.5571  -40.2821 H         1 UNK         0.0786 
     93 H93        23.8087  -23.3249  -40.6201 H         1 UNK         0.0786 
     94 H94        24.8248  -24.1947  -41.7690 H         1 UNK         0.0786 
     95 H95        24.7565  -27.3661  -41.5520 H         1 UNK         0.3172 
     96 H96        27.3887  -28.1354  -40.3511 H         1 UNK         0.0595 
     97 H97        26.3770  -28.4885  -43.2247 H         1 UNK         0.0839 
     98 H98        27.9489  -28.9819  -42.6088 H         1 UNK         0.0839 
     99 H99        27.5497  -27.2761  -42.7092 H         1 UNK         0.0839 
    100 H100       24.3380  -28.8882  -39.9097 H         1 UNK         0.2998 
    101 H101       23.0817  -30.6036  -39.3804 H         1 UNK         0.0822 
    102 H102       24.9513  -31.2261  -37.8467 H         1 UNK         0.0787 
    103 H103       24.0716  -32.6374  -38.3917 H         1 UNK         0.0787 
    104 H104       25.6496  -32.2611  -39.0846 H         1 UNK         0.0787 
    105 H105       24.3016  -33.4670  -40.3136 H         1 UNK         0.3055 
    106 H106       23.7811  -34.9804  -41.8653 H         1 UNK         0.1106 
    107 H107       24.0515  -32.7232  -43.9211 H         1 UNK         0.0828 
    108 H108       24.1677  -34.4469  -44.2368 H         1 UNK         0.0828 
    109 H109       25.3937  -33.6551  -43.2602 H         1 UNK         0.0828 
    110 H110       21.6418  -33.9616  -40.4817 H         1 UNK         0.2931 
    111 H111       19.4616  -33.2102  -42.1600 H         1 UNK         0.0412 
    112 H112       19.1897  -37.2173  -42.1897 H         1 UNK         0.3472 
    113 H113       20.6735  -36.3939  -41.7768 H         1 UNK         0.3472 
    114 H114       18.1194  -33.1864  -40.1107 H         1 UNK         0.0970 
    115 H115       19.3057  -34.1322  -39.2543 H         1 UNK         0.0970 
    116 H116       19.2087  -29.6142  -39.5369 H         1 UNK         0.0612 
    117 H117       17.9098  -30.7641  -39.3564 H         1 UNK         0.0612 
@<TRIPOS>BOND
     1    1    2 1    
     2    1   62 1    
     3    1   63 1    
     4    1   64 1    
     5    2    3 2    
     6    2    4 am   BACKBONE|DICT|INTERRES
     7    4    5 1    
     8    4   65 1    
     9    5    6 1    
    10    5   25 1    
    11    5   66 1    
    12    6    7 1    
    13    6   67 1    
    14    6   68 1    
    15    7    8 1    
    16    8    9 1    
    17    8   69 1    
    18    8   70 1    
    19    9   10 ar   
    20    9   14 ar   
    21   10   11 ar   
    22   10   71 1    
    23   11   12 ar   
    24   11   61 1    
    25   12   13 ar   
    26   12   72 1    
    27   13   14 ar   
    28   13   15 1    
    29   14   73 1    
    30   15   16 1    
    31   15   74 1    
    32   15   75 1    
    33   16   17 1    
    34   17   18 1    
    35   17   76 1    
    36   17   77 1    
    37   18   19 1    
    38   18   27 1    
    39   18   78 1    
    40   19   20 am   BACKBONE|DICT|INTERRES
    41   19   79 1    
    42   20   21 2    
    43   20   22 1    
    44   22   23 1    
    45   22   24 1    
    46   22   80 1    
    47   23   81 1    
    48   23   82 1    
    49   23   83 1    
    50   24   25 am   BACKBONE|DICT|INTERRES
    51   24   84 1    
    52   25   26 2    
    53   27   28 2    
    54   27   29 am   BACKBONE|DICT|INTERRES
    55   29   30 1    
    56   29   85 1    
    57   30   31 1    
    58   30   32 1    
    59   30   86 1    
    60   31   87 1    
    61   31   88 1    
    62   31   89 1    
    63   32   33 2    
    64   32   34 am   BACKBONE|DICT|INTERRES
    65   34   35 1    
    66   34   90 1    
    67   35   36 1    
    68   35   37 1    
    69   35   91 1    
    70   36   92 1    
    71   36   93 1    
    72   36   94 1    
    73   37   38 2    
    74   37   39 am   BACKBONE|DICT|INTERRES
    75   39   40 1    
    76   39   95 1    
    77   40   41 1    
    78   40   42 1    
    79   40   96 1    
    80   41   97 1    
    81   41   98 1    
    82   41   99 1    
    83   42   43 2    
    84   42   44 am   BACKBONE|DICT|INTERRES
    85   44   45 1    
    86   44  100 1    
    87   45   46 1    
    88   45   47 1    
    89   45  101 1    
    90   46  102 1    
    91   46  103 1    
    92   46  104 1    
    93   47   48 2    
    94   47   49 am   BACKBONE|DICT|INTERRES
    95   49   50 1    
    96   49  105 1    
    97   50   51 1    
    98   50   52 1    
    99   50  106 1    
   100   51  107 1    
   101   51  108 1    
   102   51  109 1    
   103   52   53 2    
   104   52   54 am   BACKBONE|DICT|INTERRES
   105   54   55 1    
   106   54  110 1    
   107   55   56 1    
   108   55   59 1    
   109   55  111 1    
   110   56   57 am   BACKBONE|DICT|INTERRES
   111   56   58 2    
   112   57  112 1    
   113   57  113 1    
   114   59   60 1    
   115   59  114 1    
   116   59  115 1    
   117   60   61 1    
   118   61  116 1    
   119   61  117 1    
@<TRIPOS>SUBSTRUCTURE
     1 UNK         1 GROUP             0       ****    0 ROOT    
