@<TRIPOS>MOLECULE
3R8
117   119    1
SMALL
USER_CHARGES


@<TRIPOS>ATOM
      1 CA         20.3471  -25.1167  -39.6853 C.3       0 UNK        -0.2013 
      2 C          20.0585  -25.6293  -41.0879 C.2       0 UNK         0.4866 
      3 O          20.8859  -26.3494  -41.6470 O.2       0 UNK        -0.5176 
      4 N          18.8908  -25.2637  -41.6363 N.am      1 UNK        -0.4884 
      5 CA         18.3719  -25.5842  -42.9762 C.3       1 UNK         0.0853 
      6 C6         18.3703  -27.1005  -43.3206 C.3       10 UNK        -0.0849 
      7 S7         17.3872  -28.0970  -42.1502 S.3       10 UNK        -0.2776 
      8 C8         16.3207  -29.0534  -43.2771 C.3       10 UNK         0.0316 
      9 C9         17.1186  -30.0619  -44.0934 C.ar      10 UNK        -0.0863 
     10 C10        17.5518  -31.2516  -43.5028 C.ar      10 UNK        -0.1009 
     11 C11        18.2707  -32.1928  -44.2444 C.ar      10 UNK        -0.0712 
     12 C12        18.5760  -31.9262  -45.5827 C.ar      10 UNK        -0.0894 
     13 C13        18.1571  -30.7360  -46.1880 C.ar      10 UNK        -0.0745 
     14 C14        17.4111  -29.8170  -45.4389 C.ar      10 UNK        -0.0972 
     15 C15        18.4853  -30.4879  -47.6603 C.3       10 UNK         0.0209 
     16 S16        18.8715  -28.7508  -48.0714 S.3       10 UNK        -0.2568 
     17 C17        20.4193  -28.4902  -47.1423 C.3       10 UNK        -0.0983 
     18 CA         20.9579  -27.0416  -47.2799 C.3       3 UNK         0.0876 
     19 N          19.9549  -26.0627  -46.8550 N.am      3 UNK        -0.4424 
     20 C          19.9646  -24.7491  -47.1139 C.2       2 UNK         0.4918 
     21 O          20.7981  -24.1942  -47.8292 O.2       2 UNK        -0.4875 
     22 CA         18.8746  -23.9097  -46.4164 C.3       2 UNK         0.0481 
     23 CB         17.7113  -23.6359  -47.3826 C.3       2 UNK        -0.1831 
     24 N          18.3528  -24.5299  -45.1883 N.am      2 UNK        -0.4498 
     25 C          19.0813  -24.7843  -44.0893 C.2       1 UNK         0.5027 
     26 O          20.2698  -24.4727  -43.9873 O.2       1 UNK        -0.4969 
     27 C          22.2994  -26.9005  -46.5215 C.2       3 UNK         0.5005 
     28 O          23.2748  -27.5270  -46.9386 O.2       3 UNK        -0.5279 
     29 N          22.3297  -26.1169  -45.4267 N.am      4 UNK        -0.4463 
     30 CA         23.4384  -25.9561  -44.4766 C.3       4 UNK         0.0283 
     31 CB         24.6584  -25.2828  -45.1406 C.3       4 UNK        -0.1875 
     32 C          23.7754  -27.2872  -43.7799 C.2       4 UNK         0.4949 
     33 O          24.9309  -27.7146  -43.7642 O.2       4 UNK        -0.5039 
     34 N          22.7315  -27.9285  -43.2422 N.am      5 UNK        -0.4663 
     35 CA         22.8025  -29.1999  -42.5268 C.3       5 UNK         0.0242 
     36 CB         21.3959  -29.8205  -42.4783 C.3       5 UNK        -0.1982 
     37 C          23.3721  -29.0202  -41.1123 C.2       5 UNK         0.5017 
     38 O          24.2227  -29.8055  -40.6923 O.2       5 UNK        -0.5012 
     39 N          22.9059  -27.9749  -40.4111 N.am      6 UNK        -0.4439 
     40 CA         23.2282  -27.6438  -39.0195 C.3       6 UNK         0.0297 
     41 CB         24.6849  -27.1395  -38.9020 C.3       6 UNK        -0.2006 
     42 C          22.8747  -28.8158  -38.0814 C.2       6 UNK         0.4892 
     43 O          21.7040  -29.1917  -38.0163 O.2       6 UNK        -0.5089 
     44 N          23.8725  -29.3817  -37.3907 N.am      7 UNK        -0.4243 
     45 CA         23.7187  -30.5546  -36.5267 C.3       7 UNK         0.0196 
     46 CB         24.8653  -30.5714  -35.5024 C.3       7 UNK        -0.2007 
     47 C          23.6764  -31.8858  -37.3013 C.2       7 UNK         0.5020 
     48 O          23.2011  -32.8799  -36.7517 O.2       7 UNK        -0.5147 
     49 N          24.1775  -31.9071  -38.5435 N.am      8 UNK        -0.4734 
     50 CA         24.2605  -33.0996  -39.3861 C.3       8 UNK         0.0238 
     51 CB         25.5584  -33.0381  -40.2138 C.3       8 UNK        -0.1912 
     52 C          23.0059  -33.1898  -40.2662 C.2       8 UNK         0.5038 
     53 O          23.0500  -32.7765  -41.4224 O.2       8 UNK        -0.5046 
     54 N          21.9226  -33.7070  -39.6737 N.am      9 UNK        -0.4200 
     55 CA         20.5531  -33.8425  -40.2074 C.3       9 UNK         0.0839 
     56 C          19.6425  -32.5950  -40.0109 C.2       9 UNK         0.5513 
     57 N          20.1382  -31.4865  -39.4777 N.am      9 UNK        -0.7519 
     58 O          18.4474  -32.6568  -40.2852 O.2       9 UNK        -0.4960 
     59 C59        20.4442  -34.5377  -41.6059 C.3       10 UNK        -0.0876 
     60 S60        20.4376  -33.4374  -43.0731 S.3       10 UNK        -0.2414 
     61 C61        18.6990  -33.5023  -43.5998 C.3       10 UNK         0.0169 
     62 H62        20.2886  -25.9366  -38.9700 H         1 UNK         0.0903 
     63 H63        21.3491  -24.6907  -39.6400 H         1 UNK         0.0903 
     64 H64        19.6398  -24.3465  -39.3786 H         1 UNK         0.0903 
     65 H65        18.2851  -24.6622  -41.0954 H         1 UNK         0.3096 
     66 H66        17.3337  -25.2473  -42.9651 H         1 UNK         0.1121 
     67 H67        17.9669  -27.2504  -44.3222 H         1 UNK         0.0849 
     68 H68        19.3819  -27.5064  -43.3527 H         1 UNK         0.0849 
     69 H69        15.5700  -29.5812  -42.6869 H         1 UNK         0.0865 
     70 H70        15.7688  -28.3726  -43.9272 H         1 UNK         0.0865 
     71 H71        17.3258  -31.4460  -42.4628 H         1 UNK         0.1346 
     72 H72        19.1370  -32.6539  -46.1532 H         1 UNK         0.1412 
     73 H73        17.0598  -28.9066  -45.9039 H         1 UNK         0.1426 
     74 H74        17.6304  -30.8028  -48.2597 H         1 UNK         0.0716 
     75 H75        19.3264  -31.1086  -47.9734 H         1 UNK         0.0716 
     76 H76        20.2440  -28.7359  -46.0927 H         1 UNK         0.0695 
     77 H77        21.1543  -29.2100  -47.5083 H         1 UNK         0.0695 
     78 H78        21.1752  -26.8572  -48.3344 H         1 UNK         0.0983 
     79 H79        19.1956  -26.4296  -46.3036 H         1 UNK         0.3095 
     80 H80        19.3237  -22.9529  -46.1419 H         1 UNK         0.0454 
     81 H81        16.9683  -22.9760  -46.9346 H         1 UNK         0.0851 
     82 H82        18.0663  -23.1486  -48.2918 H         1 UNK         0.0851 
     83 H83        17.2083  -24.5561  -47.6828 H         1 UNK         0.0851 
     84 H84        17.3800  -24.8033  -45.2060 H         1 UNK         0.2976 
     85 H85        21.4815  -25.6260  -45.1633 H         1 UNK         0.3116 
     86 H86        23.0769  -25.2839  -43.6964 H         1 UNK         0.0646 
     87 H87        25.4298  -25.0644  -44.4014 H         1 UNK         0.0847 
     88 H88        24.3830  -24.3389  -45.6106 H         1 UNK         0.0847 
     89 H89        25.1125  -25.9174  -45.9020 H         1 UNK         0.0847 
     90 H90        21.8452  -27.4392  -43.1977 H         1 UNK         0.3040 
     91 H91        23.4617  -29.8791  -43.0722 H         1 UNK         0.1015 
     92 H92        21.0042  -30.0073  -43.4786 H         1 UNK         0.0786 
     93 H93        20.6833  -29.1837  -41.9524 H         1 UNK         0.0786 
     94 H94        21.4136  -30.7774  -41.9584 H         1 UNK         0.0786 
     95 H95        22.1893  -27.3997  -40.8523 H         1 UNK         0.3172 
     96 H96        22.5737  -26.8199  -38.7359 H         1 UNK         0.0595 
     97 H97        24.8469  -26.2738  -39.5445 H         1 UNK         0.0839 
     98 H98        25.4145  -27.8972  -39.1897 H         1 UNK         0.0839 
     99 H99        24.9132  -26.8232  -37.8832 H         1 UNK         0.0839 
    100 H100       24.8080  -29.0212  -37.5117 H         1 UNK         0.2998 
    101 H101       22.7771  -30.4666  -35.9798 H         1 UNK         0.0822 
    102 H102       25.8390  -30.6580  -35.9865 H         1 UNK         0.0787 
    103 H103       24.8697  -29.6652  -34.8962 H         1 UNK         0.0787 
    104 H104       24.7655  -31.4157  -34.8185 H         1 UNK         0.0787 
    105 H105       24.4442  -31.0346  -38.9883 H         1 UNK         0.3055 
    106 H106       24.3107  -33.9993  -38.7679 H         1 UNK         0.1106 
    107 H107       26.4379  -33.0277  -39.5701 H         1 UNK         0.0828 
    108 H108       25.6444  -33.9072  -40.8672 H         1 UNK         0.0828 
    109 H109       25.5978  -32.1506  -40.8466 H         1 UNK         0.0828 
    110 H110       22.0137  -33.9611  -38.6990 H         1 UNK         0.2931 
    111 H111       20.1218  -34.5612  -39.5093 H         1 UNK         0.0412 
    112 H112       19.5317  -30.6957  -39.3314 H         1 UNK         0.3472 
    113 H113       21.1104  -31.4186  -39.2246 H         1 UNK         0.3472 
    114 H114       19.5368  -35.1429  -41.6300 H         1 UNK         0.0970 
    115 H115       21.2572  -35.2546  -41.7271 H         1 UNK         0.0970 
    116 H116       18.0551  -33.7190  -42.7467 H         1 UNK         0.0612 
    117 H117       18.5671  -34.3278  -44.3006 H         1 UNK         0.0612 
@<TRIPOS>BOND
     1    1    2 1    
     2    1   62 1    
     3    1   63 1    
     4    1   64 1    
     5    2    3 2    
     6    2    4 am   BACKBONE|DICT|INTERRES
     7    4    5 1    
     8    4   65 1    
     9    5    6 1    
    10    5   25 1    
    11    5   66 1    
    12    6    7 1    
    13    6   67 1    
    14    6   68 1    
    15    7    8 1    
    16    8    9 1    
    17    8   69 1    
    18    8   70 1    
    19    9   10 ar   
    20    9   14 ar   
    21   10   11 ar   
    22   10   71 1    
    23   11   12 ar   
    24   11   61 1    
    25   12   13 ar   
    26   12   72 1    
    27   13   14 ar   
    28   13   15 1    
    29   14   73 1    
    30   15   16 1    
    31   15   74 1    
    32   15   75 1    
    33   16   17 1    
    34   17   18 1    
    35   17   76 1    
    36   17   77 1    
    37   18   19 1    
    38   18   27 1    
    39   18   78 1    
    40   19   20 am   BACKBONE|DICT|INTERRES
    41   19   79 1    
    42   20   21 2    
    43   20   22 1    
    44   22   23 1    
    45   22   24 1    
    46   22   80 1    
    47   23   81 1    
    48   23   82 1    
    49   23   83 1    
    50   24   25 am   BACKBONE|DICT|INTERRES
    51   24   84 1    
    52   25   26 2    
    53   27   28 2    
    54   27   29 am   BACKBONE|DICT|INTERRES
    55   29   30 1    
    56   29   85 1    
    57   30   31 1    
    58   30   32 1    
    59   30   86 1    
    60   31   87 1    
    61   31   88 1    
    62   31   89 1    
    63   32   33 2    
    64   32   34 am   BACKBONE|DICT|INTERRES
    65   34   35 1    
    66   34   90 1    
    67   35   36 1    
    68   35   37 1    
    69   35   91 1    
    70   36   92 1    
    71   36   93 1    
    72   36   94 1    
    73   37   38 2    
    74   37   39 am   BACKBONE|DICT|INTERRES
    75   39   40 1    
    76   39   95 1    
    77   40   41 1    
    78   40   42 1    
    79   40   96 1    
    80   41   97 1    
    81   41   98 1    
    82   41   99 1    
    83   42   43 2    
    84   42   44 am   BACKBONE|DICT|INTERRES
    85   44   45 1    
    86   44  100 1    
    87   45   46 1    
    88   45   47 1    
    89   45  101 1    
    90   46  102 1    
    91   46  103 1    
    92   46  104 1    
    93   47   48 2    
    94   47   49 am   BACKBONE|DICT|INTERRES
    95   49   50 1    
    96   49  105 1    
    97   50   51 1    
    98   50   52 1    
    99   50  106 1    
   100   51  107 1    
   101   51  108 1    
   102   51  109 1    
   103   52   53 2    
   104   52   54 am   BACKBONE|DICT|INTERRES
   105   54   55 1    
   106   54  110 1    
   107   55   56 1    
   108   55   59 1    
   109   55  111 1    
   110   56   57 am   BACKBONE|DICT|INTERRES
   111   56   58 2    
   112   57  112 1    
   113   57  113 1    
   114   59   60 1    
   115   59  114 1    
   116   59  115 1    
   117   60   61 1    
   118   61  116 1    
   119   61  117 1    
@<TRIPOS>SUBSTRUCTURE
     1 UNK         1 GROUP             0       ****    0 ROOT    
