@<TRIPOS>MOLECULE
3R8
117   119    1
SMALL
USER_CHARGES


@<TRIPOS>ATOM
      1 CA         16.4880  -23.4671  -42.2561 C.3       0 UNK        -0.2013 
      2 C          16.9725  -24.8571  -42.6388 C.2       0 UNK         0.4866 
      3 O          17.6755  -25.0077  -43.6387 O.2       0 UNK        -0.5176 
      4 N          16.6090  -25.8762  -41.8495 N.am      1 UNK        -0.4884 
      5 CA         16.9771  -27.2830  -42.0513 C.3       1 UNK         0.0853 
      6 C6         15.9688  -28.2417  -41.3709 C.3       10 UNK        -0.0849 
      7 S7         14.4017  -28.2689  -42.3038 S.3       10 UNK        -0.2776 
      8 C8         14.5423  -29.8336  -43.2328 C.3       10 UNK         0.0316 
      9 C9         15.8414  -29.9483  -44.0253 C.ar      10 UNK        -0.0863 
     10 C10        16.8331  -30.8463  -43.6156 C.ar      10 UNK        -0.1009 
     11 C11        18.0125  -30.9914  -44.3514 C.ar      10 UNK        -0.0712 
     12 C12        18.1870  -30.2376  -45.5144 C.ar      10 UNK        -0.0894 
     13 C13        17.2272  -29.3059  -45.9154 C.ar      10 UNK        -0.0745 
     14 C14        16.0489  -29.1728  -45.1718 C.ar      10 UNK        -0.0972 
     15 C15        17.4573  -28.4605  -47.1608 C.3       10 UNK         0.0209 
     16 S16        18.5575  -27.0425  -46.8339 S.3       10 UNK        -0.2568 
     17 C17        20.2186  -27.7517  -47.1223 C.3       10 UNK        -0.0983 
     18 CA         21.2791  -27.2717  -46.0991 C.3       3 UNK         0.0876 
     19 N          20.8587  -27.4732  -44.7038 N.am      3 UNK        -0.4424 
     20 C          21.4912  -26.9717  -43.6314 C.2       2 UNK         0.4918 
     21 O          22.5663  -26.3745  -43.6984 O.2       2 UNK        -0.4875 
     22 CA         20.8038  -27.1548  -42.2709 C.3       2 UNK         0.0481 
     23 CB         21.3358  -26.1892  -41.1920 C.3       2 UNK        -0.1831 
     24 N          19.3624  -27.0006  -42.4166 N.am      2 UNK        -0.4498 
     25 C          18.4341  -27.5419  -41.6247 C.2       1 UNK         0.5027 
     26 O          18.6890  -28.1920  -40.6083 O.2       1 UNK        -0.4969 
     27 C          22.6631  -27.8806  -46.4223 C.2       3 UNK         0.5005 
     28 O          23.3381  -27.3941  -47.3305 O.2       3 UNK        -0.5279 
     29 N          23.0777  -28.9029  -45.6589 N.am      4 UNK        -0.4463 
     30 CA         24.4030  -29.5282  -45.7281 C.3       4 UNK         0.0283 
     31 CB         24.2891  -30.9872  -45.2557 C.3       4 UNK        -0.1875 
     32 C          25.4872  -28.7766  -44.9242 C.2       4 UNK         0.4949 
     33 O          26.6041  -29.2848  -44.8259 O.2       4 UNK        -0.5039 
     34 N          25.1516  -27.6072  -44.3551 N.am      5 UNK        -0.4663 
     35 CA         25.9900  -26.7497  -43.5050 C.3       5 UNK         0.0242 
     36 CB         27.2451  -26.2525  -44.2555 C.3       5 UNK        -0.1982 
     37 C          26.3052  -27.3840  -42.1359 C.2       5 UNK         0.5017 
     38 O          27.3958  -27.1883  -41.5963 O.2       5 UNK        -0.5012 
     39 N          25.3272  -28.1124  -41.5893 N.am      6 UNK        -0.4439 
     40 CA         25.3248  -28.7038  -40.2564 C.3       6 UNK         0.0297 
     41 CB         25.9607  -30.1036  -40.2999 C.3       6 UNK        -0.2006 
     42 C          23.8648  -28.7767  -39.8049 C.2       6 UNK         0.4892 
     43 O          22.9929  -28.9793  -40.6527 O.2       6 UNK        -0.5089 
     44 N          23.6168  -28.6139  -38.4986 N.am      7 UNK        -0.4243 
     45 CA         22.2805  -28.6448  -37.8928 C.3       7 UNK         0.0196 
     46 CB         22.3898  -28.3336  -36.3914 C.3       7 UNK        -0.2007 
     47 C          21.5865  -29.9967  -38.1228 C.2       7 UNK         0.5020 
     48 O          22.1594  -31.0333  -37.7784 O.2       7 UNK        -0.5147 
     49 N          20.4034  -29.9620  -38.7556 N.am      8 UNK        -0.4734 
     50 CA         19.6246  -31.1185  -39.2272 C.3       8 UNK         0.0238 
     51 CB         19.0759  -31.9319  -38.0357 C.3       8 UNK        -0.1912 
     52 C          20.3829  -31.9982  -40.2448 C.2       8 UNK         0.5038 
     53 O          20.0428  -33.1716  -40.4054 O.2       8 UNK        -0.5046 
     54 N          21.3984  -31.4182  -40.9000 N.am      9 UNK        -0.4200 
     55 CA         22.3523  -32.0721  -41.8056 C.3       9 UNK         0.0839 
     56 C          23.2894  -33.1028  -41.1074 C.2       9 UNK         0.5513 
     57 N          23.4568  -33.0569  -39.7897 N.am      9 UNK        -0.7519 
     58 O          23.9020  -33.9365  -41.7693 O.2       9 UNK        -0.4960 
     59 C59        21.6966  -32.6082  -43.1086 C.3       10 UNK        -0.0876 
     60 S60        20.7661  -31.3047  -43.9865 S.3       10 UNK        -0.2414 
     61 C61        19.0761  -31.9857  -43.9014 C.3       10 UNK         0.0169 
     62 H62        15.8721  -23.4822  -41.3570 H         1 UNK         0.0903 
     63 H63        17.3387  -22.8108  -42.0742 H         1 UNK         0.0903 
     64 H64        15.8958  -23.0412  -43.0656 H         1 UNK         0.0903 
     65 H65        16.0413  -25.6906  -41.0347 H         1 UNK         0.3096 
     66 H66        16.9503  -27.4864  -43.1240 H         1 UNK         0.1121 
     67 H67        16.3597  -29.2585  -41.3062 H         1 UNK         0.0849 
     68 H68        15.7722  -27.9349  -40.3422 H         1 UNK         0.0849 
     69 H69        14.4430  -30.6668  -42.5352 H         1 UNK         0.0865 
     70 H70        13.6966  -29.9139  -43.9173 H         1 UNK         0.0865 
     71 H71        16.6817  -31.4434  -42.7265 H         1 UNK         0.1346 
     72 H72        19.0814  -30.3789  -46.1012 H         1 UNK         0.1412 
     73 H73        15.2912  -28.4659  -45.4823 H         1 UNK         0.1426 
     74 H74        16.5047  -28.0777  -47.5301 H         1 UNK         0.0716 
     75 H75        17.8655  -29.0740  -47.9654 H         1 UNK         0.0716 
     76 H76        20.5191  -27.4635  -48.1316 H         1 UNK         0.0695 
     77 H77        20.1672  -28.8389  -47.1342 H         1 UNK         0.0695 
     78 H78        21.3887  -26.1927  -46.2307 H         1 UNK         0.0983 
     79 H79        19.9835  -27.9598  -44.5719 H         1 UNK         0.3095 
     80 H80        21.0032  -28.1819  -41.9644 H         1 UNK         0.0454 
     81 H81        20.8719  -26.3775  -40.2245 H         1 UNK         0.0851 
     82 H82        22.4120  -26.3006  -41.0578 H         1 UNK         0.0851 
     83 H83        21.1458  -25.1492  -41.4587 H         1 UNK         0.0851 
     84 H84        19.0427  -26.3970  -43.1708 H         1 UNK         0.2976 
     85 H85        22.4515  -29.2459  -44.9434 H         1 UNK         0.3116 
     86 H86        24.7296  -29.5406  -46.7700 H         1 UNK         0.0646 
     87 H87        24.0597  -31.0450  -44.1927 H         1 UNK         0.0847 
     88 H88        25.2250  -31.5249  -45.4131 H         1 UNK         0.0847 
     89 H89        23.5141  -31.5260  -45.8011 H         1 UNK         0.0847 
     90 H90        24.1969  -27.2805  -44.4659 H         1 UNK         0.3040 
     91 H91        25.3817  -25.8709  -43.2839 H         1 UNK         0.1015 
     92 H92        27.7660  -25.4878  -43.6780 H         1 UNK         0.0786 
     93 H93        26.9833  -25.8088  -45.2160 H         1 UNK         0.0786 
     94 H94        27.9572  -27.0573  -44.4390 H         1 UNK         0.0786 
     95 H95        24.4420  -28.1958  -42.0743 H         1 UNK         0.3172 
     96 H96        25.8795  -28.0633  -39.5674 H         1 UNK         0.0595 
     97 H97        25.4390  -30.7607  -40.9967 H         1 UNK         0.0839 
     98 H98        25.9316  -30.5791  -39.3187 H         1 UNK         0.0839 
     99 H99        27.0054  -30.0545  -40.6072 H         1 UNK         0.0839 
    100 H100       24.3946  -28.4869  -37.8675 H         1 UNK         0.2998 
    101 H101       21.6873  -27.8574  -38.3622 H         1 UNK         0.0822 
    102 H102       22.8283  -27.3504  -36.2193 H         1 UNK         0.0787 
    103 H103       21.4056  -28.3355  -35.9208 H         1 UNK         0.0787 
    104 H104       23.0013  -29.0714  -35.8700 H         1 UNK         0.0787 
    105 H105       20.0326  -29.0653  -39.0524 H         1 UNK         0.3055 
    106 H106       18.7694  -30.7136  -39.7701 H         1 UNK         0.1106 
    107 H107       18.5364  -31.2948  -37.3351 H         1 UNK         0.0828 
    108 H108       18.3793  -32.7003  -38.3734 H         1 UNK         0.0828 
    109 H109       19.8723  -32.4360  -37.4875 H         1 UNK         0.0828 
    110 H110       21.6258  -30.4534  -40.6844 H         1 UNK         0.2931 
    111 H111       23.0280  -31.2715  -42.1051 H         1 UNK         0.0412 
    112 H112       22.9655  -32.3738  -39.2249 H         1 UNK         0.3472 
    113 H113       24.0722  -33.7218  -39.3490 H         1 UNK         0.3472 
    114 H114       21.0483  -33.4580  -42.8901 H         1 UNK         0.0970 
    115 H115       22.4583  -32.9860  -43.7922 H         1 UNK         0.0970 
    116 H116       19.0177  -32.8771  -44.5272 H         1 UNK         0.0612 
    117 H117       18.8787  -32.3059  -42.8776 H         1 UNK         0.0612 
@<TRIPOS>BOND
     1    1    2 1    
     2    1   62 1    
     3    1   63 1    
     4    1   64 1    
     5    2    3 2    
     6    2    4 am   BACKBONE|DICT|INTERRES
     7    4    5 1    
     8    4   65 1    
     9    5    6 1    
    10    5   25 1    
    11    5   66 1    
    12    6    7 1    
    13    6   67 1    
    14    6   68 1    
    15    7    8 1    
    16    8    9 1    
    17    8   69 1    
    18    8   70 1    
    19    9   10 ar   
    20    9   14 ar   
    21   10   11 ar   
    22   10   71 1    
    23   11   12 ar   
    24   11   61 1    
    25   12   13 ar   
    26   12   72 1    
    27   13   14 ar   
    28   13   15 1    
    29   14   73 1    
    30   15   16 1    
    31   15   74 1    
    32   15   75 1    
    33   16   17 1    
    34   17   18 1    
    35   17   76 1    
    36   17   77 1    
    37   18   19 1    
    38   18   27 1    
    39   18   78 1    
    40   19   20 am   BACKBONE|DICT|INTERRES
    41   19   79 1    
    42   20   21 2    
    43   20   22 1    
    44   22   23 1    
    45   22   24 1    
    46   22   80 1    
    47   23   81 1    
    48   23   82 1    
    49   23   83 1    
    50   24   25 am   BACKBONE|DICT|INTERRES
    51   24   84 1    
    52   25   26 2    
    53   27   28 2    
    54   27   29 am   BACKBONE|DICT|INTERRES
    55   29   30 1    
    56   29   85 1    
    57   30   31 1    
    58   30   32 1    
    59   30   86 1    
    60   31   87 1    
    61   31   88 1    
    62   31   89 1    
    63   32   33 2    
    64   32   34 am   BACKBONE|DICT|INTERRES
    65   34   35 1    
    66   34   90 1    
    67   35   36 1    
    68   35   37 1    
    69   35   91 1    
    70   36   92 1    
    71   36   93 1    
    72   36   94 1    
    73   37   38 2    
    74   37   39 am   BACKBONE|DICT|INTERRES
    75   39   40 1    
    76   39   95 1    
    77   40   41 1    
    78   40   42 1    
    79   40   96 1    
    80   41   97 1    
    81   41   98 1    
    82   41   99 1    
    83   42   43 2    
    84   42   44 am   BACKBONE|DICT|INTERRES
    85   44   45 1    
    86   44  100 1    
    87   45   46 1    
    88   45   47 1    
    89   45  101 1    
    90   46  102 1    
    91   46  103 1    
    92   46  104 1    
    93   47   48 2    
    94   47   49 am   BACKBONE|DICT|INTERRES
    95   49   50 1    
    96   49  105 1    
    97   50   51 1    
    98   50   52 1    
    99   50  106 1    
   100   51  107 1    
   101   51  108 1    
   102   51  109 1    
   103   52   53 2    
   104   52   54 am   BACKBONE|DICT|INTERRES
   105   54   55 1    
   106   54  110 1    
   107   55   56 1    
   108   55   59 1    
   109   55  111 1    
   110   56   57 am   BACKBONE|DICT|INTERRES
   111   56   58 2    
   112   57  112 1    
   113   57  113 1    
   114   59   60 1    
   115   59  114 1    
   116   59  115 1    
   117   60   61 1    
   118   61  116 1    
   119   61  117 1    
@<TRIPOS>SUBSTRUCTURE
     1 UNK         1 GROUP             0       ****    0 ROOT    
