@<TRIPOS>MOLECULE
3R8
117   119    1
SMALL
USER_CHARGES


@<TRIPOS>ATOM
      1 CA         16.6658  -25.0623  -43.5996 C.3       0 UNK        -0.2013 
      2 C          15.4221  -25.7610  -43.0599 C.2       0 UNK         0.4866 
      3 O          14.5143  -25.0880  -42.5768 O.2       0 UNK        -0.5176 
      4 N          15.3280  -27.0975  -43.1059 N.am      1 UNK        -0.4884 
      5 CA         16.3218  -28.0464  -43.6345 C.3       1 UNK         0.0853 
      6 C6         15.6429  -29.3092  -44.2233 C.3       10 UNK        -0.0849 
      7 S7         14.8757  -28.9103  -45.8328 S.3       10 UNK        -0.2776 
      8 C8         15.9469  -29.7783  -47.0349 C.3       10 UNK         0.0316 
      9 C9         17.4396  -29.6065  -46.7672 C.ar      10 UNK        -0.0863 
     10 C10        18.2275  -30.7270  -46.4868 C.ar      10 UNK        -0.1009 
     11 C11        19.5929  -30.5938  -46.2121 C.ar      10 UNK        -0.0712 
     12 C12        20.1712  -29.3212  -46.2330 C.ar      10 UNK        -0.0894 
     13 C13        19.3985  -28.1917  -46.5209 C.ar      10 UNK        -0.0745 
     14 C14        18.0357  -28.3419  -46.7992 C.ar      10 UNK        -0.0972 
     15 C15        20.0351  -26.8099  -46.5508 C.3       10 UNK         0.0209 
     16 S16        19.9043  -25.9682  -44.9424 S.3       10 UNK        -0.2568 
     17 C17        21.3723  -26.6052  -44.0691 C.3       10 UNK        -0.0983 
     18 CA         21.2749  -26.3989  -42.5381 C.3       3 UNK         0.0876 
     19 N          20.1830  -27.1756  -41.9574 N.am      3 UNK        -0.4424 
     20 C          19.6256  -26.9688  -40.7599 C.2       2 UNK         0.4918 
     21 O          19.9860  -26.0803  -39.9868 O.2       2 UNK        -0.4875 
     22 CA         18.4348  -27.8836  -40.3943 C.3       2 UNK         0.0481 
     23 CB         17.8397  -27.5619  -39.0118 C.3       2 UNK        -0.1831 
     24 N          17.3711  -27.8257  -41.4031 N.am      2 UNK        -0.4498 
     25 C          17.4232  -28.3999  -42.6145 C.2       1 UNK         0.5027 
     26 O          18.3461  -29.1367  -42.9605 O.2       1 UNK        -0.4969 
     27 C          22.6025  -26.7759  -41.8613 C.2       3 UNK         0.5005 
     28 O          22.9660  -27.9545  -41.8632 O.2       3 UNK        -0.5279 
     29 N          23.3272  -25.7679  -41.3522 N.am      4 UNK        -0.4463 
     30 CA         24.6219  -25.9090  -40.6717 C.3       4 UNK         0.0283 
     31 CB         25.0780  -24.5381  -40.1485 C.3       4 UNK        -0.1875 
     32 C          25.7234  -26.5450  -41.5377 C.2       4 UNK         0.4949 
     33 O          26.6027  -27.2164  -40.9988 O.2       4 UNK        -0.5039 
     34 N          25.6232  -26.3794  -42.8646 N.am      5 UNK        -0.4663 
     35 CA         26.4747  -27.0280  -43.8679 C.3       5 UNK         0.0242 
     36 CB         26.1360  -26.4550  -45.2537 C.3       5 UNK        -0.1982 
     37 C          26.3650  -28.5662  -43.8830 C.2       5 UNK         0.5017 
     38 O          27.2959  -29.2254  -44.3462 O.2       5 UNK        -0.5012 
     39 N          25.2516  -29.1043  -43.3671 N.am      6 UNK        -0.4439 
     40 CA         24.9998  -30.5322  -43.1787 C.3       6 UNK         0.0297 
     41 CB         23.7603  -30.9216  -44.0055 C.3       6 UNK        -0.2006 
     42 C          24.8091  -30.8589  -41.6855 C.2       6 UNK         0.4892 
     43 O          24.1645  -31.8618  -41.3713 O.2       6 UNK        -0.5089 
     44 N          25.3237  -29.9961  -40.7923 N.am      7 UNK        -0.4243 
     45 CA         25.1325  -29.9557  -39.3354 C.3       7 UNK         0.0196 
     46 CB         25.6825  -31.2192  -38.6421 C.3       7 UNK        -0.2007 
     47 C          23.6741  -29.6617  -38.9417 C.2       7 UNK         0.5020 
     48 O          23.3979  -28.6098  -38.3658 O.2       7 UNK        -0.5147 
     49 N          22.7736  -30.5871  -39.2812 N.am      8 UNK        -0.4734 
     50 CA         21.3219  -30.4548  -39.1693 C.3       8 UNK         0.0238 
     51 CB         20.8728  -30.7774  -37.7303 C.3       8 UNK        -0.1912 
     52 C          20.5774  -31.3121  -40.2126 C.2       8 UNK         0.5038 
     53 O          19.3613  -31.4626  -40.0897 O.2       8 UNK        -0.5046 
     54 N          21.2934  -31.8716  -41.2022 N.am      9 UNK        -0.4200 
     55 CA         20.7817  -32.8305  -42.1934 C.3       9 UNK         0.0839 
     56 C          20.2889  -34.1632  -41.5415 C.2       9 UNK         0.5513 
     57 N          19.4136  -34.9158  -42.1931 N.am      9 UNK        -0.7519 
     58 O          20.7362  -34.5526  -40.4639 O.2       9 UNK        -0.4960 
     59 C59        19.7848  -32.1636  -43.1895 C.3       10 UNK        -0.0876 
     60 S60        19.7003  -33.0225  -44.8005 S.3       10 UNK        -0.2414 
     61 C61        20.4621  -31.8178  -45.9377 C.3       10 UNK         0.0169 
     62 H62        17.5639  -25.4064  -43.0884 H         1 UNK         0.0903 
     63 H63        16.7772  -25.2375  -44.6693 H         1 UNK         0.0903 
     64 H64        16.5950  -23.9854  -43.4485 H         1 UNK         0.0903 
     65 H65        14.4831  -27.5235  -42.7510 H         1 UNK         0.3096 
     66 H66        16.8650  -27.5646  -44.4478 H         1 UNK         0.1121 
     67 H67        16.3497  -30.1300  -44.3575 H         1 UNK         0.0849 
     68 H68        14.8776  -29.6917  -43.5459 H         1 UNK         0.0849 
     69 H69        15.6765  -30.8354  -47.0326 H         1 UNK         0.0865 
     70 H70        15.7209  -29.4120  -48.0373 H         1 UNK         0.0865 
     71 H71        17.7765  -31.7096  -46.4775 H         1 UNK         0.1346 
     72 H72        21.2282  -29.2106  -46.0349 H         1 UNK         0.1412 
     73 H73        17.4326  -27.4722  -47.0225 H         1 UNK         0.1426 
     74 H74        21.0816  -26.8730  -46.8531 H         1 UNK         0.0716 
     75 H75        19.5401  -26.1965  -47.3052 H         1 UNK         0.0716 
     76 H76        21.5023  -27.6634  -44.2995 H         1 UNK         0.0695 
     77 H77        22.2452  -26.0905  -44.4758 H         1 UNK         0.0695 
     78 H78        21.0731  -25.3422  -42.3482 H         1 UNK         0.0983 
     79 H79        19.8155  -27.9331  -42.5251 H         1 UNK         0.3095 
     80 H80        18.8143  -28.9039  -40.3561 H         1 UNK         0.0454 
     81 H81        17.4330  -26.5508  -38.9709 H         1 UNK         0.0851 
     82 H82        17.0411  -28.2571  -38.7525 H         1 UNK         0.0851 
     83 H83        18.5989  -27.6408  -38.2324 H         1 UNK         0.0851 
     84 H84        16.5858  -27.2233  -41.2008 H         1 UNK         0.2976 
     85 H85        22.9505  -24.8315  -41.3991 H         1 UNK         0.3116 
     86 H86        24.4676  -26.5658  -39.8138 H         1 UNK         0.0646 
     87 H87        26.0269  -24.6202  -39.6163 H         1 UNK         0.0847 
     88 H88        24.3545  -24.1179  -39.4497 H         1 UNK         0.0847 
     89 H89        25.2208  -23.8218  -40.9586 H         1 UNK         0.0847 
     90 H90        24.8722  -25.8017  -43.2130 H         1 UNK         0.3040 
     91 H91        27.5128  -26.7812  -43.6341 H         1 UNK         0.1015 
     92 H92        26.2903  -25.3763  -45.2870 H         1 UNK         0.0786 
     93 H93        25.1008  -26.6568  -45.5325 H         1 UNK         0.0786 
     94 H94        26.7719  -26.8942  -46.0239 H         1 UNK         0.0786 
     95 H95        24.5421  -28.4893  -42.9758 H         1 UNK         0.3172 
     96 H96        25.8480  -31.1247  -43.5265 H         1 UNK         0.0595 
     97 H97        23.5762  -31.9955  -43.9583 H         1 UNK         0.0839 
     98 H98        23.8898  -30.6650  -45.0569 H         1 UNK         0.0839 
     99 H99        22.8624  -30.4168  -43.6452 H         1 UNK         0.0839 
    100 H100       25.8234  -29.1950  -41.1614 H         1 UNK         0.2998 
    101 H101       25.7264  -29.1100  -38.9844 H         1 UNK         0.0822 
    102 H102       26.7400  -31.3602  -38.8651 H         1 UNK         0.0787 
    103 H103       25.5886  -31.1368  -37.5586 H         1 UNK         0.0787 
    104 H104       25.1563  -32.1252  -38.9429 H         1 UNK         0.0787 
    105 H105       23.1268  -31.4041  -39.7685 H         1 UNK         0.3055 
    106 H106       21.0597  -29.4178  -39.3889 H         1 UNK         0.1106 
    107 H107       19.7976  -30.6379  -37.6113 H         1 UNK         0.0828 
    108 H108       21.1013  -31.8098  -37.4634 H         1 UNK         0.0828 
    109 H109       21.3603  -30.1270  -37.0041 H         1 UNK         0.0828 
    110 H110       22.2964  -31.7258  -41.2431 H         1 UNK         0.2931 
    111 H111       21.6688  -33.1132  -42.7609 H         1 UNK         0.0412 
    112 H112       19.1055  -35.7863  -41.7891 H         1 UNK         0.3472 
    113 H113       19.0752  -34.6246  -43.0990 H         1 UNK         0.3472 
    114 H114       20.0825  -31.1302  -43.3732 H         1 UNK         0.0970 
    115 H115       18.7838  -32.1025  -42.7588 H         1 UNK         0.0970 
    116 H116       21.4326  -31.5250  -45.5373 H         1 UNK         0.0612 
    117 H117       20.6589  -32.3171  -46.8870 H         1 UNK         0.0612 
@<TRIPOS>BOND
     1    1    2 1    
     2    1   62 1    
     3    1   63 1    
     4    1   64 1    
     5    2    3 2    
     6    2    4 am   BACKBONE|DICT|INTERRES
     7    4    5 1    
     8    4   65 1    
     9    5    6 1    
    10    5   25 1    
    11    5   66 1    
    12    6    7 1    
    13    6   67 1    
    14    6   68 1    
    15    7    8 1    
    16    8    9 1    
    17    8   69 1    
    18    8   70 1    
    19    9   10 ar   
    20    9   14 ar   
    21   10   11 ar   
    22   10   71 1    
    23   11   12 ar   
    24   11   61 1    
    25   12   13 ar   
    26   12   72 1    
    27   13   14 ar   
    28   13   15 1    
    29   14   73 1    
    30   15   16 1    
    31   15   74 1    
    32   15   75 1    
    33   16   17 1    
    34   17   18 1    
    35   17   76 1    
    36   17   77 1    
    37   18   19 1    
    38   18   27 1    
    39   18   78 1    
    40   19   20 am   BACKBONE|DICT|INTERRES
    41   19   79 1    
    42   20   21 2    
    43   20   22 1    
    44   22   23 1    
    45   22   24 1    
    46   22   80 1    
    47   23   81 1    
    48   23   82 1    
    49   23   83 1    
    50   24   25 am   BACKBONE|DICT|INTERRES
    51   24   84 1    
    52   25   26 2    
    53   27   28 2    
    54   27   29 am   BACKBONE|DICT|INTERRES
    55   29   30 1    
    56   29   85 1    
    57   30   31 1    
    58   30   32 1    
    59   30   86 1    
    60   31   87 1    
    61   31   88 1    
    62   31   89 1    
    63   32   33 2    
    64   32   34 am   BACKBONE|DICT|INTERRES
    65   34   35 1    
    66   34   90 1    
    67   35   36 1    
    68   35   37 1    
    69   35   91 1    
    70   36   92 1    
    71   36   93 1    
    72   36   94 1    
    73   37   38 2    
    74   37   39 am   BACKBONE|DICT|INTERRES
    75   39   40 1    
    76   39   95 1    
    77   40   41 1    
    78   40   42 1    
    79   40   96 1    
    80   41   97 1    
    81   41   98 1    
    82   41   99 1    
    83   42   43 2    
    84   42   44 am   BACKBONE|DICT|INTERRES
    85   44   45 1    
    86   44  100 1    
    87   45   46 1    
    88   45   47 1    
    89   45  101 1    
    90   46  102 1    
    91   46  103 1    
    92   46  104 1    
    93   47   48 2    
    94   47   49 am   BACKBONE|DICT|INTERRES
    95   49   50 1    
    96   49  105 1    
    97   50   51 1    
    98   50   52 1    
    99   50  106 1    
   100   51  107 1    
   101   51  108 1    
   102   51  109 1    
   103   52   53 2    
   104   52   54 am   BACKBONE|DICT|INTERRES
   105   54   55 1    
   106   54  110 1    
   107   55   56 1    
   108   55   59 1    
   109   55  111 1    
   110   56   57 am   BACKBONE|DICT|INTERRES
   111   56   58 2    
   112   57  112 1    
   113   57  113 1    
   114   59   60 1    
   115   59  114 1    
   116   59  115 1    
   117   60   61 1    
   118   61  116 1    
   119   61  117 1    
@<TRIPOS>SUBSTRUCTURE
     1 UNK         1 GROUP             0       ****    0 ROOT    
