@<TRIPOS>MOLECULE
3R8
117   119    1
SMALL
USER_CHARGES


@<TRIPOS>ATOM
      1 CA         14.0356  -23.9962  -41.1761 C.3       0 UNK        -0.2013 
      2 C          14.6988  -24.3875  -42.4881 C.2       0 UNK         0.4866 
      3 O          15.3409  -23.5505  -43.1225 O.2       0 UNK        -0.5176 
      4 N          14.5468  -25.6533  -42.9013 N.am      1 UNK        -0.4884 
      5 CA         15.1337  -26.2074  -44.1297 C.3       1 UNK         0.0853 
      6 C6         14.4339  -27.5332  -44.5276 C.3       10 UNK        -0.0849 
      7 S7         14.6165  -27.9304  -46.3002 S.3       10 UNK        -0.2776 
      8 C8         15.2879  -29.6248  -46.2524 C.3       10 UNK         0.0316 
      9 C9         16.7538  -29.6783  -45.8371 C.ar      10 UNK        -0.0863 
     10 C10        17.1193  -30.1974  -44.5912 C.ar      10 UNK        -0.1009 
     11 C11        18.4677  -30.3181  -44.2401 C.ar      10 UNK        -0.0712 
     12 C12        19.4567  -29.9042  -45.1380 C.ar      10 UNK        -0.0894 
     13 C13        19.1040  -29.3715  -46.3813 C.ar      10 UNK        -0.0745 
     14 C14        17.7519  -29.2626  -46.7246 C.ar      10 UNK        -0.0972 
     15 C15        20.1768  -28.9565  -47.3781 C.3       10 UNK         0.0209 
     16 S16        20.5523  -27.1770  -47.2857 S.3       10 UNK        -0.2568 
     17 C17        21.8437  -27.1015  -45.9982 C.3       10 UNK        -0.0983 
     18 CA         21.4379  -26.1893  -44.8139 C.3       3 UNK         0.0876 
     19 N          20.3202  -26.7614  -44.0642 N.am      3 UNK        -0.4424 
     20 C          19.6135  -26.1387  -43.1148 C.2       2 UNK         0.4918 
     21 O          19.7759  -24.9641  -42.7770 O.2       2 UNK        -0.4875 
     22 CA         18.5288  -26.9916  -42.4339 C.3       2 UNK         0.0481 
     23 CB         18.6725  -26.9437  -40.9036 C.3       2 UNK        -0.1831 
     24 N          17.1537  -26.6394  -42.8006 N.am      2 UNK        -0.4498 
     25 C          16.6644  -26.3874  -44.0272 C.2       1 UNK         0.5027 
     26 O          17.3445  -26.2994  -45.0489 O.2       1 UNK        -0.4969 
     27 C          22.6519  -25.9164  -43.9012 C.2       3 UNK         0.5005 
     28 O          22.8214  -26.5811  -42.8742 O.2       3 UNK        -0.5279 
     29 N          23.5065  -24.9752  -44.3306 N.am      4 UNK        -0.4463 
     30 CA         24.7013  -24.4904  -43.6231 C.3       4 UNK         0.0283 
     31 CB         25.3298  -23.3440  -44.4327 C.3       4 UNK        -0.1875 
     32 C          25.7646  -25.5578  -43.2949 C.2       4 UNK         0.4949 
     33 O          26.6194  -25.3069  -42.4451 O.2       4 UNK        -0.5039 
     34 N          25.6880  -26.7275  -43.9453 N.am      5 UNK        -0.4663 
     35 CA         26.4768  -27.9205  -43.6271 C.3       5 UNK         0.0242 
     36 CB         26.2425  -28.9824  -44.7138 C.3       5 UNK        -0.1982 
     37 C          26.1741  -28.5038  -42.2320 C.2       5 UNK         0.5017 
     38 O          27.0580  -29.1391  -41.6560 O.2       5 UNK        -0.5012 
     39 N          24.9564  -28.2627  -41.7148 N.am      6 UNK        -0.4439 
     40 CA         24.4528  -28.6626  -40.3974 C.3       6 UNK         0.0297 
     41 CB         25.1393  -27.8346  -39.2870 C.3       6 UNK        -0.2006 
     42 C          24.5194  -30.1885  -40.1879 C.2       6 UNK         0.4892 
     43 O          23.7817  -30.9121  -40.8598 O.2       6 UNK        -0.5089 
     44 N          25.3701  -30.6432  -39.2525 N.am      7 UNK        -0.4243 
     45 CA         25.6603  -32.0448  -38.9095 C.3       7 UNK         0.0196 
     46 CB         26.4395  -32.7196  -40.0587 C.3       7 UNK        -0.2007 
     47 C          24.4162  -32.8547  -38.4909 C.2       7 UNK         0.5020 
     48 O          24.3424  -34.0537  -38.7652 O.2       7 UNK        -0.5147 
     49 N          23.4360  -32.1705  -37.8791 N.am      8 UNK        -0.4734 
     50 CA         22.1034  -32.6687  -37.5035 C.3       8 UNK         0.0238 
     51 CB         22.2134  -33.6747  -36.3376 C.3       8 UNK        -0.1912 
     52 C          21.2906  -33.2311  -38.6918 C.2       8 UNK         0.5038 
     53 O          20.4173  -34.0751  -38.4832 O.2       8 UNK        -0.5046 
     54 N          21.5963  -32.7648  -39.9126 N.am      9 UNK        -0.4200 
     55 CA         21.0757  -33.2784  -41.1877 C.3       9 UNK         0.0839 
     56 C          21.5969  -34.7018  -41.5652 C.2       9 UNK         0.5513 
     57 N          22.6533  -35.2122  -40.9413 N.am      9 UNK        -0.7519 
     58 O          21.0555  -35.3528  -42.4547 O.2       9 UNK        -0.4960 
     59 C59        19.5302  -33.1193  -41.3061 C.3       10 UNK        -0.0876 
     60 S60        18.9913  -32.7181  -43.0012 S.3       10 UNK        -0.2414 
     61 C61        18.8555  -30.9095  -42.8950 C.3       10 UNK         0.0169 
     62 H62        14.7860  -23.6525  -40.4646 H         1 UNK         0.0903 
     63 H63        13.3267  -23.1853  -41.3416 H         1 UNK         0.0903 
     64 H64        13.4973  -24.8296  -40.7251 H         1 UNK         0.0903 
     65 H65        13.9940  -26.2920  -42.3460 H         1 UNK         0.3096 
     66 H66        14.9554  -25.4782  -44.9240 H         1 UNK         0.1121 
     67 H67        13.3612  -27.4558  -44.3425 H         1 UNK         0.0849 
     68 H68        14.7794  -28.3634  -43.9087 H         1 UNK         0.0849 
     69 H69        14.6727  -30.2404  -45.5941 H         1 UNK         0.0865 
     70 H70        15.1893  -30.0637  -47.2464 H         1 UNK         0.0865 
     71 H71        16.3567  -30.5326  -43.9014 H         1 UNK         0.1346 
     72 H72        20.5001  -30.0150  -44.8754 H         1 UNK         0.1412 
     73 H73        17.4742  -28.8617  -47.6900 H         1 UNK         0.1426 
     74 H74        21.0864  -29.5424  -47.2371 H         1 UNK         0.0716 
     75 H75        19.8341  -29.1822  -48.3891 H         1 UNK         0.0716 
     76 H76        22.7460  -26.7274  -46.4859 H         1 UNK         0.0695 
     77 H77        22.0880  -28.1050  -45.6451 H         1 UNK         0.0695 
     78 H78        21.1024  -25.2278  -45.2093 H         1 UNK         0.0983 
     79 H79        20.0625  -27.7041  -44.3142 H         1 UNK         0.3095 
     80 H80        18.6740  -28.0275  -42.7368 H         1 UNK         0.0454 
     81 H81        18.0012  -27.6511  -40.4166 H         1 UNK         0.0851 
     82 H82        18.4584  -25.9493  -40.5099 H         1 UNK         0.0851 
     83 H83        19.6879  -27.2020  -40.5993 H         1 UNK         0.0851 
     84 H84        16.4871  -26.6370  -42.0432 H         1 UNK         0.2976 
     85 H85        23.2965  -24.5064  -45.2010 H         1 UNK         0.3116 
     86 H86        24.3625  -24.0846  -42.6677 H         1 UNK         0.0646 
     87 H87        24.6268  -22.5231  -44.5751 H         1 UNK         0.0847 
     88 H88        26.2004  -22.9327  -43.9194 H         1 UNK         0.0847 
     89 H89        25.6618  -23.6792  -45.4162 H         1 UNK         0.0847 
     90 H90        24.9608  -26.8339  -44.6366 H         1 UNK         0.3040 
     91 H91        27.5321  -27.6387  -43.6396 H         1 UNK         0.1015 
     92 H92        25.1972  -29.2913  -44.7585 H         1 UNK         0.0786 
     93 H93        26.8378  -29.8759  -44.5199 H         1 UNK         0.0786 
     94 H94        26.5278  -28.6131  -45.6991 H         1 UNK         0.0786 
     95 H95        24.2972  -27.7281  -42.2761 H         1 UNK         0.3172 
     96 H96        23.3930  -28.4031  -40.3885 H         1 UNK         0.0595 
     97 H97        26.2180  -27.9922  -39.2560 H         1 UNK         0.0839 
     98 H98        24.7350  -28.0765  -38.3031 H         1 UNK         0.0839 
     99 H99        24.9731  -26.7684  -39.4426 H         1 UNK         0.0839 
    100 H100       25.9206  -29.9541  -38.7591 H         1 UNK         0.2998 
    101 H101       26.3125  -32.0211  -38.0353 H         1 UNK         0.0822 
    102 H102       26.7860  -33.7128  -39.7704 H         1 UNK         0.0787 
    103 H103       25.8217  -32.8355  -40.9501 H         1 UNK         0.0787 
    104 H104       27.3191  -32.1382  -40.3359 H         1 UNK         0.0787 
    105 H105       23.5965  -31.1866  -37.7114 H         1 UNK         0.3055 
    106 H106       21.5406  -31.8059  -37.1433 H         1 UNK         0.1106 
    107 H107       22.7772  -33.2567  -35.5039 H         1 UNK         0.0828 
    108 H108       21.2278  -33.9436  -35.9557 H         1 UNK         0.0828 
    109 H109       22.7046  -34.5983  -36.6455 H         1 UNK         0.0828 
    110 H110       22.3526  -32.0941  -40.0037 H         1 UNK         0.2931 
    111 H111       21.5328  -32.6184  -41.9261 H         1 UNK         0.0412 
    112 H112       22.9804  -36.1282  -41.2041 H         1 UNK         0.3472 
    113 H113       23.1290  -34.7036  -40.2029 H         1 UNK         0.3472 
    114 H114       19.0182  -34.0241  -40.9734 H         1 UNK         0.0970 
    115 H115       19.1735  -32.3293  -40.6434 H         1 UNK         0.0970 
    116 H116       19.8066  -30.4933  -42.5584 H         1 UNK         0.0612 
    117 H117       18.1134  -30.6419  -42.1411 H         1 UNK         0.0612 
@<TRIPOS>BOND
     1    1    2 1    
     2    1   62 1    
     3    1   63 1    
     4    1   64 1    
     5    2    3 2    
     6    2    4 am   BACKBONE|DICT|INTERRES
     7    4    5 1    
     8    4   65 1    
     9    5    6 1    
    10    5   25 1    
    11    5   66 1    
    12    6    7 1    
    13    6   67 1    
    14    6   68 1    
    15    7    8 1    
    16    8    9 1    
    17    8   69 1    
    18    8   70 1    
    19    9   10 ar   
    20    9   14 ar   
    21   10   11 ar   
    22   10   71 1    
    23   11   12 ar   
    24   11   61 1    
    25   12   13 ar   
    26   12   72 1    
    27   13   14 ar   
    28   13   15 1    
    29   14   73 1    
    30   15   16 1    
    31   15   74 1    
    32   15   75 1    
    33   16   17 1    
    34   17   18 1    
    35   17   76 1    
    36   17   77 1    
    37   18   19 1    
    38   18   27 1    
    39   18   78 1    
    40   19   20 am   BACKBONE|DICT|INTERRES
    41   19   79 1    
    42   20   21 2    
    43   20   22 1    
    44   22   23 1    
    45   22   24 1    
    46   22   80 1    
    47   23   81 1    
    48   23   82 1    
    49   23   83 1    
    50   24   25 am   BACKBONE|DICT|INTERRES
    51   24   84 1    
    52   25   26 2    
    53   27   28 2    
    54   27   29 am   BACKBONE|DICT|INTERRES
    55   29   30 1    
    56   29   85 1    
    57   30   31 1    
    58   30   32 1    
    59   30   86 1    
    60   31   87 1    
    61   31   88 1    
    62   31   89 1    
    63   32   33 2    
    64   32   34 am   BACKBONE|DICT|INTERRES
    65   34   35 1    
    66   34   90 1    
    67   35   36 1    
    68   35   37 1    
    69   35   91 1    
    70   36   92 1    
    71   36   93 1    
    72   36   94 1    
    73   37   38 2    
    74   37   39 am   BACKBONE|DICT|INTERRES
    75   39   40 1    
    76   39   95 1    
    77   40   41 1    
    78   40   42 1    
    79   40   96 1    
    80   41   97 1    
    81   41   98 1    
    82   41   99 1    
    83   42   43 2    
    84   42   44 am   BACKBONE|DICT|INTERRES
    85   44   45 1    
    86   44  100 1    
    87   45   46 1    
    88   45   47 1    
    89   45  101 1    
    90   46  102 1    
    91   46  103 1    
    92   46  104 1    
    93   47   48 2    
    94   47   49 am   BACKBONE|DICT|INTERRES
    95   49   50 1    
    96   49  105 1    
    97   50   51 1    
    98   50   52 1    
    99   50  106 1    
   100   51  107 1    
   101   51  108 1    
   102   51  109 1    
   103   52   53 2    
   104   52   54 am   BACKBONE|DICT|INTERRES
   105   54   55 1    
   106   54  110 1    
   107   55   56 1    
   108   55   59 1    
   109   55  111 1    
   110   56   57 am   BACKBONE|DICT|INTERRES
   111   56   58 2    
   112   57  112 1    
   113   57  113 1    
   114   59   60 1    
   115   59  114 1    
   116   59  115 1    
   117   60   61 1    
   118   61  116 1    
   119   61  117 1    
@<TRIPOS>SUBSTRUCTURE
     1 UNK         1 GROUP             0       ****    0 ROOT    
