@<TRIPOS>MOLECULE
3R8
117   119    1
SMALL
USER_CHARGES


@<TRIPOS>ATOM
      1 CA         14.1906  -22.8117  -44.9033 C.3       0 UNK        -0.2013 
      2 C          14.9225  -23.7790  -43.9842 C.2       0 UNK         0.4866 
      3 O          15.1987  -23.4311  -42.8359 O.2       0 UNK        -0.5176 
      4 N          15.2244  -24.9855  -44.4864 N.am      1 UNK        -0.4884 
      5 CA         15.9717  -26.0655  -43.8233 C.3       1 UNK         0.0853 
      6 C6         15.3231  -26.5024  -42.4751 C.3       10 UNK        -0.0849 
      7 S7         15.8044  -28.1373  -41.8080 S.3       10 UNK        -0.2776 
      8 C8         15.3069  -29.3118  -43.1101 C.3       10 UNK         0.0316 
      9 C9         16.4775  -29.6795  -44.0141 C.ar      10 UNK        -0.0863 
     10 C10        17.5631  -30.3943  -43.4964 C.ar      10 UNK        -0.1009 
     11 C11        18.6353  -30.7535  -44.3180 C.ar      10 UNK        -0.0712 
     12 C12        18.6143  -30.3994  -45.6690 C.ar      10 UNK        -0.0894 
     13 C13        17.5360  -29.6859  -46.2002 C.ar      10 UNK        -0.0745 
     14 C14        16.4667  -29.3383  -45.3703 C.ar      10 UNK        -0.0972 
     15 C15        17.5047  -29.3156  -47.6760 C.3       10 UNK         0.0209 
     16 S16        18.2599  -27.6873  -47.9856 S.3       10 UNK        -0.2568 
     17 C17        20.0401  -28.0844  -47.9031 C.3       10 UNK        -0.0983 
     18 CA         20.8025  -27.2866  -46.8162 C.3       3 UNK         0.0876 
     19 N          20.1706  -27.3618  -45.4916 N.am      3 UNK        -0.4424 
     20 C          20.4453  -26.5227  -44.4828 C.2       2 UNK         0.4918 
     21 O          21.2112  -25.5622  -44.5804 O.2       2 UNK        -0.4875 
     22 CA         19.7145  -26.8026  -43.1573 C.3       2 UNK         0.0481 
     23 CB         20.1681  -25.8813  -42.0066 C.3       2 UNK        -0.1831 
     24 N          18.2565  -26.7784  -43.3036 N.am      2 UNK        -0.4498 
     25 C          17.4887  -25.7666  -43.7342 C.2       1 UNK         0.5027 
     26 O          17.9339  -24.6693  -44.0806 O.2       1 UNK        -0.4969 
     27 C          22.2838  -27.7241  -46.7768 C.2       3 UNK         0.5005 
     28 O          23.0799  -27.2347  -47.5804 O.2       3 UNK        -0.5279 
     29 N          22.6204  -28.6273  -45.8458 N.am      4 UNK        -0.4463 
     30 CA         23.9814  -29.0467  -45.5134 C.3       4 UNK         0.0283 
     31 CB         24.0530  -30.5867  -45.5381 C.3       4 UNK        -0.1875 
     32 C          24.3683  -28.4620  -44.1420 C.2       4 UNK         0.4949 
     33 O          23.6926  -27.5604  -43.6407 O.2       4 UNK        -0.5039 
     34 N          25.4655  -28.9644  -43.5618 N.am      5 UNK        -0.4663 
     35 CA         25.9698  -28.5570  -42.2478 C.3       5 UNK         0.0242 
     36 CB         27.3107  -29.2633  -41.9877 C.3       5 UNK        -0.1982 
     37 C          24.9816  -28.8752  -41.1129 C.2       5 UNK         0.5017 
     38 O          24.3145  -29.9118  -41.1540 O.2       5 UNK        -0.5012 
     39 N          24.9608  -28.0193  -40.0818 N.am      6 UNK        -0.4439 
     40 CA         24.1291  -28.1743  -38.8810 C.3       6 UNK         0.0297 
     41 CB         24.2659  -26.9241  -37.9980 C.3       6 UNK        -0.2006 
     42 C          24.4372  -29.4456  -38.0677 C.2       6 UNK         0.4892 
     43 O          23.5466  -29.9568  -37.3910 O.2       6 UNK        -0.5089 
     44 N          25.6700  -29.9596  -38.1826 N.am      7 UNK        -0.4243 
     45 CA         26.0915  -31.2491  -37.6308 C.3       7 UNK         0.0196 
     46 CB         27.6179  -31.3769  -37.7634 C.3       7 UNK        -0.2007 
     47 C          25.3924  -32.4550  -38.2890 C.2       7 UNK         0.5020 
     48 O          25.2742  -33.4980  -37.6455 O.2       7 UNK        -0.5147 
     49 N          24.9464  -32.3000  -39.5437 N.am      8 UNK        -0.4734 
     50 CA         24.1858  -33.3062  -40.2824 C.3       8 UNK         0.0238 
     51 CB         24.6257  -33.3086  -41.7576 C.3       8 UNK        -0.1912 
     52 C          22.6780  -33.0468  -40.1630 C.2       8 UNK         0.5038 
     53 O          21.9336  -33.9765  -39.8484 O.2       8 UNK        -0.5046 
     54 N          22.2553  -31.8032  -40.4297 N.am      9 UNK        -0.4200 
     55 CA         20.8382  -31.4066  -40.4695 C.3       9 UNK         0.0839 
     56 C          20.1724  -31.1835  -39.0837 C.2       9 UNK         0.5513 
     57 N          20.9120  -31.0277  -37.9942 N.am      9 UNK        -0.7519 
     58 O          18.9477  -31.1652  -38.9946 O.2       9 UNK        -0.4960 
     59 C59        20.5930  -30.1977  -41.4109 C.3       10 UNK        -0.0876 
     60 S60        21.1354  -30.5106  -43.1256 S.3       10 UNK        -0.2414 
     61 C61        19.7973  -31.5651  -43.7670 C.3       10 UNK         0.0169 
     62 H62        13.2372  -22.5230  -44.4616 H         1 UNK         0.0903 
     63 H63        13.9918  -23.2473  -45.8824 H         1 UNK         0.0903 
     64 H64        14.7857  -21.9105  -45.0483 H         1 UNK         0.0903 
     65 H65        14.9837  -25.1735  -45.4502 H         1 UNK         0.3096 
     66 H66        15.8829  -26.8938  -44.5195 H         1 UNK         0.1121 
     67 H67        15.5301  -25.7617  -41.7010 H         1 UNK         0.0849 
     68 H68        14.2371  -26.5141  -42.5816 H         1 UNK         0.0849 
     69 H69        14.9350  -30.2208  -42.6351 H         1 UNK         0.0865 
     70 H70        14.4700  -28.9068  -43.6815 H         1 UNK         0.0865 
     71 H71        17.5644  -30.6810  -42.4535 H         1 UNK         0.1346 
     72 H72        19.4326  -30.6999  -46.3080 H         1 UNK         0.1412 
     73 H73        15.6213  -28.8096  -45.7894 H         1 UNK         0.1426 
     74 H74        18.0048  -30.0785  -48.2748 H         1 UNK         0.0716 
     75 H75        16.4719  -29.2911  -48.0270 H         1 UNK         0.0716 
     76 H76        20.4642  -27.8653  -48.8849 H         1 UNK         0.0695 
     77 H77        20.1751  -29.1567  -47.7636 H         1 UNK         0.0695 
     78 H78        20.7934  -26.2366  -47.1179 H         1 UNK         0.0983 
     79 H79        19.4835  -28.0908  -45.3583 H         1 UNK         0.3095 
     80 H80        19.9725  -27.8216  -42.8748 H         1 UNK         0.0454 
     81 H81        19.6783  -26.1463  -41.0699 H         1 UNK         0.0851 
     82 H82        19.9514  -24.8331  -42.2148 H         1 UNK         0.0851 
     83 H83        21.2439  -25.9654  -41.8456 H         1 UNK         0.0851 
     84 H84        17.7804  -27.6327  -43.0394 H         1 UNK         0.2976 
     85 H85        21.9105  -28.9093  -45.1839 H         1 UNK         0.3116 
     86 H86        24.6892  -28.6564  -46.2473 H         1 UNK         0.0646 
     87 H87        23.6363  -30.9874  -46.4623 H         1 UNK         0.0847 
     88 H88        25.0835  -30.9377  -45.4796 H         1 UNK         0.0847 
     89 H89        23.5099  -31.0359  -44.7068 H         1 UNK         0.0847 
     90 H90        25.9576  -29.7158  -44.0218 H         1 UNK         0.3040 
     91 H91        26.1365  -27.4779  -42.2762 H         1 UNK         0.1015 
     92 H92        27.1961  -30.3481  -41.9571 H         1 UNK         0.0786 
     93 H93        27.7407  -28.9542  -41.0341 H         1 UNK         0.0786 
     94 H94        28.0420  -29.0249  -42.7604 H         1 UNK         0.0786 
     95 H95        25.5484  -27.1981  -40.1195 H         1 UNK         0.3172 
     96 H96        23.0901  -28.2470  -39.2100 H         1 UNK         0.0595 
     97 H97        25.2916  -26.7791  -37.6565 H         1 UNK         0.0839 
     98 H98        23.6360  -27.0034  -37.1105 H         1 UNK         0.0839 
     99 H99        23.9568  -26.0245  -38.5307 H         1 UNK         0.0839 
    100 H100       26.3426  -29.4629  -38.7473 H         1 UNK         0.2998 
    101 H101       25.8349  -31.2611  -36.5692 H         1 UNK         0.0822 
    102 H102       28.1316  -30.5724  -37.2367 H         1 UNK         0.0787 
    103 H103       27.9689  -32.3173  -37.3358 H         1 UNK         0.0787 
    104 H104       27.9361  -31.3548  -38.8067 H         1 UNK         0.0787 
    105 H105       25.0314  -31.3924  -39.9878 H         1 UNK         0.3055 
    106 H106       24.3863  -34.2996  -39.8739 H         1 UNK         0.1106 
    107 H107       25.6874  -33.5365  -41.8524 H         1 UNK         0.0828 
    108 H108       24.0805  -34.0648  -42.3239 H         1 UNK         0.0828 
    109 H109       24.4462  -32.3489  -42.2438 H         1 UNK         0.0828 
    110 H110       22.9328  -31.0957  -40.7016 H         1 UNK         0.2931 
    111 H111       20.2930  -32.2491  -40.8970 H         1 UNK         0.0412 
    112 H112       20.4498  -30.8938  -37.1092 H         1 UNK         0.3472 
    113 H113       21.9219  -30.9606  -38.0386 H         1 UNK         0.3472 
    114 H114       19.5393  -29.9162  -41.4233 H         1 UNK         0.0970 
    115 H115       21.1326  -29.3234  -41.0421 H         1 UNK         0.0970 
    116 H116       20.2101  -32.1949  -44.5565 H         1 UNK         0.0612 
    117 H117       19.4460  -32.2510  -42.9965 H         1 UNK         0.0612 
@<TRIPOS>BOND
     1    1    2 1    
     2    1   62 1    
     3    1   63 1    
     4    1   64 1    
     5    2    3 2    
     6    2    4 am   BACKBONE|DICT|INTERRES
     7    4    5 1    
     8    4   65 1    
     9    5    6 1    
    10    5   25 1    
    11    5   66 1    
    12    6    7 1    
    13    6   67 1    
    14    6   68 1    
    15    7    8 1    
    16    8    9 1    
    17    8   69 1    
    18    8   70 1    
    19    9   10 ar   
    20    9   14 ar   
    21   10   11 ar   
    22   10   71 1    
    23   11   12 ar   
    24   11   61 1    
    25   12   13 ar   
    26   12   72 1    
    27   13   14 ar   
    28   13   15 1    
    29   14   73 1    
    30   15   16 1    
    31   15   74 1    
    32   15   75 1    
    33   16   17 1    
    34   17   18 1    
    35   17   76 1    
    36   17   77 1    
    37   18   19 1    
    38   18   27 1    
    39   18   78 1    
    40   19   20 am   BACKBONE|DICT|INTERRES
    41   19   79 1    
    42   20   21 2    
    43   20   22 1    
    44   22   23 1    
    45   22   24 1    
    46   22   80 1    
    47   23   81 1    
    48   23   82 1    
    49   23   83 1    
    50   24   25 am   BACKBONE|DICT|INTERRES
    51   24   84 1    
    52   25   26 2    
    53   27   28 2    
    54   27   29 am   BACKBONE|DICT|INTERRES
    55   29   30 1    
    56   29   85 1    
    57   30   31 1    
    58   30   32 1    
    59   30   86 1    
    60   31   87 1    
    61   31   88 1    
    62   31   89 1    
    63   32   33 2    
    64   32   34 am   BACKBONE|DICT|INTERRES
    65   34   35 1    
    66   34   90 1    
    67   35   36 1    
    68   35   37 1    
    69   35   91 1    
    70   36   92 1    
    71   36   93 1    
    72   36   94 1    
    73   37   38 2    
    74   37   39 am   BACKBONE|DICT|INTERRES
    75   39   40 1    
    76   39   95 1    
    77   40   41 1    
    78   40   42 1    
    79   40   96 1    
    80   41   97 1    
    81   41   98 1    
    82   41   99 1    
    83   42   43 2    
    84   42   44 am   BACKBONE|DICT|INTERRES
    85   44   45 1    
    86   44  100 1    
    87   45   46 1    
    88   45   47 1    
    89   45  101 1    
    90   46  102 1    
    91   46  103 1    
    92   46  104 1    
    93   47   48 2    
    94   47   49 am   BACKBONE|DICT|INTERRES
    95   49   50 1    
    96   49  105 1    
    97   50   51 1    
    98   50   52 1    
    99   50  106 1    
   100   51  107 1    
   101   51  108 1    
   102   51  109 1    
   103   52   53 2    
   104   52   54 am   BACKBONE|DICT|INTERRES
   105   54   55 1    
   106   54  110 1    
   107   55   56 1    
   108   55   59 1    
   109   55  111 1    
   110   56   57 am   BACKBONE|DICT|INTERRES
   111   56   58 2    
   112   57  112 1    
   113   57  113 1    
   114   59   60 1    
   115   59  114 1    
   116   59  115 1    
   117   60   61 1    
   118   61  116 1    
   119   61  117 1    
@<TRIPOS>SUBSTRUCTURE
     1 UNK         1 GROUP             0       ****    0 ROOT    
