@<TRIPOS>MOLECULE
3R8
117   119    1
SMALL
USER_CHARGES


@<TRIPOS>ATOM
      1 CA         13.1404  -27.5607  -45.0783 C.3       0 UNK        -0.2013 
      2 C          14.6475  -27.6544  -44.8931 C.2       0 UNK         0.4866 
      3 O          15.3041  -28.4194  -45.5998 O.2       0 UNK        -0.5176 
      4 N          15.1997  -26.8878  -43.9438 N.am      1 UNK        -0.4884 
      5 CA         16.6362  -26.8087  -43.6690 C.3       1 UNK         0.0853 
      6 C6         16.8950  -26.2157  -42.2608 C.3       10 UNK        -0.0849 
      7 S7         18.6568  -26.0502  -41.8116 S.3       10 UNK        -0.2776 
      8 C8         19.0171  -27.6675  -41.0592 C.3       10 UNK         0.0316 
      9 C9         19.1206  -28.7569  -42.1153 C.ar      10 UNK        -0.0863 
     10 C10        18.1404  -29.7441  -42.2075 C.ar      10 UNK        -0.1009 
     11 C11        18.2283  -30.7458  -43.1789 C.ar      10 UNK        -0.0712 
     12 C12        19.2941  -30.7306  -44.0855 C.ar      10 UNK        -0.0894 
     13 C13        20.2907  -29.7516  -44.0040 C.ar      10 UNK        -0.0745 
     14 C14        20.1999  -28.7789  -43.0005 C.ar      10 UNK        -0.0972 
     15 C15        21.4270  -29.7597  -45.0290 C.3       10 UNK         0.0209 
     16 S16        22.9936  -29.0443  -44.4222 S.3       10 UNK        -0.2568 
     17 C17        23.2357  -27.5968  -45.5146 C.3       10 UNK        -0.0983 
     18 CA         22.5725  -26.2770  -45.0308 C.3       3 UNK         0.0876 
     19 N          21.1169  -26.3040  -45.2444 N.am      3 UNK        -0.4424 
     20 C          20.5308  -25.8260  -46.3520 C.2       2 UNK         0.4918 
     21 O          21.1274  -25.1674  -47.2050 O.2       2 UNK        -0.4875 
     22 CA         19.0476  -26.1502  -46.5986 C.3       2 UNK         0.0481 
     23 CB         18.9192  -27.1849  -47.7299 C.3       2 UNK        -0.1831 
     24 N          18.3470  -26.6673  -45.4203 N.am      2 UNK        -0.4498 
     25 C          17.3458  -26.0314  -44.7963 C.2       1 UNK         0.5027 
     26 O          16.9620  -24.8928  -45.0769 O.2       1 UNK        -0.4969 
     27 C          22.9975  -25.8708  -43.6030 C.2       3 UNK         0.5005 
     28 O          24.1996  -25.8237  -43.3337 O.2       3 UNK        -0.5279 
     29 N          22.0353  -25.5916  -42.7087 N.am      4 UNK        -0.4463 
     30 CA         22.2396  -25.3287  -41.2783 C.3       4 UNK         0.0283 
     31 CB         22.9134  -23.9521  -41.0692 C.3       4 UNK        -0.1875 
     32 C          22.9508  -26.5047  -40.5709 C.2       4 UNK         0.4949 
     33 O          22.5937  -27.6621  -40.8008 O.2       4 UNK        -0.5039 
     34 N          23.9453  -26.1985  -39.7296 N.am      5 UNK        -0.4663 
     35 CA         24.7067  -27.1581  -38.9245 C.3       5 UNK         0.0242 
     36 CB         25.4572  -26.3854  -37.8257 C.3       5 UNK        -0.1982 
     37 C          25.6761  -28.0551  -39.7209 C.2       5 UNK         0.5017 
     38 O          26.3070  -28.9210  -39.1136 O.2       5 UNK        -0.5012 
     39 N          25.7967  -27.8495  -41.0422 N.am      6 UNK        -0.4439 
     40 CA         26.6734  -28.6220  -41.9302 C.3       6 UNK         0.0297 
     41 CB         26.7483  -27.9377  -43.3028 C.3       6 UNK        -0.2006 
     42 C          26.2708  -30.1013  -42.0879 C.2       6 UNK         0.4892 
     43 O          27.1301  -30.9125  -42.4369 O.2       6 UNK        -0.5089 
     44 N          25.0017  -30.4329  -41.8151 N.am      7 UNK        -0.4243 
     45 CA         24.5037  -31.8083  -41.7715 C.3       7 UNK         0.0196 
     46 CB         24.1070  -32.3096  -43.1718 C.3       7 UNK        -0.2007 
     47 C          23.3391  -31.9607  -40.7902 C.2       7 UNK         0.5020 
     48 O          23.2854  -32.9799  -40.1029 O.2       7 UNK        -0.5147 
     49 N          22.4204  -30.9794  -40.7471 N.am      8 UNK        -0.4734 
     50 CA         21.2103  -30.9632  -39.9057 C.3       8 UNK         0.0238 
     51 CB         21.5864  -30.7290  -38.4278 C.3       8 UNK        -0.1912 
     52 C          20.3175  -32.2076  -40.1157 C.2       8 UNK         0.5038 
     53 O          19.8946  -32.8432  -39.1484 O.2       8 UNK        -0.5046 
     54 N          20.1047  -32.5450  -41.3937 N.am      9 UNK        -0.4200 
     55 CA         19.4408  -33.7524  -41.9153 C.3       9 UNK         0.0839 
     56 C          20.2721  -35.0644  -41.7728 C.2       9 UNK         0.5513 
     57 N          21.4973  -35.0460  -41.2621 N.am      9 UNK        -0.7519 
     58 O          19.8064  -36.1292  -42.1707 O.2       9 UNK        -0.4960 
     59 C59        17.9759  -33.9546  -41.4206 C.3       10 UNK        -0.0876 
     60 S60        16.7924  -32.5733  -41.6240 S.3       10 UNK        -0.2414 
     61 C61        17.1659  -31.8362  -43.2537 C.3       10 UNK         0.0169 
     62 H62        12.6820  -28.5366  -44.9204 H         1 UNK         0.0903 
     63 H63        12.6860  -26.8562  -44.3819 H         1 UNK         0.0903 
     64 H64        12.9070  -27.2344  -46.0914 H         1 UNK         0.0903 
     65 H65        14.6156  -26.2533  -43.4175 H         1 UNK         0.3096 
     66 H66        17.0144  -27.8305  -43.6784 H         1 UNK         0.1121 
     67 H67        16.3953  -26.8234  -41.5048 H         1 UNK         0.0849 
     68 H68        16.4460  -25.2234  -42.1866 H         1 UNK         0.0849 
     69 H69        19.9590  -27.6042  -40.5145 H         1 UNK         0.0865 
     70 H70        18.2557  -27.9069  -40.3152 H         1 UNK         0.0865 
     71 H71        17.3062  -29.7373  -41.5192 H         1 UNK         0.1346 
     72 H72        19.3512  -31.4893  -44.8544 H         1 UNK         0.1412 
     73 H73        20.9661  -28.0278  -42.8964 H         1 UNK         0.1426 
     74 H74        21.0940  -29.2336  -45.9237 H         1 UNK         0.0716 
     75 H75        21.6336  -30.7850  -45.3393 H         1 UNK         0.0716 
     76 H76        24.3115  -27.4434  -45.6107 H         1 UNK         0.0695 
     77 H77        22.8995  -27.8438  -46.5227 H         1 UNK         0.0695 
     78 H78        22.9954  -25.4780  -45.6437 H         1 UNK         0.0983 
     79 H79        20.5687  -26.8493  -44.5984 H         1 UNK         0.3095 
     80 H80        18.5811  -25.2257  -46.9444 H         1 UNK         0.0454 
     81 H81        19.3812  -28.1366  -47.4655 H         1 UNK         0.0851 
     82 H82        17.8738  -27.3773  -47.9720 H         1 UNK         0.0851 
     83 H83        19.4003  -26.8317  -48.6431 H         1 UNK         0.0851 
     84 H84        18.5627  -27.6149  -45.1431 H         1 UNK         0.2976 
     85 H85        21.0717  -25.6097  -43.0086 H         1 UNK         0.3116 
     86 H86        21.2502  -25.2705  -40.8263 H         1 UNK         0.0646 
     87 H87        22.9283  -23.6711  -40.0155 H         1 UNK         0.0847 
     88 H88        22.3663  -23.1682  -41.5929 H         1 UNK         0.0847 
     89 H89        23.9404  -23.9338  -41.4359 H         1 UNK         0.0847 
     90 H90        24.1932  -25.2256  -39.6207 H         1 UNK         0.3040 
     91 H91        23.9925  -27.8285  -38.4410 H         1 UNK         0.1015 
     92 H92        24.7708  -25.8095  -37.2046 H         1 UNK         0.0786 
     93 H93        26.1903  -25.6962  -38.2468 H         1 UNK         0.0786 
     94 H94        25.9936  -27.0652  -37.1619 H         1 UNK         0.0786 
     95 H95        25.2320  -27.1276  -41.4727 H         1 UNK         0.3172 
     96 H96        27.6742  -28.6056  -41.4937 H         1 UNK         0.0595 
     97 H97        27.0682  -26.8991  -43.2173 H         1 UNK         0.0839 
     98 H98        25.7829  -27.9514  -43.8067 H         1 UNK         0.0839 
     99 H99        27.4608  -28.4453  -43.9542 H         1 UNK         0.0839 
    100 H100       24.3755  -29.7021  -41.5072 H         1 UNK         0.2998 
    101 H101       25.3068  -32.4487  -41.3989 H         1 UNK         0.0822 
    102 H102       24.9211  -32.1919  -43.8869 H         1 UNK         0.0787 
    103 H103       23.8506  -33.3695  -43.1432 H         1 UNK         0.0787 
    104 H104       23.2379  -31.7812  -43.5605 H         1 UNK         0.0787 
    105 H105       22.5145  -30.1892  -41.3716 H         1 UNK         0.3055 
    106 H106       20.6181  -30.1069  -40.2262 H         1 UNK         0.1106 
    107 H107       22.1632  -31.5594  -38.0194 H         1 UNK         0.0828 
    108 H108       22.1763  -29.8198  -38.3111 H         1 UNK         0.0828 
    109 H109       20.6942  -30.6172  -37.8106 H         1 UNK         0.0828 
    110 H110       20.4931  -31.9391  -42.1014 H         1 UNK         0.2931 
    111 H111       19.3963  -33.5915  -42.9919 H         1 UNK         0.0412 
    112 H112       22.0088  -35.9117  -41.1984 H         1 UNK         0.3472 
    113 H113       21.9085  -34.1970  -40.8911 H         1 UNK         0.3472 
    114 H114       17.9775  -34.2266  -40.3640 H         1 UNK         0.0970 
    115 H115       17.5319  -34.8091  -41.9345 H         1 UNK         0.0970 
    116 H116       17.4453  -32.6230  -43.9555 H         1 UNK         0.0612 
    117 H117       16.2514  -31.3883  -43.6447 H         1 UNK         0.0612 
@<TRIPOS>BOND
     1    1    2 1    
     2    1   62 1    
     3    1   63 1    
     4    1   64 1    
     5    2    3 2    
     6    2    4 am   BACKBONE|DICT|INTERRES
     7    4    5 1    
     8    4   65 1    
     9    5    6 1    
    10    5   25 1    
    11    5   66 1    
    12    6    7 1    
    13    6   67 1    
    14    6   68 1    
    15    7    8 1    
    16    8    9 1    
    17    8   69 1    
    18    8   70 1    
    19    9   10 ar   
    20    9   14 ar   
    21   10   11 ar   
    22   10   71 1    
    23   11   12 ar   
    24   11   61 1    
    25   12   13 ar   
    26   12   72 1    
    27   13   14 ar   
    28   13   15 1    
    29   14   73 1    
    30   15   16 1    
    31   15   74 1    
    32   15   75 1    
    33   16   17 1    
    34   17   18 1    
    35   17   76 1    
    36   17   77 1    
    37   18   19 1    
    38   18   27 1    
    39   18   78 1    
    40   19   20 am   BACKBONE|DICT|INTERRES
    41   19   79 1    
    42   20   21 2    
    43   20   22 1    
    44   22   23 1    
    45   22   24 1    
    46   22   80 1    
    47   23   81 1    
    48   23   82 1    
    49   23   83 1    
    50   24   25 am   BACKBONE|DICT|INTERRES
    51   24   84 1    
    52   25   26 2    
    53   27   28 2    
    54   27   29 am   BACKBONE|DICT|INTERRES
    55   29   30 1    
    56   29   85 1    
    57   30   31 1    
    58   30   32 1    
    59   30   86 1    
    60   31   87 1    
    61   31   88 1    
    62   31   89 1    
    63   32   33 2    
    64   32   34 am   BACKBONE|DICT|INTERRES
    65   34   35 1    
    66   34   90 1    
    67   35   36 1    
    68   35   37 1    
    69   35   91 1    
    70   36   92 1    
    71   36   93 1    
    72   36   94 1    
    73   37   38 2    
    74   37   39 am   BACKBONE|DICT|INTERRES
    75   39   40 1    
    76   39   95 1    
    77   40   41 1    
    78   40   42 1    
    79   40   96 1    
    80   41   97 1    
    81   41   98 1    
    82   41   99 1    
    83   42   43 2    
    84   42   44 am   BACKBONE|DICT|INTERRES
    85   44   45 1    
    86   44  100 1    
    87   45   46 1    
    88   45   47 1    
    89   45  101 1    
    90   46  102 1    
    91   46  103 1    
    92   46  104 1    
    93   47   48 2    
    94   47   49 am   BACKBONE|DICT|INTERRES
    95   49   50 1    
    96   49  105 1    
    97   50   51 1    
    98   50   52 1    
    99   50  106 1    
   100   51  107 1    
   101   51  108 1    
   102   51  109 1    
   103   52   53 2    
   104   52   54 am   BACKBONE|DICT|INTERRES
   105   54   55 1    
   106   54  110 1    
   107   55   56 1    
   108   55   59 1    
   109   55  111 1    
   110   56   57 am   BACKBONE|DICT|INTERRES
   111   56   58 2    
   112   57  112 1    
   113   57  113 1    
   114   59   60 1    
   115   59  114 1    
   116   59  115 1    
   117   60   61 1    
   118   61  116 1    
   119   61  117 1    
@<TRIPOS>SUBSTRUCTURE
     1 UNK         1 GROUP             0       ****    0 ROOT    
