@<TRIPOS>MOLECULE
3R8
117   119    1
SMALL
USER_CHARGES


@<TRIPOS>ATOM
      1 CA         20.5711  -25.7601  -40.0633 C.3       0 UNK        -0.2013 
      2 C          19.9561  -26.0075  -41.4323 C.2       0 UNK         0.4866 
      3 O          20.5331  -26.7467  -42.2319 O.2       0 UNK        -0.5176 
      4 N          18.7941  -25.3909  -41.6949 N.am      1 UNK        -0.4884 
      5 CA         18.0274  -25.4471  -42.9481 C.3       1 UNK         0.0853 
      6 C6         17.6212  -26.9023  -43.3204 C.3       10 UNK        -0.0849 
      7 S7         16.1248  -27.0004  -44.3641 S.3       10 UNK        -0.2776 
      8 C8         15.6050  -28.7287  -44.1046 C.3       10 UNK         0.0316 
      9 C9         16.7321  -29.7268  -44.3429 C.ar      10 UNK        -0.0863 
     10 C10        17.1077  -30.6113  -43.3284 C.ar      10 UNK        -0.1009 
     11 C11        18.1321  -31.5392  -43.5351 C.ar      10 UNK        -0.0712 
     12 C12        18.8028  -31.5588  -44.7627 C.ar      10 UNK        -0.0894 
     13 C13        18.4492  -30.6697  -45.7838 C.ar      10 UNK        -0.0745 
     14 C14        17.3952  -29.7729  -45.5730 C.ar      10 UNK        -0.0972 
     15 C15        19.1861  -30.7184  -47.1202 C.3       10 UNK         0.0209 
     16 S16        19.5756  -29.0750  -47.8133 S.3       10 UNK        -0.2568 
     17 C17        20.8647  -28.4778  -46.6697 C.3       10 UNK        -0.0983 
     18 CA         21.1854  -26.9793  -46.9052 C.3       3 UNK         0.0876 
     19 N          20.0147  -26.1364  -46.6542 N.am      3 UNK        -0.4424 
     20 C          19.8683  -24.8648  -47.0489 C.2       2 UNK         0.4918 
     21 O          20.6774  -24.2667  -47.7580 O.2       2 UNK        -0.4875 
     22 CA         18.6176  -24.1264  -46.5345 C.3       2 UNK         0.0481 
     23 CB         17.5106  -24.1433  -47.6000 C.3       2 UNK        -0.1831 
     24 N          18.0906  -24.6813  -45.2816 N.am      2 UNK        -0.4498 
     25 C          18.7362  -24.7025  -44.1070 C.2       1 UNK         0.5027 
     26 O          19.8417  -24.1795  -43.9430 O.2       1 UNK        -0.4969 
     27 C          22.4200  -26.5466  -46.0814 C.2       3 UNK         0.5005 
     28 O          23.5316  -26.9302  -46.4493 O.2       3 UNK        -0.5279 
     29 N          22.2174  -25.7715  -44.9987 N.am      4 UNK        -0.4463 
     30 CA         23.2260  -25.2974  -44.0401 C.3       4 UNK         0.0283 
     31 CB         24.1593  -24.2582  -44.6955 C.3       4 UNK        -0.1875 
     32 C          23.9865  -26.4617  -43.3767 C.2       4 UNK         0.4949 
     33 O          25.2146  -26.4377  -43.2820 O.2       4 UNK        -0.5039 
     34 N          23.2272  -27.4807  -42.9581 N.am      5 UNK        -0.4663 
     35 CA         23.7412  -28.7557  -42.4575 C.3       5 UNK         0.0242 
     36 CB         22.7408  -29.8584  -42.8321 C.3       5 UNK        -0.1982 
     37 C          23.9992  -28.7615  -40.9435 C.2       5 UNK         0.5017 
     38 O          24.5308  -29.7490  -40.4368 O.2       5 UNK        -0.5012 
     39 N          23.5797  -27.6989  -40.2386 N.am      6 UNK        -0.4439 
     40 CA         23.7042  -27.4919  -38.7858 C.3       6 UNK         0.0297 
     41 CB         25.1809  -27.2517  -38.4069 C.3       6 UNK        -0.2006 
     42 C          23.0547  -28.6083  -37.9368 C.2       6 UNK         0.4892 
     43 O          23.5093  -28.8736  -36.8233 O.2       6 UNK        -0.5089 
     44 N          22.0178  -29.2511  -38.4975 N.am      7 UNK        -0.4243 
     45 CA         21.2905  -30.4155  -37.9770 C.3       7 UNK         0.0196 
     46 CB         20.5709  -30.0778  -36.6534 C.3       7 UNK        -0.2007 
     47 C          22.1348  -31.7058  -37.8810 C.2       7 UNK         0.5020 
     48 O          21.7114  -32.6480  -37.2106 O.2       7 UNK        -0.5147 
     49 N          23.2873  -31.7612  -38.5680 N.am      8 UNK        -0.4734 
     50 CA         24.1266  -32.9629  -38.6725 C.3       8 UNK         0.0238 
     51 CB         25.5807  -32.5432  -38.9442 C.3       8 UNK        -0.1912 
     52 C          23.6339  -33.9400  -39.7576 C.2       8 UNK         0.5038 
     53 O          24.0930  -35.0826  -39.7935 O.2       8 UNK        -0.5046 
     54 N          22.7274  -33.4706  -40.6231 N.am      9 UNK        -0.4200 
     55 CA         22.0266  -34.2338  -41.6626 C.3       9 UNK         0.0839 
     56 C          21.1449  -35.3892  -41.1076 C.2       9 UNK         0.5513 
     57 N          20.9014  -36.4157  -41.9114 N.am      9 UNK        -0.7519 
     58 O          20.6555  -35.3533  -39.9805 O.2       9 UNK        -0.4960 
     59 C59        21.2212  -33.2845  -42.5918 C.3       10 UNK        -0.0876 
     60 S60        20.1017  -32.1520  -41.6838 S.3       10 UNK        -0.2414 
     61 C61        18.4896  -32.5297  -42.4349 C.3       10 UNK         0.0169 
     62 H62        19.9559  -25.0985  -39.4538 H         1 UNK         0.0903 
     63 H63        20.6829  -26.7015  -39.5275 H         1 UNK         0.0903 
     64 H64        21.5527  -25.3004  -40.1711 H         1 UNK         0.0903 
     65 H65        18.4064  -24.7753  -40.9931 H         1 UNK         0.3096 
     66 H66        17.1160  -24.8822  -42.7443 H         1 UNK         0.1121 
     67 H67        18.4420  -27.4301  -43.8105 H         1 UNK         0.0849 
     68 H68        17.4137  -27.4665  -42.4094 H         1 UNK         0.0849 
     69 H69        15.2079  -28.8247  -43.0927 H         1 UNK         0.0865 
     70 H70        14.7791  -28.9563  -44.7799 H         1 UNK         0.0865 
     71 H71        16.5931  -30.5866  -42.3774 H         1 UNK         0.1346 
     72 H72        19.5988  -32.2722  -44.9229 H         1 UNK         0.1412 
     73 H73        17.0987  -29.0948  -46.3615 H         1 UNK         0.1426 
     74 H74        18.5634  -31.2570  -47.8354 H         1 UNK         0.0716 
     75 H75        20.1140  -31.2855  -47.0302 H         1 UNK         0.0716 
     76 H76        20.5414  -28.6460  -45.6402 H         1 UNK         0.0695 
     77 H77        21.7534  -29.0940  -46.8203 H         1 UNK         0.0695 
     78 H78        21.4616  -26.8546  -47.9548 H         1 UNK         0.0983 
     79 H79        19.2754  -26.5566  -46.1118 H         1 UNK         0.3095 
     80 H80        18.9004  -23.0884  -46.3480 H         1 UNK         0.0454 
     81 H81        16.6462  -23.5588  -47.2847 H         1 UNK         0.0851 
     82 H82        17.8650  -23.7131  -48.5378 H         1 UNK         0.0851 
     83 H83        17.1711  -25.1575  -47.8149 H         1 UNK         0.0851 
     84 H84        17.1935  -25.1488  -45.3330 H         1 UNK         0.2976 
     85 H85        21.2675  -25.4928  -44.7779 H         1 UNK         0.3116 
     86 H86        22.6772  -24.7936  -43.2429 H         1 UNK         0.0646 
     87 H87        24.8369  -23.8234  -43.9598 H         1 UNK         0.0847 
     88 H88        23.5915  -23.4391  -45.1366 H         1 UNK         0.0847 
     89 H89        24.7734  -24.7016  -45.4800 H         1 UNK         0.0847 
     90 H90        22.2154  -27.3749  -42.9943 H         1 UNK         0.3040 
     91 H91        24.6931  -28.9788  -42.9449 H         1 UNK         0.1015 
     92 H92        22.6132  -29.9300  -43.9125 H         1 UNK         0.0786 
     93 H93        21.7592  -29.6803  -42.3907 H         1 UNK         0.0786 
     94 H94        23.0910  -30.8292  -42.4816 H         1 UNK         0.0786 
     95 H95        23.1408  -26.9557  -40.7633 H         1 UNK         0.3172 
     96 H96        23.1535  -26.5792  -38.5554 H         1 UNK         0.0595 
     97 H97        25.6197  -26.4526  -39.0044 H         1 UNK         0.0839 
     98 H98        25.7851  -28.1482  -38.5506 H         1 UNK         0.0839 
     99 H99        25.2765  -26.9600  -37.3603 H         1 UNK         0.0839 
    100 H100       21.7438  -28.9535  -39.4231 H         1 UNK         0.2998 
    101 H101       20.5179  -30.6320  -38.7166 H         1 UNK         0.0822 
    102 H102       21.2750  -29.9318  -35.8339 H         1 UNK         0.0787 
    103 H103       19.9709  -29.1727  -36.7470 H         1 UNK         0.0787 
    104 H104       19.8956  -30.8820  -36.3586 H         1 UNK         0.0787 
    105 H105       23.5986  -30.9480  -39.0918 H         1 UNK         0.3055 
    106 H106       24.1017  -33.4974  -37.7200 H         1 UNK         0.1106 
    107 H107       25.9405  -31.8416  -38.1914 H         1 UNK         0.0828 
    108 H108       26.2451  -33.4081  -38.9253 H         1 UNK         0.0828 
    109 H109       25.6907  -32.0730  -39.9218 H         1 UNK         0.0828 
    110 H110       22.3918  -32.5305  -40.4813 H         1 UNK         0.2931 
    111 H111       22.8055  -34.6997  -42.2697 H         1 UNK         0.0412 
    112 H112       20.3225  -37.1712  -41.5782 H         1 UNK         0.3472 
    113 H113       21.2941  -36.4593  -42.8392 H         1 UNK         0.3472 
    114 H114       20.6667  -33.8600  -43.3344 H         1 UNK         0.0970 
    115 H115       21.9120  -32.6769  -43.1755 H         1 UNK         0.0970 
    116 H116       17.7376  -32.5033  -41.6449 H         1 UNK         0.0612 
    117 H117       18.4707  -33.5475  -42.8262 H         1 UNK         0.0612 
@<TRIPOS>BOND
     1    1    2 1    
     2    1   62 1    
     3    1   63 1    
     4    1   64 1    
     5    2    3 2    
     6    2    4 am   BACKBONE|DICT|INTERRES
     7    4    5 1    
     8    4   65 1    
     9    5    6 1    
    10    5   25 1    
    11    5   66 1    
    12    6    7 1    
    13    6   67 1    
    14    6   68 1    
    15    7    8 1    
    16    8    9 1    
    17    8   69 1    
    18    8   70 1    
    19    9   10 ar   
    20    9   14 ar   
    21   10   11 ar   
    22   10   71 1    
    23   11   12 ar   
    24   11   61 1    
    25   12   13 ar   
    26   12   72 1    
    27   13   14 ar   
    28   13   15 1    
    29   14   73 1    
    30   15   16 1    
    31   15   74 1    
    32   15   75 1    
    33   16   17 1    
    34   17   18 1    
    35   17   76 1    
    36   17   77 1    
    37   18   19 1    
    38   18   27 1    
    39   18   78 1    
    40   19   20 am   BACKBONE|DICT|INTERRES
    41   19   79 1    
    42   20   21 2    
    43   20   22 1    
    44   22   23 1    
    45   22   24 1    
    46   22   80 1    
    47   23   81 1    
    48   23   82 1    
    49   23   83 1    
    50   24   25 am   BACKBONE|DICT|INTERRES
    51   24   84 1    
    52   25   26 2    
    53   27   28 2    
    54   27   29 am   BACKBONE|DICT|INTERRES
    55   29   30 1    
    56   29   85 1    
    57   30   31 1    
    58   30   32 1    
    59   30   86 1    
    60   31   87 1    
    61   31   88 1    
    62   31   89 1    
    63   32   33 2    
    64   32   34 am   BACKBONE|DICT|INTERRES
    65   34   35 1    
    66   34   90 1    
    67   35   36 1    
    68   35   37 1    
    69   35   91 1    
    70   36   92 1    
    71   36   93 1    
    72   36   94 1    
    73   37   38 2    
    74   37   39 am   BACKBONE|DICT|INTERRES
    75   39   40 1    
    76   39   95 1    
    77   40   41 1    
    78   40   42 1    
    79   40   96 1    
    80   41   97 1    
    81   41   98 1    
    82   41   99 1    
    83   42   43 2    
    84   42   44 am   BACKBONE|DICT|INTERRES
    85   44   45 1    
    86   44  100 1    
    87   45   46 1    
    88   45   47 1    
    89   45  101 1    
    90   46  102 1    
    91   46  103 1    
    92   46  104 1    
    93   47   48 2    
    94   47   49 am   BACKBONE|DICT|INTERRES
    95   49   50 1    
    96   49  105 1    
    97   50   51 1    
    98   50   52 1    
    99   50  106 1    
   100   51  107 1    
   101   51  108 1    
   102   51  109 1    
   103   52   53 2    
   104   52   54 am   BACKBONE|DICT|INTERRES
   105   54   55 1    
   106   54  110 1    
   107   55   56 1    
   108   55   59 1    
   109   55  111 1    
   110   56   57 am   BACKBONE|DICT|INTERRES
   111   56   58 2    
   112   57  112 1    
   113   57  113 1    
   114   59   60 1    
   115   59  114 1    
   116   59  115 1    
   117   60   61 1    
   118   61  116 1    
   119   61  117 1    
@<TRIPOS>SUBSTRUCTURE
     1 UNK         1 GROUP             0       ****    0 ROOT    
