@<TRIPOS>MOLECULE
3R8
117   119    1
SMALL
USER_CHARGES


@<TRIPOS>ATOM
      1 CA         15.6090  -26.6661  -46.0788 C.3       0 UNK        -0.2013 
      2 C          16.9653  -26.4652  -46.7372 C.2       0 UNK         0.4866 
      3 O          17.2646  -25.3632  -47.1965 O.2       0 UNK        -0.5176 
      4 N          17.7786  -27.5276  -46.7970 N.am      1 UNK        -0.4884 
      5 CA         19.1194  -27.5584  -47.3945 C.3       1 UNK         0.0853 
      6 C6         19.7028  -29.0004  -47.5295 C.3       10 UNK        -0.0849 
      7 S7         19.0724  -30.2409  -46.3376 S.3       10 UNK        -0.2776 
      8 C8         20.2167  -30.0942  -44.9217 C.3       10 UNK         0.0316 
      9 C9         19.4872  -30.0261  -43.5797 C.ar      10 UNK        -0.0863 
     10 C10        19.9902  -30.7219  -42.4757 C.ar      10 UNK        -0.1009 
     11 C11        19.3084  -30.7171  -41.2548 C.ar      10 UNK        -0.0712 
     12 C12        18.1360  -29.9665  -41.1242 C.ar      10 UNK        -0.0894 
     13 C13        17.6394  -29.2335  -42.2053 C.ar      10 UNK        -0.0745 
     14 C14        18.3150  -29.2763  -43.4277 C.ar      10 UNK        -0.0972 
     15 C15        16.3652  -28.4098  -42.0624 C.3       10 UNK         0.0209 
     16 S16        16.5989  -26.6728  -42.5663 S.3       10 UNK        -0.2568 
     17 C17        17.5865  -25.9993  -41.1884 C.3       10 UNK        -0.0983 
     18 CA         19.1110  -26.2473  -41.3212 C.3       3 UNK         0.0876 
     19 N          19.6337  -25.9044  -42.6529 N.am      3 UNK        -0.4424 
     20 C          20.8681  -26.1979  -43.0815 C.2       2 UNK         0.4918 
     21 O          21.7342  -26.6979  -42.3617 O.2       2 UNK        -0.4875 
     22 CA         21.1683  -25.9148  -44.5592 C.3       2 UNK         0.0481 
     23 CB         22.6313  -26.2675  -44.9204 C.3       2 UNK        -0.1831 
     24 N          20.2184  -26.6650  -45.3841 N.am      2 UNK        -0.4498 
     25 C          20.1156  -26.5948  -46.7177 C.2       1 UNK         0.5027 
     26 O          20.7669  -25.8179  -47.4179 O.2       1 UNK        -0.4969 
     27 C          19.8644  -25.5635  -40.1607 C.2       3 UNK         0.5005 
     28 O          19.9414  -26.1359  -39.0732 O.2       3 UNK        -0.5279 
     29 N          20.4184  -24.3675  -40.4123 N.am      4 UNK        -0.4463 
     30 CA         21.2407  -23.6163  -39.4593 C.3       4 UNK         0.0283 
     31 CB         21.4155  -22.1729  -39.9585 C.3       4 UNK        -0.1875 
     32 C          22.6119  -24.2678  -39.2048 C.2       4 UNK         0.4949 
     33 O          23.1128  -24.1965  -38.0825 O.2       4 UNK        -0.5039 
     34 N          23.1900  -24.8888  -40.2426 N.am      5 UNK        -0.4663 
     35 CA         24.4474  -25.6364  -40.1577 C.3       5 UNK         0.0242 
     36 CB         25.1447  -25.6164  -41.5280 C.3       5 UNK        -0.1982 
     37 C          24.2242  -27.0864  -39.7007 C.2       5 UNK         0.5017 
     38 O          25.1032  -27.6518  -39.0502 O.2       5 UNK        -0.5012 
     39 N          23.0662  -27.6550  -40.0711 N.am      6 UNK        -0.4439 
     40 CA         22.6424  -29.0452  -39.8776 C.3       6 UNK         0.0297 
     41 CB         22.4863  -29.3766  -38.3776 C.3       6 UNK        -0.2006 
     42 C          23.5426  -30.0406  -40.6376 C.2       6 UNK         0.4892 
     43 O          23.8305  -31.1266  -40.1312 O.2       6 UNK        -0.5089 
     44 N          23.9868  -29.6359  -41.8362 N.am      7 UNK        -0.4243 
     45 CA         24.8941  -30.3938  -42.6968 C.3       7 UNK         0.0196 
     46 CB         25.4149  -29.4716  -43.8115 C.3       7 UNK        -0.2007 
     47 C          24.2040  -31.6288  -43.2943 C.2       7 UNK         0.5020 
     48 O          23.1224  -31.4942  -43.8681 O.2       7 UNK        -0.5147 
     49 N          24.8510  -32.7959  -43.1686 N.am      8 UNK        -0.4734 
     50 CA         24.4263  -34.1312  -43.6195 C.3       8 UNK         0.0238 
     51 CB         24.2684  -34.1956  -45.1532 C.3       8 UNK        -0.1912 
     52 C          23.1771  -34.6638  -42.8939 C.2       8 UNK         0.5038 
     53 O          23.2712  -35.6800  -42.2049 O.2       8 UNK        -0.5046 
     54 N          22.0465  -33.9638  -43.0485 N.am      9 UNK        -0.4200 
     55 CA         20.7477  -34.2479  -42.4152 C.3       9 UNK         0.0839 
     56 C          20.0701  -35.5783  -42.8680 C.2       9 UNK         0.5513 
     57 N          20.4254  -36.1326  -44.0212 N.am      9 UNK        -0.7519 
     58 O          19.1962  -36.1072  -42.1863 O.2       9 UNK        -0.4960 
     59 C59        20.8136  -34.0634  -40.8692 C.3       10 UNK        -0.0876 
     60 S60        19.3258  -33.2685  -40.1665 S.3       10 UNK        -0.2414 
     61 C61        19.8325  -31.5207  -40.0737 C.3       10 UNK         0.0169 
     62 H62        15.4295  -25.8835  -45.3421 H         1 UNK         0.0903 
     63 H63        14.8179  -26.6169  -46.8264 H         1 UNK         0.0903 
     64 H64        15.5406  -27.6280  -45.5708 H         1 UNK         0.0903 
     65 H65        17.4637  -28.4189  -46.4384 H         1 UNK         0.3096 
     66 H66        18.9999  -27.1719  -48.4098 H         1 UNK         0.1121 
     67 H67        19.4380  -29.3809  -48.5173 H         1 UNK         0.0849 
     68 H68        20.7952  -29.0086  -47.5198 H         1 UNK         0.0849 
     69 H69        20.8709  -29.2300  -45.0242 H         1 UNK         0.0865 
     70 H70        20.8679  -30.9675  -44.9487 H         1 UNK         0.0865 
     71 H71        20.9050  -31.2883  -42.5682 H         1 UNK         0.1346 
     72 H72        17.6099  -29.9554  -40.1794 H         1 UNK         0.1412 
     73 H73        17.9130  -28.7228  -44.2622 H         1 UNK         0.1426 
     74 H74        15.9861  -28.4407  -41.0398 H         1 UNK         0.0716 
     75 H75        15.5925  -28.8541  -42.6909 H         1 UNK         0.0716 
     76 H76        17.2118  -26.4173  -40.2520 H         1 UNK         0.0695 
     77 H77        17.3812  -24.9279  -41.1431 H         1 UNK         0.0695 
     78 H78        19.2880  -27.3160  -41.1907 H         1 UNK         0.0983 
     79 H79        18.9702  -25.4964  -43.2961 H         1 UNK         0.3095 
     80 H80        21.0108  -24.8481  -44.7288 H         1 UNK         0.0454 
     81 H81        22.8812  -25.9980  -45.9455 H         1 UNK         0.0851 
     82 H82        22.8302  -27.3324  -44.7970 H         1 UNK         0.0851 
     83 H83        23.3305  -25.7265  -44.2828 H         1 UNK         0.0851 
     84 H84        19.6206  -27.3115  -44.8885 H         1 UNK         0.2976 
     85 H85        20.2880  -23.9630  -41.3284 H         1 UNK         0.3116 
     86 H86        20.7086  -23.5830  -38.5060 H         1 UNK         0.0646 
     87 H87        22.0045  -21.5860  -39.2522 H         1 UNK         0.0847 
     88 H88        20.4541  -21.6711  -40.0695 H         1 UNK         0.0847 
     89 H89        21.9291  -22.1343  -40.9200 H         1 UNK         0.0847 
     90 H90        22.6968  -24.9229  -41.1237 H         1 UNK         0.3040 
     91 H91        25.1070  -25.1543  -39.4321 H         1 UNK         0.1015 
     92 H92        25.3265  -24.5966  -41.8677 H         1 UNK         0.0786 
     93 H93        24.5548  -26.1263  -42.2897 H         1 UNK         0.0786 
     94 H94        26.1120  -26.1186  -41.4786 H         1 UNK         0.0786 
     95 H95        22.4618  -27.1106  -40.6810 H         1 UNK         0.3172 
     96 H96        21.6556  -29.1158  -40.3363 H         1 UNK         0.0595 
     97 H97        23.4432  -29.3586  -37.8557 H         1 UNK         0.0839 
     98 H98        22.0627  -30.3704  -38.2327 H         1 UNK         0.0839 
     99 H99        21.8212  -28.6669  -37.8853 H         1 UNK         0.0839 
    100 H100       23.6580  -28.7494  -42.1905 H         1 UNK         0.2998 
    101 H101       25.7438  -30.7140  -42.0896 H         1 UNK         0.0822 
    102 H102       24.6057  -29.1133  -44.4496 H         1 UNK         0.0787 
    103 H103       25.9300  -28.6023  -43.4014 H         1 UNK         0.0787 
    104 H104       26.1249  -29.9971  -44.4515 H         1 UNK         0.0787 
    105 H105       25.7224  -32.7863  -42.6552 H         1 UNK         0.3055 
    106 H106       25.2431  -34.8058  -43.3551 H         1 UNK         0.1106 
    107 H107       24.0263  -35.2091  -45.4762 H         1 UNK         0.0828 
    108 H108       23.4760  -33.5422  -45.5193 H         1 UNK         0.0828 
    109 H109       25.1921  -33.9099  -45.6561 H         1 UNK         0.0828 
    110 H110       22.1109  -33.1080  -43.5917 H         1 UNK         0.2931 
    111 H111       20.0894  -33.4784  -42.8163 H         1 UNK         0.0412 
    112 H112       21.1318  -35.7046  -44.5974 H         1 UNK         0.3472 
    113 H113       19.9813  -36.9881  -44.3162 H         1 UNK         0.3472 
    114 H114       20.9677  -35.0223  -40.3708 H         1 UNK         0.0970 
    115 H115       21.6832  -33.4670  -40.5892 H         1 UNK         0.0970 
    116 H116       19.4576  -31.0996  -39.1396 H         1 UNK         0.0612 
    117 H117       20.9170  -31.4449  -40.0220 H         1 UNK         0.0612 
@<TRIPOS>BOND
     1    1    2 1    
     2    1   62 1    
     3    1   63 1    
     4    1   64 1    
     5    2    3 2    
     6    2    4 am   BACKBONE|DICT|INTERRES
     7    4    5 1    
     8    4   65 1    
     9    5    6 1    
    10    5   25 1    
    11    5   66 1    
    12    6    7 1    
    13    6   67 1    
    14    6   68 1    
    15    7    8 1    
    16    8    9 1    
    17    8   69 1    
    18    8   70 1    
    19    9   10 ar   
    20    9   14 ar   
    21   10   11 ar   
    22   10   71 1    
    23   11   12 ar   
    24   11   61 1    
    25   12   13 ar   
    26   12   72 1    
    27   13   14 ar   
    28   13   15 1    
    29   14   73 1    
    30   15   16 1    
    31   15   74 1    
    32   15   75 1    
    33   16   17 1    
    34   17   18 1    
    35   17   76 1    
    36   17   77 1    
    37   18   19 1    
    38   18   27 1    
    39   18   78 1    
    40   19   20 am   BACKBONE|DICT|INTERRES
    41   19   79 1    
    42   20   21 2    
    43   20   22 1    
    44   22   23 1    
    45   22   24 1    
    46   22   80 1    
    47   23   81 1    
    48   23   82 1    
    49   23   83 1    
    50   24   25 am   BACKBONE|DICT|INTERRES
    51   24   84 1    
    52   25   26 2    
    53   27   28 2    
    54   27   29 am   BACKBONE|DICT|INTERRES
    55   29   30 1    
    56   29   85 1    
    57   30   31 1    
    58   30   32 1    
    59   30   86 1    
    60   31   87 1    
    61   31   88 1    
    62   31   89 1    
    63   32   33 2    
    64   32   34 am   BACKBONE|DICT|INTERRES
    65   34   35 1    
    66   34   90 1    
    67   35   36 1    
    68   35   37 1    
    69   35   91 1    
    70   36   92 1    
    71   36   93 1    
    72   36   94 1    
    73   37   38 2    
    74   37   39 am   BACKBONE|DICT|INTERRES
    75   39   40 1    
    76   39   95 1    
    77   40   41 1    
    78   40   42 1    
    79   40   96 1    
    80   41   97 1    
    81   41   98 1    
    82   41   99 1    
    83   42   43 2    
    84   42   44 am   BACKBONE|DICT|INTERRES
    85   44   45 1    
    86   44  100 1    
    87   45   46 1    
    88   45   47 1    
    89   45  101 1    
    90   46  102 1    
    91   46  103 1    
    92   46  104 1    
    93   47   48 2    
    94   47   49 am   BACKBONE|DICT|INTERRES
    95   49   50 1    
    96   49  105 1    
    97   50   51 1    
    98   50   52 1    
    99   50  106 1    
   100   51  107 1    
   101   51  108 1    
   102   51  109 1    
   103   52   53 2    
   104   52   54 am   BACKBONE|DICT|INTERRES
   105   54   55 1    
   106   54  110 1    
   107   55   56 1    
   108   55   59 1    
   109   55  111 1    
   110   56   57 am   BACKBONE|DICT|INTERRES
   111   56   58 2    
   112   57  112 1    
   113   57  113 1    
   114   59   60 1    
   115   59  114 1    
   116   59  115 1    
   117   60   61 1    
   118   61  116 1    
   119   61  117 1    
@<TRIPOS>SUBSTRUCTURE
     1 UNK         1 GROUP             0       ****    0 ROOT    
