@<TRIPOS>MOLECULE
3R8
117   119    1
SMALL
USER_CHARGES


@<TRIPOS>ATOM
      1 CA         19.2435  -24.1894  -40.1856 C.3       0 UNK        -0.2013 
      2 C          18.5933  -23.8859  -41.5278 C.2       0 UNK         0.4866 
      3 O          18.8111  -22.8096  -42.0833 O.2       0 UNK        -0.5176 
      4 N          17.7889  -24.8244  -42.0457 N.am      1 UNK        -0.4884 
      5 CA         17.0663  -24.7274  -43.3224 C.3       1 UNK         0.0853 
      6 C6         16.0482  -25.8875  -43.4820 C.3       10 UNK        -0.0849 
      7 S7         16.7941  -27.5557  -43.3409 S.3       10 UNK        -0.2776 
      8 C8         16.3962  -28.2627  -44.9717 C.3       10 UNK         0.0316 
      9 C9         17.0456  -29.6268  -45.1618 C.ar      10 UNK        -0.0863 
     10 C10        16.6486  -30.7099  -44.3706 C.ar      10 UNK        -0.1009 
     11 C11        17.2348  -31.9696  -44.5296 C.ar      10 UNK        -0.0712 
     12 C12        18.2226  -32.1364  -45.5083 C.ar      10 UNK        -0.0894 
     13 C13        18.6437  -31.0610  -46.2947 C.ar      10 UNK        -0.0745 
     14 C14        18.0367  -29.8124  -46.1305 C.ar      10 UNK        -0.0972 
     15 C15        19.7665  -31.2633  -47.3069 C.3       10 UNK         0.0209 
     16 S16        21.1694  -30.1104  -47.0982 S.3       10 UNK        -0.2568 
     17 C17        21.5471  -30.1923  -45.3074 C.3       10 UNK        -0.0983 
     18 CA         21.9487  -28.8120  -44.7228 C.3       3 UNK         0.0876 
     19 N          21.0414  -27.7369  -45.1536 N.am      3 UNK        -0.4424 
     20 C          21.2133  -26.4280  -44.9251 C.2       2 UNK         0.4918 
     21 O          22.1201  -25.9699  -44.2334 O.2       2 UNK        -0.4875 
     22 CA         20.1610  -25.4772  -45.5018 C.3       2 UNK         0.0481 
     23 CB         19.6333  -25.9265  -46.8835 C.3       2 UNK        -0.1831 
     24 N          19.0986  -25.3842  -44.5073 N.am      2 UNK        -0.4498 
     25 C          18.0010  -24.6210  -44.5473 C.2       1 UNK         0.5027 
     26 O          17.7123  -23.8621  -45.4735 O.2       1 UNK        -0.4969 
     27 C          22.0997  -28.8791  -43.1869 C.2       3 UNK         0.5005 
     28 O          23.1893  -29.1619  -42.6852 O.2       3 UNK        -0.5279 
     29 N          21.0201  -28.5379  -42.4679 N.am      4 UNK        -0.4463 
     30 CA         20.9757  -28.4054  -41.0104 C.3       4 UNK         0.0283 
     31 CB         19.5286  -28.1362  -40.5726 C.3       4 UNK        -0.1875 
     32 C          21.9255  -27.3359  -40.4388 C.2       4 UNK         0.4949 
     33 O          22.3480  -27.4757  -39.2920 O.2       4 UNK        -0.5039 
     34 N          22.2923  -26.3179  -41.2350 N.am      5 UNK        -0.4663 
     35 CA         23.2833  -25.3033  -40.8518 C.3       5 UNK         0.0242 
     36 CB         23.1785  -24.0880  -41.7876 C.3       5 UNK        -0.1982 
     37 C          24.7221  -25.8533  -40.8372 C.2       5 UNK         0.5017 
     38 O          25.5669  -25.3033  -40.1309 O.2       5 UNK        -0.5012 
     39 N          24.9652  -26.9410  -41.5830 N.am      6 UNK        -0.4439 
     40 CA         26.2082  -27.7158  -41.5721 C.3       6 UNK         0.0297 
     41 CB         26.5058  -28.1950  -43.0044 C.3       6 UNK        -0.2006 
     42 C          26.1388  -28.9057  -40.5924 C.2       6 UNK         0.4892 
     43 O          27.0695  -29.7118  -40.5696 O.2       6 UNK        -0.5089 
     44 N          25.0454  -29.0038  -39.8173 N.am      7 UNK        -0.4243 
     45 CA         24.7090  -30.0628  -38.8589 C.3       7 UNK         0.0196 
     46 CB         25.7287  -30.1115  -37.7004 C.3       7 UNK        -0.2007 
     47 C          24.4709  -31.4410  -39.5089 C.2       7 UNK         0.5020 
     48 O          24.6101  -32.4616  -38.8322 O.2       7 UNK        -0.5147 
     49 N          24.0960  -31.4581  -40.7945 N.am      8 UNK        -0.4734 
     50 CA         23.6783  -32.6608  -41.5154 C.3       8 UNK         0.0238 
     51 CB         24.1243  -32.5342  -42.9815 C.3       8 UNK        -0.1912 
     52 C          22.1548  -32.8430  -41.4102 C.2       8 UNK         0.5038 
     53 O          21.4454  -31.9056  -41.0382 O.2       8 UNK        -0.5046 
     54 N          21.6762  -34.0409  -41.7691 N.am      9 UNK        -0.4200 
     55 CA         20.2614  -34.4442  -41.7099 C.3       9 UNK         0.0839 
     56 C          19.7316  -34.6192  -40.2529 C.2       9 UNK         0.5513 
     57 N          18.4232  -34.7231  -40.0649 N.am      9 UNK        -0.7519 
     58 O          20.4948  -34.7124  -39.2932 O.2       9 UNK        -0.4960 
     59 C59        19.3606  -33.5479  -42.6139 C.3       10 UNK        -0.0876 
     60 S60        17.9812  -34.4619  -43.3825 S.3       10 UNK        -0.2414 
     61 C61        16.7643  -33.1219  -43.6384 C.3       10 UNK         0.0169 
     62 H62        19.0876  -23.3587  -39.4979 H         1 UNK         0.0903 
     63 H63        18.8316  -25.0865  -39.7242 H         1 UNK         0.0903 
     64 H64        20.3162  -24.3304  -40.3086 H         1 UNK         0.0903 
     65 H65        17.6241  -25.6787  -41.5325 H         1 UNK         0.3096 
     66 H66        16.4987  -23.7943  -43.2928 H         1 UNK         0.1121 
     67 H67        15.5077  -25.7942  -44.4262 H         1 UNK         0.0849 
     68 H68        15.2842  -25.8040  -42.7074 H         1 UNK         0.0849 
     69 H69        15.3140  -28.3608  -45.0701 H         1 UNK         0.0865 
     70 H70        16.7177  -27.5712  -45.7521 H         1 UNK         0.0865 
     71 H71        15.8812  -30.5657  -43.6219 H         1 UNK         0.1346 
     72 H72        18.6802  -33.1042  -45.6551 H         1 UNK         0.1412 
     73 H73        18.3460  -28.9887  -46.7565 H         1 UNK         0.1426 
     74 H74        19.3611  -31.1449  -48.3125 H         1 UNK         0.0716 
     75 H75        20.1553  -32.2814  -47.2526 H         1 UNK         0.0716 
     76 H76        22.3571  -30.9096  -45.1747 H         1 UNK         0.0695 
     77 H77        20.6957  -30.5997  -44.7615 H         1 UNK         0.0695 
     78 H78        22.9351  -28.5606  -45.1192 H         1 UNK         0.0983 
     79 H79        20.2747  -28.0315  -45.7390 H         1 UNK         0.3095 
     80 H80        20.6255  -24.4949  -45.6064 H         1 UNK         0.0454 
     81 H81        18.9603  -26.7788  -46.8115 H         1 UNK         0.0851 
     82 H82        20.4520  -26.2012  -47.5504 H         1 UNK         0.0851 
     83 H83        19.0867  -25.1227  -47.3761 H         1 UNK         0.0851 
     84 H84        19.2326  -25.9420  -43.6765 H         1 UNK         0.2976 
     85 H85        20.1622  -28.3548  -42.9666 H         1 UNK         0.3116 
     86 H86        21.2862  -29.3601  -40.5838 H         1 UNK         0.0646 
     87 H87        18.8693  -28.9557  -40.8604 H         1 UNK         0.0847 
     88 H88        19.1386  -27.2213  -41.0153 H         1 UNK         0.0847 
     89 H89        19.4593  -28.0331  -39.4887 H         1 UNK         0.0847 
     90 H90        21.9641  -26.2852  -42.1940 H         1 UNK         0.3040 
     91 H91        23.0512  -24.9687  -39.8379 H         1 UNK         0.1015 
     92 H92        23.8003  -23.2683  -41.4255 H         1 UNK         0.0786 
     93 H93        22.1566  -23.7146  -41.8535 H         1 UNK         0.0786 
     94 H94        23.5161  -24.3230  -42.7972 H         1 UNK         0.0786 
     95 H95        24.1995  -27.3497  -42.1075 H         1 UNK         0.3172 
     96 H96        27.0361  -27.0804  -41.2512 H         1 UNK         0.0595 
     97 H97        25.7504  -28.8945  -43.3638 H         1 UNK         0.0839 
     98 H98        27.4686  -28.7053  -43.0541 H         1 UNK         0.0839 
     99 H99        26.5487  -27.3589  -43.7024 H         1 UNK         0.0839 
    100 H100       24.3401  -28.2841  -39.9121 H         1 UNK         0.2998 
    101 H101       23.7476  -29.7751  -38.4305 H         1 UNK         0.0822 
    102 H102       25.8694  -29.1272  -37.2539 H         1 UNK         0.0787 
    103 H103       25.3888  -30.7788  -36.9075 H         1 UNK         0.0787 
    104 H104       26.7025  -30.4733  -38.0317 H         1 UNK         0.0787 
    105 H105       23.9334  -30.5776  -41.2720 H         1 UNK         0.3055 
    106 H106       24.1583  -33.5410  -41.0813 H         1 UNK         0.1106 
    107 H107       23.6826  -31.6630  -43.4614 H         1 UNK         0.0828 
    108 H108       23.8374  -33.4104  -43.5639 H         1 UNK         0.0828 
    109 H109       25.2076  -32.4381  -43.0558 H         1 UNK         0.0828 
    110 H110       22.3240  -34.7663  -42.0401 H         1 UNK         0.2931 
    111 H111       20.2652  -35.4510  -42.1293 H         1 UNK         0.0412 
    112 H112       18.0644  -34.8561  -39.1322 H         1 UNK         0.3472 
    113 H113       17.7927  -34.6825  -40.8519 H         1 UNK         0.3472 
    114 H114       18.9838  -32.6853  -42.0602 H         1 UNK         0.0970 
    115 H115       19.9501  -33.1310  -43.4317 H         1 UNK         0.0970 
    116 H116       16.4733  -32.7371  -42.6596 H         1 UNK         0.0612 
    117 H117       15.8657  -33.5537  -44.0806 H         1 UNK         0.0612 
@<TRIPOS>BOND
     1    1    2 1    
     2    1   62 1    
     3    1   63 1    
     4    1   64 1    
     5    2    3 2    
     6    2    4 am   BACKBONE|DICT|INTERRES
     7    4    5 1    
     8    4   65 1    
     9    5    6 1    
    10    5   25 1    
    11    5   66 1    
    12    6    7 1    
    13    6   67 1    
    14    6   68 1    
    15    7    8 1    
    16    8    9 1    
    17    8   69 1    
    18    8   70 1    
    19    9   10 ar   
    20    9   14 ar   
    21   10   11 ar   
    22   10   71 1    
    23   11   12 ar   
    24   11   61 1    
    25   12   13 ar   
    26   12   72 1    
    27   13   14 ar   
    28   13   15 1    
    29   14   73 1    
    30   15   16 1    
    31   15   74 1    
    32   15   75 1    
    33   16   17 1    
    34   17   18 1    
    35   17   76 1    
    36   17   77 1    
    37   18   19 1    
    38   18   27 1    
    39   18   78 1    
    40   19   20 am   BACKBONE|DICT|INTERRES
    41   19   79 1    
    42   20   21 2    
    43   20   22 1    
    44   22   23 1    
    45   22   24 1    
    46   22   80 1    
    47   23   81 1    
    48   23   82 1    
    49   23   83 1    
    50   24   25 am   BACKBONE|DICT|INTERRES
    51   24   84 1    
    52   25   26 2    
    53   27   28 2    
    54   27   29 am   BACKBONE|DICT|INTERRES
    55   29   30 1    
    56   29   85 1    
    57   30   31 1    
    58   30   32 1    
    59   30   86 1    
    60   31   87 1    
    61   31   88 1    
    62   31   89 1    
    63   32   33 2    
    64   32   34 am   BACKBONE|DICT|INTERRES
    65   34   35 1    
    66   34   90 1    
    67   35   36 1    
    68   35   37 1    
    69   35   91 1    
    70   36   92 1    
    71   36   93 1    
    72   36   94 1    
    73   37   38 2    
    74   37   39 am   BACKBONE|DICT|INTERRES
    75   39   40 1    
    76   39   95 1    
    77   40   41 1    
    78   40   42 1    
    79   40   96 1    
    80   41   97 1    
    81   41   98 1    
    82   41   99 1    
    83   42   43 2    
    84   42   44 am   BACKBONE|DICT|INTERRES
    85   44   45 1    
    86   44  100 1    
    87   45   46 1    
    88   45   47 1    
    89   45  101 1    
    90   46  102 1    
    91   46  103 1    
    92   46  104 1    
    93   47   48 2    
    94   47   49 am   BACKBONE|DICT|INTERRES
    95   49   50 1    
    96   49  105 1    
    97   50   51 1    
    98   50   52 1    
    99   50  106 1    
   100   51  107 1    
   101   51  108 1    
   102   51  109 1    
   103   52   53 2    
   104   52   54 am   BACKBONE|DICT|INTERRES
   105   54   55 1    
   106   54  110 1    
   107   55   56 1    
   108   55   59 1    
   109   55  111 1    
   110   56   57 am   BACKBONE|DICT|INTERRES
   111   56   58 2    
   112   57  112 1    
   113   57  113 1    
   114   59   60 1    
   115   59  114 1    
   116   59  115 1    
   117   60   61 1    
   118   61  116 1    
   119   61  117 1    
@<TRIPOS>SUBSTRUCTURE
     1 UNK         1 GROUP             0       ****    0 ROOT    
