@<TRIPOS>MOLECULE
3R8
117   119    1
SMALL
USER_CHARGES


@<TRIPOS>ATOM
      1 CA         14.6032  -23.3255  -45.3069 C.3       0 UNK        -0.2013 
      2 C          15.7514  -24.3087  -45.1377 C.2       0 UNK         0.4866 
      3 O          15.6538  -25.2286  -44.3258 O.2       0 UNK        -0.5176 
      4 N          16.8480  -24.1109  -45.8826 N.am      1 UNK        -0.4884 
      5 CA         18.0720  -24.9301  -45.9345 C.3       1 UNK         0.0853 
      6 C6         17.7975  -26.4101  -46.3193 C.3       10 UNK        -0.0849 
      7 S7         19.1692  -27.1498  -47.2681 S.3       10 UNK        -0.2776 
      8 C8         18.6582  -28.8958  -47.3463 C.3       10 UNK         0.0316 
      9 C9         18.8761  -29.6092  -46.0200 C.ar      10 UNK        -0.0863 
     10 C10        20.1430  -30.0978  -45.6853 C.ar      10 UNK        -0.1009 
     11 C11        20.3501  -30.7567  -44.4701 C.ar      10 UNK        -0.0712 
     12 C12        19.2811  -30.9225  -43.5856 C.ar      10 UNK        -0.0894 
     13 C13        18.0129  -30.4343  -43.9069 C.ar      10 UNK        -0.0745 
     14 C14        17.8133  -29.7863  -45.1291 C.ar      10 UNK        -0.0972 
     15 C15        16.8581  -30.5982  -42.9331 C.3       10 UNK         0.0209 
     16 S16        16.6342  -29.1048  -41.9184 S.3       10 UNK        -0.2568 
     17 C17        17.9617  -29.2737  -40.6730 C.3       10 UNK        -0.0983 
     18 CA         19.2202  -28.4032  -40.9507 C.3       3 UNK         0.0876 
     19 N          18.8561  -27.0115  -41.2663 N.am      3 UNK        -0.4424 
     20 C          19.6249  -26.0691  -41.8285 C.2       2 UNK         0.4918 
     21 O          20.8203  -26.2191  -42.0926 O.2       2 UNK        -0.4875 
     22 CA         18.9263  -24.7377  -42.1439 C.3       2 UNK         0.0481 
     23 CB         19.8532  -23.5213  -41.9367 C.3       2 UNK        -0.1831 
     24 N          18.3424  -24.7610  -43.4886 N.am      2 UNK        -0.4498 
     25 C          18.9655  -24.8173  -44.6761 C.2       1 UNK         0.5027 
     26 O          20.1867  -24.7541  -44.8199 O.2       1 UNK        -0.4969 
     27 C          20.2644  -28.5292  -39.8085 C.2       3 UNK         0.5005 
     28 O          20.0647  -29.2900  -38.8589 O.2       3 UNK        -0.5279 
     29 N          21.3518  -27.7641  -39.9170 N.am      4 UNK        -0.4463 
     30 CA         22.4969  -27.7029  -39.0125 C.3       4 UNK         0.0283 
     31 CB         22.1323  -26.9440  -37.7234 C.3       4 UNK        -0.1875 
     32 C          23.7054  -27.0491  -39.7010 C.2       4 UNK         0.4949 
     33 O          24.8393  -27.3859  -39.3605 O.2       4 UNK        -0.5039 
     34 N          23.4612  -26.1374  -40.6586 N.am      5 UNK        -0.4663 
     35 CA         24.4893  -25.3735  -41.3764 C.3       5 UNK         0.0242 
     36 CB         23.8082  -24.2472  -42.1711 C.3       5 UNK        -0.1982 
     37 C          25.3735  -26.2250  -42.3047 C.2       5 UNK         0.5017 
     38 O          26.5155  -25.8439  -42.5632 O.2       5 UNK        -0.5012 
     39 N          24.8392  -27.3600  -42.7684 N.am      6 UNK        -0.4439 
     40 CA         25.5358  -28.3729  -43.5617 C.3       6 UNK         0.0297 
     41 CB         24.9670  -28.3735  -44.9937 C.3       6 UNK        -0.2006 
     42 C          25.4134  -29.7389  -42.8649 C.2       6 UNK         0.4892 
     43 O          25.1928  -30.7493  -43.5332 O.2       6 UNK        -0.5089 
     44 N          25.5318  -29.7260  -41.5268 N.am      7 UNK        -0.4243 
     45 CA         25.2243  -30.8131  -40.5891 C.3       7 UNK         0.0196 
     46 CB         26.0780  -32.0707  -40.8708 C.3       7 UNK        -0.2007 
     47 C          23.7111  -31.1035  -40.5356 C.2       7 UNK         0.5020 
     48 O          22.9136  -30.3160  -41.0465 O.2       7 UNK        -0.5147 
     49 N          23.3310  -32.2028  -39.8737 N.am      8 UNK        -0.4734 
     50 CA         21.9313  -32.6048  -39.6954 C.3       8 UNK         0.0238 
     51 CB         21.8194  -33.4819  -38.4374 C.3       8 UNK        -0.1912 
     52 C          21.3396  -33.3405  -40.9115 C.2       8 UNK         0.5038 
     53 O          20.1149  -33.3859  -41.0335 O.2       8 UNK        -0.5046 
     54 N          22.2030  -33.9079  -41.7687 N.am      9 UNK        -0.4200 
     55 CA         21.8586  -34.7839  -42.9051 C.3       9 UNK         0.0839 
     56 C          21.1681  -36.1145  -42.4638 C.2       9 UNK         0.5513 
     57 N          20.6311  -36.8951  -43.3926 N.am      9 UNK        -0.7519 
     58 O          21.1631  -36.4864  -41.2914 O.2       9 UNK        -0.4960 
     59 C59        21.1062  -34.0298  -44.0453 C.3       10 UNK        -0.0876 
     60 S60        22.1680  -32.8220  -44.9093 S.3       10 UNK        -0.2414 
     61 C61        21.7360  -31.2552  -44.0948 C.3       10 UNK         0.0169 
     62 H62        14.8244  -22.5624  -46.0530 H         1 UNK         0.0903 
     63 H63        13.7021  -23.8529  -45.6187 H         1 UNK         0.0903 
     64 H64        14.3951  -22.8255  -44.3613 H         1 UNK         0.0903 
     65 H65        16.8644  -23.3076  -46.4973 H         1 UNK         0.3096 
     66 H66        18.6497  -24.4802  -46.7444 H         1 UNK         0.1121 
     67 H67        16.9077  -26.4765  -46.9474 H         1 UNK         0.0849 
     68 H68        17.5825  -27.0104  -45.4337 H         1 UNK         0.0849 
     69 H69        17.6138  -28.9608  -47.6556 H         1 UNK         0.0865 
     70 H70        19.2349  -29.3963  -48.1257 H         1 UNK         0.0865 
     71 H71        20.9708  -29.9602  -46.3677 H         1 UNK         0.1346 
     72 H72        19.4386  -31.4195  -42.6387 H         1 UNK         0.1412 
     73 H73        16.8313  -29.4074  -45.3783 H         1 UNK         0.1426 
     74 H74        17.0071  -31.4692  -42.2929 H         1 UNK         0.0716 
     75 H75        15.9377  -30.7852  -43.4883 H         1 UNK         0.0716 
     76 H76        18.2398  -30.3259  -40.5872 H         1 UNK         0.0695 
     77 H77        17.5245  -29.0024  -39.7101 H         1 UNK         0.0695 
     78 H78        19.7076  -28.8055  -41.8406 H         1 UNK         0.0983 
     79 H79        17.8871  -26.7867  -41.0933 H         1 UNK         0.3095 
     80 H80        18.0910  -24.6260  -41.4507 H         1 UNK         0.0454 
     81 H81        19.3307  -22.5868  -42.1392 H         1 UNK         0.0851 
     82 H82        20.7345  -23.5561  -42.5772 H         1 UNK         0.0851 
     83 H83        20.2089  -23.4780  -40.9068 H         1 UNK         0.0851 
     84 H84        17.3308  -24.8637  -43.5267 H         1 UNK         0.2976 
     85 H85        21.4068  -27.2050  -40.7653 H         1 UNK         0.3116 
     86 H86        22.7811  -28.7238  -38.7504 H         1 UNK         0.0646 
     87 H87        21.7952  -25.9288  -37.9360 H         1 UNK         0.0847 
     88 H88        22.9929  -26.8708  -37.0571 H         1 UNK         0.0847 
     89 H89        21.3413  -27.4510  -37.1709 H         1 UNK         0.0847 
     90 H90        22.5062  -25.9127  -40.9072 H         1 UNK         0.3040 
     91 H91        25.1481  -24.9194  -40.6327 H         1 UNK         0.1015 
     92 H92        23.2503  -23.5788  -41.5151 H         1 UNK         0.0786 
     93 H93        23.1155  -24.6417  -42.9164 H         1 UNK         0.0786 
     94 H94        24.5446  -23.6399  -42.6994 H         1 UNK         0.0786 
     95 H95        23.8988  -27.5924  -42.4777 H         1 UNK         0.3172 
     96 H96        26.6031  -28.1496  -43.6180 H         1 UNK         0.0595 
     97 H97        25.4788  -29.1049  -45.6204 H         1 UNK         0.0839 
     98 H98        23.9043  -28.6174  -45.0054 H         1 UNK         0.0839 
     99 H99        25.0911  -27.3999  -45.4678 H         1 UNK         0.0839 
    100 H100       25.6794  -28.8257  -41.0886 H         1 UNK         0.2998 
    101 H101       25.4977  -30.4360  -39.6024 H         1 UNK         0.0822 
    102 H102       27.1264  -31.8107  -41.0174 H         1 UNK         0.0787 
    103 H103       26.0407  -32.7723  -40.0372 H         1 UNK         0.0787 
    104 H104       25.7405  -32.6034  -41.7605 H         1 UNK         0.0787 
    105 H105       24.0355  -32.7932  -39.4546 H         1 UNK         0.3055 
    106 H106       21.3249  -31.7094  -39.5363 H         1 UNK         0.1106 
    107 H107       20.7832  -33.7709  -38.2556 H         1 UNK         0.0828 
    108 H108       22.4006  -34.4002  -38.5304 H         1 UNK         0.0828 
    109 H109       22.1649  -32.9505  -37.5504 H         1 UNK         0.0828 
    110 H110       23.1880  -33.8151  -41.5736 H         1 UNK         0.2931 
    111 H111       22.8198  -35.1080  -43.3059 H         1 UNK         0.0412 
    112 H112       20.2057  -37.7647  -43.1100 H         1 UNK         0.3472 
    113 H113       20.6556  -36.6466  -44.3688 H         1 UNK         0.3472 
    114 H114       20.2006  -33.5527  -43.6728 H         1 UNK         0.0970 
    115 H115       20.7688  -34.7196  -44.8187 H         1 UNK         0.0970 
    116 H116       22.4782  -30.5025  -44.3615 H         1 UNK         0.0612 
    117 H117       21.8105  -31.3858  -43.0186 H         1 UNK         0.0612 
@<TRIPOS>BOND
     1    1    2 1    
     2    1   62 1    
     3    1   63 1    
     4    1   64 1    
     5    2    3 2    
     6    2    4 am   BACKBONE|DICT|INTERRES
     7    4    5 1    
     8    4   65 1    
     9    5    6 1    
    10    5   25 1    
    11    5   66 1    
    12    6    7 1    
    13    6   67 1    
    14    6   68 1    
    15    7    8 1    
    16    8    9 1    
    17    8   69 1    
    18    8   70 1    
    19    9   10 ar   
    20    9   14 ar   
    21   10   11 ar   
    22   10   71 1    
    23   11   12 ar   
    24   11   61 1    
    25   12   13 ar   
    26   12   72 1    
    27   13   14 ar   
    28   13   15 1    
    29   14   73 1    
    30   15   16 1    
    31   15   74 1    
    32   15   75 1    
    33   16   17 1    
    34   17   18 1    
    35   17   76 1    
    36   17   77 1    
    37   18   19 1    
    38   18   27 1    
    39   18   78 1    
    40   19   20 am   BACKBONE|DICT|INTERRES
    41   19   79 1    
    42   20   21 2    
    43   20   22 1    
    44   22   23 1    
    45   22   24 1    
    46   22   80 1    
    47   23   81 1    
    48   23   82 1    
    49   23   83 1    
    50   24   25 am   BACKBONE|DICT|INTERRES
    51   24   84 1    
    52   25   26 2    
    53   27   28 2    
    54   27   29 am   BACKBONE|DICT|INTERRES
    55   29   30 1    
    56   29   85 1    
    57   30   31 1    
    58   30   32 1    
    59   30   86 1    
    60   31   87 1    
    61   31   88 1    
    62   31   89 1    
    63   32   33 2    
    64   32   34 am   BACKBONE|DICT|INTERRES
    65   34   35 1    
    66   34   90 1    
    67   35   36 1    
    68   35   37 1    
    69   35   91 1    
    70   36   92 1    
    71   36   93 1    
    72   36   94 1    
    73   37   38 2    
    74   37   39 am   BACKBONE|DICT|INTERRES
    75   39   40 1    
    76   39   95 1    
    77   40   41 1    
    78   40   42 1    
    79   40   96 1    
    80   41   97 1    
    81   41   98 1    
    82   41   99 1    
    83   42   43 2    
    84   42   44 am   BACKBONE|DICT|INTERRES
    85   44   45 1    
    86   44  100 1    
    87   45   46 1    
    88   45   47 1    
    89   45  101 1    
    90   46  102 1    
    91   46  103 1    
    92   46  104 1    
    93   47   48 2    
    94   47   49 am   BACKBONE|DICT|INTERRES
    95   49   50 1    
    96   49  105 1    
    97   50   51 1    
    98   50   52 1    
    99   50  106 1    
   100   51  107 1    
   101   51  108 1    
   102   51  109 1    
   103   52   53 2    
   104   52   54 am   BACKBONE|DICT|INTERRES
   105   54   55 1    
   106   54  110 1    
   107   55   56 1    
   108   55   59 1    
   109   55  111 1    
   110   56   57 am   BACKBONE|DICT|INTERRES
   111   56   58 2    
   112   57  112 1    
   113   57  113 1    
   114   59   60 1    
   115   59  114 1    
   116   59  115 1    
   117   60   61 1    
   118   61  116 1    
   119   61  117 1    
@<TRIPOS>SUBSTRUCTURE
     1 UNK         1 GROUP             0       ****    0 ROOT    
