@<TRIPOS>MOLECULE
3R8
117   119    1
SMALL
USER_CHARGES


@<TRIPOS>ATOM
      1 CA         20.2423  -25.5238  -39.8431 C.3       0 UNK        -0.2013 
      2 C          19.7060  -25.9615  -41.1965 C.2       0 UNK         0.4866 
      3 O          20.3230  -26.8014  -41.8554 O.2       0 UNK        -0.5176 
      4 N          18.5636  -25.3843  -41.5957 N.am      1 UNK        -0.4884 
      5 CA         17.8933  -25.5204  -42.8958 C.3       1 UNK         0.0853 
      6 C6         17.6154  -26.9978  -43.2924 C.3       10 UNK        -0.0849 
      7 S7         16.1728  -27.1664  -44.3991 S.3       10 UNK        -0.2776 
      8 C8         15.8539  -28.9576  -44.3141 C.3       10 UNK         0.0316 
      9 C9         17.0539  -29.7863  -44.7547 C.ar      10 UNK        -0.0863 
     10 C10        17.6238  -30.7147  -43.8789 C.ar      10 UNK        -0.1009 
     11 C11        18.7114  -31.5046  -44.2778 C.ar      10 UNK        -0.0712 
     12 C12        19.2427  -31.3216  -45.5590 C.ar      10 UNK        -0.0894 
     13 C13        18.6864  -30.3943  -46.4456 C.ar      10 UNK        -0.0745 
     14 C14        17.5797  -29.6422  -46.0413 C.ar      10 UNK        -0.0972 
     15 C15        19.2631  -30.2393  -47.8493 C.3       10 UNK         0.0209 
     16 S16        19.6116  -28.5078  -48.3023 S.3       10 UNK        -0.2568 
     17 C17        20.9218  -28.0736  -47.1106 C.3       10 UNK        -0.0983 
     18 CA         21.1860  -26.5475  -47.0659 C.3       3 UNK         0.0876 
     19 N          19.9748  -25.8047  -46.7090 N.am      3 UNK        -0.4424 
     20 C          19.7700  -24.5014  -46.9356 C.2       2 UNK         0.4918 
     21 O          20.5596  -23.7755  -47.5396 O.2       2 UNK        -0.4875 
     22 CA         18.4739  -23.9006  -46.3603 C.3       2 UNK         0.0481 
     23 CB         17.3753  -23.8753  -47.4345 C.3       2 UNK        -0.1831 
     24 N          17.9715  -24.6019  -45.1714 N.am      2 UNK        -0.4498 
     25 C          18.6216  -24.7258  -44.0052 C.2       1 UNK         0.5027 
     26 O          19.7415  -24.2478  -43.8085 O.2       1 UNK        -0.4969 
     27 C          22.3717  -26.2388  -46.1238 C.2       3 UNK         0.5005 
     28 O          23.5028  -26.5823  -46.4714 O.2       3 UNK        -0.5279 
     29 N          22.1038  -25.6281  -44.9545 N.am      4 UNK        -0.4463 
     30 CA         23.0404  -25.3550  -43.8563 C.3       4 UNK         0.0283 
     31 CB         24.0760  -24.2870  -44.2660 C.3       4 UNK        -0.1875 
     32 C          23.6813  -26.6430  -43.3030 C.2       4 UNK         0.4949 
     33 O          24.8843  -26.6762  -43.0389 O.2       4 UNK        -0.5039 
     34 N          22.8583  -27.6909  -43.1646 N.am      5 UNK        -0.4663 
     35 CA         23.2648  -29.0087  -42.6811 C.3       5 UNK         0.0242 
     36 CB         22.2165  -30.0532  -43.0987 C.3       5 UNK        -0.1982 
     37 C          23.4727  -29.0171  -41.1619 C.2       5 UNK         0.5017 
     38 O          24.4624  -29.5802  -40.6921 O.2       5 UNK        -0.5012 
     39 N          22.5429  -28.3845  -40.4282 N.am      6 UNK        -0.4439 
     40 CA         22.5168  -28.2736  -38.9650 C.3       6 UNK         0.0297 
     41 CB         23.5726  -27.2463  -38.4938 C.3       6 UNK        -0.2006 
     42 C          22.6282  -29.6538  -38.2853 C.2       6 UNK         0.4892 
     43 O          21.7628  -30.5022  -38.5086 O.2       6 UNK        -0.5089 
     44 N          23.7013  -29.8694  -37.5114 N.am      7 UNK        -0.4243 
     45 CA         24.0180  -31.1186  -36.8146 C.3       7 UNK         0.0196 
     46 CB         25.2703  -30.9090  -35.9485 C.3       7 UNK        -0.2007 
     47 C          24.2036  -32.3359  -37.7387 C.2       7 UNK         0.5020 
     48 O          23.9659  -33.4587  -37.2930 O.2       7 UNK        -0.5147 
     49 N          24.5772  -32.1145  -39.0097 N.am      8 UNK        -0.4734 
     50 CA         24.6842  -33.1725  -40.0228 C.3       8 UNK         0.0238 
     51 CB         25.4350  -32.6461  -41.2568 C.3       8 UNK        -0.1912 
     52 C          23.3213  -33.7624  -40.4301 C.2       8 UNK         0.5038 
     53 O          23.2896  -34.8748  -40.9575 O.2       8 UNK        -0.5046 
     54 N          22.2309  -33.0286  -40.1644 N.am      9 UNK        -0.4200 
     55 CA         20.8496  -33.5058  -40.3004 C.3       9 UNK         0.0839 
     56 C          20.3597  -34.3643  -39.0935 C.2       9 UNK         0.5513 
     57 N          21.1347  -34.5341  -38.0270 N.am      9 UNK        -0.7519 
     58 O          19.2582  -34.9057  -39.1278 O.2       9 UNK        -0.4960 
     59 C59        19.8872  -32.3307  -40.6318 C.3       10 UNK        -0.0876 
     60 S60        18.5472  -32.8411  -41.7586 S.3       10 UNK        -0.2414 
     61 C61        19.3284  -32.5923  -43.3936 C.3       10 UNK         0.0169 
     62 H62        21.3296  -25.4701  -39.8682 H         1 UNK         0.0903 
     63 H63        19.8687  -24.5393  -39.5624 H         1 UNK         0.0903 
     64 H64        19.9433  -26.2328  -39.0725 H         1 UNK         0.0903 
     65 H65        18.1432  -24.6969  -40.9852 H         1 UNK         0.3096 
     66 H66        16.9320  -25.0228  -42.7550 H         1 UNK         0.1121 
     67 H67        17.4080  -27.5872  -42.3977 H         1 UNK         0.0849 
     68 H68        18.4906  -27.4589  -43.7552 H         1 UNK         0.0849 
     69 H69        15.5518  -29.2142  -43.2974 H         1 UNK         0.0865 
     70 H70        15.0039  -29.1965  -44.9546 H         1 UNK         0.0865 
     71 H71        17.1967  -30.8262  -42.8932 H         1 UNK         0.1346 
     72 H72        20.0843  -31.9234  -45.8747 H         1 UNK         0.1412 
     73 H73        17.1334  -28.9330  -46.7252 H         1 UNK         0.1426 
     74 H74        18.5508  -30.6511  -48.5653 H         1 UNK         0.0716 
     75 H75        20.1810  -30.8188  -47.9599 H         1 UNK         0.0716 
     76 H76        21.8254  -28.6154  -47.3970 H         1 UNK         0.0695 
     77 H77        20.6432  -28.4395  -46.1204 H         1 UNK         0.0695 
     78 H78        21.4929  -26.2292  -48.0649 H         1 UNK         0.0983 
     79 H79        19.2507  -26.3313  -46.2439 H         1 UNK         0.3095 
     80 H80        18.6915  -22.8712  -46.0685 H         1 UNK         0.0454 
     81 H81        16.4779  -23.3721  -47.0744 H         1 UNK         0.0851 
     82 H82        17.0942  -24.8813  -47.7492 H         1 UNK         0.0851 
     83 H83        17.7102  -23.3381  -48.3230 H         1 UNK         0.0851 
     84 H84        17.0684  -25.0510  -45.2581 H         1 UNK         0.2976 
     85 H85        21.1480  -25.3426  -44.7668 H         1 UNK         0.3116 
     86 H86        22.4429  -24.9400  -43.0430 H         1 UNK         0.0646 
     87 H87        24.7481  -24.6500  -45.0441 H         1 UNK         0.0847 
     88 H88        24.6929  -23.9955  -43.4152 H         1 UNK         0.0847 
     89 H89        23.5891  -23.3850  -44.6365 H         1 UNK         0.0847 
     90 H90        21.8684  -27.5406  -43.3150 H         1 UNK         0.3040 
     91 H91        24.2166  -29.2734  -43.1476 H         1 UNK         0.1015 
     92 H92        21.2259  -29.8124  -42.7104 H         1 UNK         0.0786 
     93 H93        22.4839  -31.0442  -42.7290 H         1 UNK         0.0786 
     94 H94        22.1385  -30.1229  -44.1839 H         1 UNK         0.0786 
     95 H95        21.7643  -27.9591  -40.9229 H         1 UNK         0.3172 
     96 H96        21.5332  -27.8912  -38.6955 H         1 UNK         0.0595 
     97 H97        24.5891  -27.5531  -38.7437 H         1 UNK         0.0839 
     98 H98        23.5224  -27.0909  -37.4152 H         1 UNK         0.0839 
     99 H99        23.4088  -26.2748  -38.9591 H         1 UNK         0.0839 
    100 H100       24.3717  -29.1203  -37.4176 H         1 UNK         0.2998 
    101 H101       23.1780  -31.3437  -36.1540 H         1 UNK         0.0822 
    102 H102       25.5167  -31.8149  -35.3924 H         1 UNK         0.0787 
    103 H103       26.1407  -30.6515  -36.5535 H         1 UNK         0.0787 
    104 H104       25.1204  -30.1142  -35.2174 H         1 UNK         0.0787 
    105 H105       24.7114  -31.1603  -39.3305 H         1 UNK         0.3055 
    106 H106       25.2715  -33.9871  -39.5926 H         1 UNK         0.1106 
    107 H107       24.8518  -31.9046  -41.8022 H         1 UNK         0.0828 
    108 H108       26.3878  -32.1926  -40.9835 H         1 UNK         0.0828 
    109 H109       25.6505  -33.4580  -41.9526 H         1 UNK         0.0828 
    110 H110       22.3416  -32.1430  -39.6836 H         1 UNK         0.2931 
    111 H111       20.8435  -34.1842  -41.1559 H         1 UNK         0.0412 
    112 H112       22.0544  -34.1158  -37.9698 H         1 UNK         0.3472 
    113 H113       20.7969  -35.0995  -37.2641 H         1 UNK         0.3472 
    114 H114       20.4229  -31.5022  -41.0966 H         1 UNK         0.0970 
    115 H115       19.4516  -31.9087  -39.7239 H         1 UNK         0.0970 
    116 H116       20.3932  -32.3929  -43.2713 H         1 UNK         0.0612 
    117 H117       19.2632  -33.5406  -43.9287 H         1 UNK         0.0612 
@<TRIPOS>BOND
     1    1    2 1    
     2    1   62 1    
     3    1   63 1    
     4    1   64 1    
     5    2    3 2    
     6    2    4 am   BACKBONE|DICT|INTERRES
     7    4    5 1    
     8    4   65 1    
     9    5    6 1    
    10    5   25 1    
    11    5   66 1    
    12    6    7 1    
    13    6   67 1    
    14    6   68 1    
    15    7    8 1    
    16    8    9 1    
    17    8   69 1    
    18    8   70 1    
    19    9   10 ar   
    20    9   14 ar   
    21   10   11 ar   
    22   10   71 1    
    23   11   12 ar   
    24   11   61 1    
    25   12   13 ar   
    26   12   72 1    
    27   13   14 ar   
    28   13   15 1    
    29   14   73 1    
    30   15   16 1    
    31   15   74 1    
    32   15   75 1    
    33   16   17 1    
    34   17   18 1    
    35   17   76 1    
    36   17   77 1    
    37   18   19 1    
    38   18   27 1    
    39   18   78 1    
    40   19   20 am   BACKBONE|DICT|INTERRES
    41   19   79 1    
    42   20   21 2    
    43   20   22 1    
    44   22   23 1    
    45   22   24 1    
    46   22   80 1    
    47   23   81 1    
    48   23   82 1    
    49   23   83 1    
    50   24   25 am   BACKBONE|DICT|INTERRES
    51   24   84 1    
    52   25   26 2    
    53   27   28 2    
    54   27   29 am   BACKBONE|DICT|INTERRES
    55   29   30 1    
    56   29   85 1    
    57   30   31 1    
    58   30   32 1    
    59   30   86 1    
    60   31   87 1    
    61   31   88 1    
    62   31   89 1    
    63   32   33 2    
    64   32   34 am   BACKBONE|DICT|INTERRES
    65   34   35 1    
    66   34   90 1    
    67   35   36 1    
    68   35   37 1    
    69   35   91 1    
    70   36   92 1    
    71   36   93 1    
    72   36   94 1    
    73   37   38 2    
    74   37   39 am   BACKBONE|DICT|INTERRES
    75   39   40 1    
    76   39   95 1    
    77   40   41 1    
    78   40   42 1    
    79   40   96 1    
    80   41   97 1    
    81   41   98 1    
    82   41   99 1    
    83   42   43 2    
    84   42   44 am   BACKBONE|DICT|INTERRES
    85   44   45 1    
    86   44  100 1    
    87   45   46 1    
    88   45   47 1    
    89   45  101 1    
    90   46  102 1    
    91   46  103 1    
    92   46  104 1    
    93   47   48 2    
    94   47   49 am   BACKBONE|DICT|INTERRES
    95   49   50 1    
    96   49  105 1    
    97   50   51 1    
    98   50   52 1    
    99   50  106 1    
   100   51  107 1    
   101   51  108 1    
   102   51  109 1    
   103   52   53 2    
   104   52   54 am   BACKBONE|DICT|INTERRES
   105   54   55 1    
   106   54  110 1    
   107   55   56 1    
   108   55   59 1    
   109   55  111 1    
   110   56   57 am   BACKBONE|DICT|INTERRES
   111   56   58 2    
   112   57  112 1    
   113   57  113 1    
   114   59   60 1    
   115   59  114 1    
   116   59  115 1    
   117   60   61 1    
   118   61  116 1    
   119   61  117 1    
@<TRIPOS>SUBSTRUCTURE
     1 UNK         1 GROUP             0       ****    0 ROOT    
