@<TRIPOS>MOLECULE
3R8
117   119    1
SMALL
USER_CHARGES


@<TRIPOS>ATOM
      1 CA         13.9832  -24.1222  -46.1868 C.3       0 UNK        -0.2013 
      2 C          15.4776  -24.2977  -46.4106 C.2       0 UNK         0.4866 
      3 O          16.0771  -23.5374  -47.1709 O.2       0 UNK        -0.5176 
      4 N          16.0852  -25.2948  -45.7535 N.am      1 UNK        -0.4884 
      5 CA         17.5123  -25.6310  -45.8758 C.3       1 UNK         0.0853 
      6 C6         17.8477  -27.0333  -45.2943 C.3       10 UNK        -0.0849 
      7 S7         16.7110  -28.3685  -45.7907 S.3       10 UNK        -0.2776 
      8 C8         15.9870  -28.8317  -44.1785 C.3       10 UNK         0.0316 
      9 C9         17.0016  -29.4774  -43.2384 C.ar      10 UNK        -0.0863 
     10 C10        17.5580  -30.7176  -43.5659 C.ar      10 UNK        -0.1009 
     11 C11        18.4502  -31.3496  -42.6964 C.ar      10 UNK        -0.0712 
     12 C12        18.7826  -30.7345  -41.4866 C.ar      10 UNK        -0.0894 
     13 C13        18.2437  -29.4901  -41.1462 C.ar      10 UNK        -0.0745 
     14 C14        17.3542  -28.8635  -42.0281 C.ar      10 UNK        -0.0972 
     15 C15        18.5881  -28.8656  -39.7984 C.3       10 UNK         0.0209 
     16 S16        20.2878  -28.2041  -39.7478 S.3       10 UNK        -0.2568 
     17 C17        20.0547  -26.4688  -40.2636 C.3       10 UNK        -0.0983 
     18 CA         20.2685  -26.2759  -41.7867 C.3       3 UNK         0.0876 
     19 N          19.3956  -25.2426  -42.3470 N.am      3 UNK        -0.4424 
     20 C          19.5195  -23.9089  -42.2634 C.2       2 UNK         0.4918 
     21 O          20.3383  -23.3372  -41.5435 O.2       2 UNK        -0.4875 
     22 CA         18.5773  -23.0776  -43.1673 C.3       2 UNK         0.0481 
     23 CB         19.3068  -21.8809  -43.8120 C.3       2 UNK        -0.1831 
     24 N          17.8812  -23.8822  -44.1881 N.am      2 UNK        -0.4498 
     25 C          18.4316  -24.6045  -45.1813 C.2       1 UNK         0.5027 
     26 O          19.6320  -24.5881  -45.4566 O.2       1 UNK        -0.4969 
     27 C          21.7455  -26.0998  -42.2193 C.2       3 UNK         0.5005 
     28 O          22.6599  -26.3321  -41.4265 O.2       3 UNK        -0.5279 
     29 N          21.9579  -25.6999  -43.4860 N.am      4 UNK        -0.4463 
     30 CA         23.2685  -25.4088  -44.0856 C.3       4 UNK         0.0283 
     31 CB         23.0599  -24.8768  -45.5123 C.3       4 UNK        -0.1875 
     32 C          24.2572  -26.5912  -44.0916 C.2       4 UNK         0.4949 
     33 O          25.4661  -26.3680  -44.1494 O.2       4 UNK        -0.5039 
     34 N          23.7323  -27.8199  -43.9997 N.am      5 UNK        -0.4663 
     35 CA         24.4957  -29.0580  -43.8302 C.3       5 UNK         0.0242 
     36 CB         23.5989  -30.2394  -44.2353 C.3       5 UNK        -0.1982 
     37 C          25.0376  -29.2674  -42.4012 C.2       5 UNK         0.5017 
     38 O          25.7384  -30.2545  -42.1811 O.2       5 UNK        -0.5012 
     39 N          24.6793  -28.3900  -41.4479 N.am      6 UNK        -0.4439 
     40 CA         25.0262  -28.4442  -40.0201 C.3       6 UNK         0.0297 
     41 CB         26.5410  -28.2338  -39.8105 C.3       6 UNK        -0.2006 
     42 C          24.4915  -29.7140  -39.3282 C.2       6 UNK         0.4892 
     43 O          25.1621  -30.2786  -38.4627 O.2       6 UNK        -0.5089 
     44 N          23.2945  -30.1423  -39.7557 N.am      7 UNK        -0.4243 
     45 CA         22.5558  -31.3371  -39.3340 C.3       7 UNK         0.0196 
     46 CB         22.1604  -31.2478  -37.8451 C.3       7 UNK        -0.2007 
     47 C          23.2353  -32.6773  -39.6832 C.2       7 UNK         0.5020 
     48 O          22.8014  -33.7122  -39.1758 O.2       7 UNK        -0.5147 
     49 N          24.2430  -32.6726  -40.5721 N.am      8 UNK        -0.4734 
     50 CA         24.9461  -33.8792  -41.0361 C.3       8 UNK         0.0238 
     51 CB         26.1572  -33.4725  -41.8898 C.3       8 UNK        -0.1912 
     52 C          24.0467  -34.8590  -41.8131 C.2       8 UNK         0.5038 
     53 O          24.3092  -36.0621  -41.8047 O.2       8 UNK        -0.5046 
     54 N          22.9951  -34.3238  -42.4429 N.am      9 UNK        -0.4200 
     55 CA         21.8914  -35.0656  -43.0652 C.3       9 UNK         0.0839 
     56 C          20.8856  -35.7068  -42.0627 C.2       9 UNK         0.5513 
     57 N          20.9776  -35.4664  -40.7595 N.am      9 UNK        -0.7519 
     58 O          20.0028  -36.4517  -42.4800 O.2       9 UNK        -0.4960 
     59 C59        21.1764  -34.2127  -44.1500 C.3       10 UNK        -0.0876 
     60 S60        20.7627  -32.5119  -43.6221 S.3       10 UNK        -0.2414 
     61 C61        19.0475  -32.7006  -43.0569 C.3       10 UNK         0.0169 
     62 H62        13.4489  -24.2202  -47.1315 H         1 UNK         0.0903 
     63 H63        13.5839  -24.8626  -45.4938 H         1 UNK         0.0903 
     64 H64        13.7781  -23.1320  -45.7807 H         1 UNK         0.0903 
     65 H65        15.5365  -25.9151  -45.1751 H         1 UNK         0.3096 
     66 H66        17.7685  -25.6290  -46.9380 H         1 UNK         0.1121 
     67 H67        17.8748  -27.0014  -44.2049 H         1 UNK         0.0849 
     68 H68        18.8522  -27.3323  -45.6016 H         1 UNK         0.0849 
     69 H69        15.5323  -27.9533  -43.7182 H         1 UNK         0.0865 
     70 H70        15.1718  -29.5359  -44.3518 H         1 UNK         0.0865 
     71 H71        17.2899  -31.1925  -44.5001 H         1 UNK         0.1346 
     72 H72        19.4613  -31.2287  -40.8062 H         1 UNK         0.1412 
     73 H73        16.9188  -27.9107  -41.7595 H         1 UNK         0.1426 
     74 H74        18.4987  -29.6312  -39.0263 H         1 UNK         0.0716 
     75 H75        17.8689  -28.0907  -39.5300 H         1 UNK         0.0716 
     76 H76        20.7224  -25.8277  -39.6849 H         1 UNK         0.0695 
     77 H77        19.0476  -26.1622  -39.9783 H         1 UNK         0.0695 
     78 H78        19.9449  -27.1936  -42.2810 H         1 UNK         0.0983 
     79 H79        18.6553  -25.5809  -42.9399 H         1 UNK         0.3095 
     80 H80        17.8007  -22.6798  -42.5127 H         1 UNK         0.0454 
     81 H81        18.6380  -21.3067  -44.4528 H         1 UNK         0.0851 
     82 H82        20.1583  -22.1987  -44.4144 H         1 UNK         0.0851 
     83 H83        19.6879  -21.1989  -43.0509 H         1 UNK         0.0851 
     84 H84        16.8832  -23.9783  -44.0567 H         1 UNK         0.2976 
     85 H85        21.1541  -25.4989  -44.0694 H         1 UNK         0.3116 
     86 H86        23.7252  -24.6154  -43.4905 H         1 UNK         0.0646 
     87 H87        22.5642  -25.6112  -46.1484 H         1 UNK         0.0847 
     88 H88        22.4539  -23.9704  -45.5138 H         1 UNK         0.0847 
     89 H89        24.0126  -24.6276  -45.9818 H         1 UNK         0.0847 
     90 H90        22.7266  -27.9009  -43.9738 H         1 UNK         0.3040 
     91 H91        25.3583  -29.0320  -44.4998 H         1 UNK         0.1015 
     92 H92        24.1335  -31.1877  -44.1628 H         1 UNK         0.0786 
     93 H93        23.2541  -30.1443  -45.2651 H         1 UNK         0.0786 
     94 H94        22.7214  -30.3094  -43.5924 H         1 UNK         0.0786 
     95 H95        24.0570  -27.6253  -41.7016 H         1 UNK         0.3172 
     96 H96        24.5093  -27.6049  -39.5522 H         1 UNK         0.0595 
     97 H97        27.1246  -29.0699  -40.1970 H         1 UNK         0.0839 
     98 H98        26.7785  -28.1361  -38.7505 H         1 UNK         0.0839 
     99 H99        26.8872  -27.3258  -40.3041 H         1 UNK         0.0839 
    100 H100       22.8364  -29.5809  -40.4604 H         1 UNK         0.2998 
    101 H101       21.6324  -31.3247  -39.9130 H         1 UNK         0.0822 
    102 H102       21.4773  -32.0527  -37.5710 H         1 UNK         0.0787 
    103 H103       23.0285  -31.3226  -37.1897 H         1 UNK         0.0787 
    104 H104       21.6531  -30.3081  -37.6261 H         1 UNK         0.0787 
    105 H105       24.5714  -31.7867  -40.9377 H         1 UNK         0.3055 
    106 H106       25.3110  -34.4089  -40.1532 H         1 UNK         0.1106 
    107 H107       26.8351  -32.8236  -41.3348 H         1 UNK         0.0828 
    108 H108       26.7287  -34.3484  -42.1999 H         1 UNK         0.0828 
    109 H109       25.8540  -32.9442  -42.7945 H         1 UNK         0.0828 
    110 H110       22.8632  -33.3250  -42.3868 H         1 UNK         0.2931 
    111 H111       22.3397  -35.9135  -43.5868 H         1 UNK         0.0412 
    112 H112       20.3161  -35.9020  -40.1369 H         1 UNK         0.3472 
    113 H113       21.7015  -34.8682  -40.3770 H         1 UNK         0.3472 
    114 H114       20.2854  -34.7139  -44.5333 H         1 UNK         0.0970 
    115 H115       21.8390  -34.1202  -45.0118 H         1 UNK         0.0970 
    116 H116       19.0182  -33.3592  -42.1879 H         1 UNK         0.0612 
    117 H117       18.4576  -33.1842  -43.8372 H         1 UNK         0.0612 
@<TRIPOS>BOND
     1    1    2 1    
     2    1   62 1    
     3    1   63 1    
     4    1   64 1    
     5    2    3 2    
     6    2    4 am   BACKBONE|DICT|INTERRES
     7    4    5 1    
     8    4   65 1    
     9    5    6 1    
    10    5   25 1    
    11    5   66 1    
    12    6    7 1    
    13    6   67 1    
    14    6   68 1    
    15    7    8 1    
    16    8    9 1    
    17    8   69 1    
    18    8   70 1    
    19    9   10 ar   
    20    9   14 ar   
    21   10   11 ar   
    22   10   71 1    
    23   11   12 ar   
    24   11   61 1    
    25   12   13 ar   
    26   12   72 1    
    27   13   14 ar   
    28   13   15 1    
    29   14   73 1    
    30   15   16 1    
    31   15   74 1    
    32   15   75 1    
    33   16   17 1    
    34   17   18 1    
    35   17   76 1    
    36   17   77 1    
    37   18   19 1    
    38   18   27 1    
    39   18   78 1    
    40   19   20 am   BACKBONE|DICT|INTERRES
    41   19   79 1    
    42   20   21 2    
    43   20   22 1    
    44   22   23 1    
    45   22   24 1    
    46   22   80 1    
    47   23   81 1    
    48   23   82 1    
    49   23   83 1    
    50   24   25 am   BACKBONE|DICT|INTERRES
    51   24   84 1    
    52   25   26 2    
    53   27   28 2    
    54   27   29 am   BACKBONE|DICT|INTERRES
    55   29   30 1    
    56   29   85 1    
    57   30   31 1    
    58   30   32 1    
    59   30   86 1    
    60   31   87 1    
    61   31   88 1    
    62   31   89 1    
    63   32   33 2    
    64   32   34 am   BACKBONE|DICT|INTERRES
    65   34   35 1    
    66   34   90 1    
    67   35   36 1    
    68   35   37 1    
    69   35   91 1    
    70   36   92 1    
    71   36   93 1    
    72   36   94 1    
    73   37   38 2    
    74   37   39 am   BACKBONE|DICT|INTERRES
    75   39   40 1    
    76   39   95 1    
    77   40   41 1    
    78   40   42 1    
    79   40   96 1    
    80   41   97 1    
    81   41   98 1    
    82   41   99 1    
    83   42   43 2    
    84   42   44 am   BACKBONE|DICT|INTERRES
    85   44   45 1    
    86   44  100 1    
    87   45   46 1    
    88   45   47 1    
    89   45  101 1    
    90   46  102 1    
    91   46  103 1    
    92   46  104 1    
    93   47   48 2    
    94   47   49 am   BACKBONE|DICT|INTERRES
    95   49   50 1    
    96   49  105 1    
    97   50   51 1    
    98   50   52 1    
    99   50  106 1    
   100   51  107 1    
   101   51  108 1    
   102   51  109 1    
   103   52   53 2    
   104   52   54 am   BACKBONE|DICT|INTERRES
   105   54   55 1    
   106   54  110 1    
   107   55   56 1    
   108   55   59 1    
   109   55  111 1    
   110   56   57 am   BACKBONE|DICT|INTERRES
   111   56   58 2    
   112   57  112 1    
   113   57  113 1    
   114   59   60 1    
   115   59  114 1    
   116   59  115 1    
   117   60   61 1    
   118   61  116 1    
   119   61  117 1    
@<TRIPOS>SUBSTRUCTURE
     1 UNK         1 GROUP             0       ****    0 ROOT    
