@<TRIPOS>MOLECULE
3R8
117   119    1
SMALL
USER_CHARGES


@<TRIPOS>ATOM
      1 CA         13.5060  -22.8419  -43.2317 C.3       0 UNK        -0.2013 
      2 C          14.0801  -23.5383  -44.4562 C.2       0 UNK         0.4866 
      3 O          13.8340  -23.1025  -45.5810 O.2       0 UNK        -0.5176 
      4 N          14.8455  -24.6175  -44.2479 N.am      1 UNK        -0.4884 
      5 CA         15.4918  -25.4084  -45.3045 C.3       1 UNK         0.0853 
      6 C6         15.8309  -26.8440  -44.8265 C.3       10 UNK        -0.0849 
      7 S7         16.7869  -26.9199  -43.2692 S.3       10 UNK        -0.2776 
      8 C8         16.7244  -28.7115  -42.9220 C.3       10 UNK         0.0316 
      9 C9         18.0876  -29.3678  -43.0913 C.ar      10 UNK        -0.0863 
     10 C10        18.7014  -30.0072  -42.0114 C.ar      10 UNK        -0.1009 
     11 C11        19.9592  -30.6009  -42.1565 C.ar      10 UNK        -0.0712 
     12 C12        20.6246  -30.5148  -43.3843 C.ar      10 UNK        -0.0894 
     13 C13        20.0260  -29.8643  -44.4680 C.ar      10 UNK        -0.0745 
     14 C14        18.7409  -29.3332  -44.3252 C.ar      10 UNK        -0.0972 
     15 C15        20.7706  -29.7202  -45.7882 C.3       10 UNK         0.0209 
     16 S16        21.8690  -28.2613  -45.7997 S.3       10 UNK        -0.2568 
     17 C17        20.6757  -26.8736  -45.8566 C.3       10 UNK        -0.0983 
     18 CA         21.0576  -25.6066  -45.0394 C.3       3 UNK         0.0876 
     19 N          19.9513  -24.6590  -44.9894 N.am      3 UNK        -0.4424 
     20 C          19.7005  -23.7141  -45.8996 C.2       2 UNK         0.4918 
     21 O          20.4088  -23.5051  -46.8863 O.2       2 UNK        -0.4875 
     22 CA         18.4260  -22.8784  -45.6596 C.3       2 UNK         0.0481 
     23 CB         18.0602  -21.9818  -46.8614 C.3       2 UNK        -0.1831 
     24 N          17.2742  -23.6981  -45.2547 N.am      2 UNK        -0.4498 
     25 C          16.7144  -24.7103  -45.9406 C.2       1 UNK         0.5027 
     26 O          17.1156  -25.1023  -47.0375 O.2       1 UNK        -0.4969 
     27 C          21.5119  -25.8107  -43.5843 C.2       3 UNK         0.5005 
     28 O          22.2388  -24.9573  -43.0728 O.2       3 UNK        -0.5279 
     29 N          21.0865  -26.9111  -42.9426 N.am      4 UNK        -0.4463 
     30 CA         21.4882  -27.3556  -41.5976 C.3       4 UNK         0.0283 
     31 CB         21.0018  -26.3704  -40.5142 C.3       4 UNK        -0.1875 
     32 C          22.9936  -27.6818  -41.4770 C.2       4 UNK         0.4949 
     33 O          23.5365  -27.6444  -40.3714 O.2       4 UNK        -0.5039 
     34 N          23.6361  -27.9878  -42.6157 N.am      5 UNK        -0.4663 
     35 CA         25.0783  -28.1736  -42.7986 C.3       5 UNK         0.0242 
     36 CB         25.3477  -28.5486  -44.2659 C.3       5 UNK        -0.1982 
     37 C          25.6787  -29.2168  -41.8441 C.2       5 UNK         0.5017 
     38 O          25.4498  -30.4125  -42.0324 O.2       5 UNK        -0.5012 
     39 N          26.3878  -28.7338  -40.8115 N.am      6 UNK        -0.4439 
     40 CA         27.0518  -29.4952  -39.7416 C.3       6 UNK         0.0297 
     41 CB         28.2680  -30.2542  -40.3139 C.3       6 UNK        -0.2006 
     42 C          26.1192  -30.4298  -38.9384 C.2       6 UNK         0.4892 
     43 O          26.6108  -31.3563  -38.2919 O.2       6 UNK        -0.5089 
     44 N          24.7987  -30.1938  -39.0174 N.am      7 UNK        -0.4243 
     45 CA         23.7135  -31.0657  -38.5496 C.3       7 UNK         0.0196 
     46 CB         23.6651  -31.1037  -37.0077 C.3       7 UNK        -0.2007 
     47 C          23.7412  -32.4777  -39.1809 C.2       7 UNK         0.5020 
     48 O          23.2664  -33.4329  -38.5628 O.2       7 UNK        -0.5147 
     49 N          24.2859  -32.6020  -40.4018 N.am      8 UNK        -0.4734 
     50 CA         24.4644  -33.8634  -41.1284 C.3       8 UNK         0.0238 
     51 CB         25.6049  -33.6945  -42.1495 C.3       8 UNK        -0.1912 
     52 C          23.1558  -34.3514  -41.7786 C.2       8 UNK         0.5038 
     53 O          23.0713  -34.4564  -43.0039 O.2       8 UNK        -0.5046 
     54 N          22.1553  -34.6263  -40.9396 N.am      9 UNK        -0.4200 
     55 CA         20.8141  -35.0875  -41.3218 C.3       9 UNK         0.0839 
     56 C          20.1847  -36.0850  -40.3071 C.2       9 UNK         0.5513 
     57 N          20.9079  -36.5537  -39.2958 N.am      9 UNK        -0.7519 
     58 O          19.0262  -36.4668  -40.4527 O.2       9 UNK        -0.4960 
     59 C59        19.8781  -33.9070  -41.6994 C.3       10 UNK        -0.0876 
     60 S60        19.6566  -32.6944  -40.3496 S.3       10 UNK        -0.2414 
     61 C61        20.6209  -31.2787  -40.9658 C.3       10 UNK         0.0169 
     62 H62        12.4173  -22.8382  -43.2786 H         1 UNK         0.0903 
     63 H63        13.8034  -23.3336  -42.3056 H         1 UNK         0.0903 
     64 H64        13.8489  -21.8083  -43.1924 H         1 UNK         0.0903 
     65 H65        15.0170  -24.9416  -43.3052 H         1 UNK         0.3096 
     66 H66        14.7686  -25.5110  -46.1173 H         1 UNK         0.1121 
     67 H67        14.8962  -27.3853  -44.6711 H         1 UNK         0.0849 
     68 H68        16.3623  -27.3980  -45.6028 H         1 UNK         0.0849 
     69 H69        16.3563  -28.8492  -41.9042 H         1 UNK         0.0865 
     70 H70        16.0045  -29.2101  -43.5722 H         1 UNK         0.0865 
     71 H71        18.2025  -30.0478  -41.0525 H         1 UNK         0.1346 
     72 H72        21.6140  -30.9386  -43.4939 H         1 UNK         0.1412 
     73 H73        18.2573  -28.8570  -45.1663 H         1 UNK         0.1426 
     74 H74        20.0685  -29.6531  -46.6209 H         1 UNK         0.0716 
     75 H75        21.3712  -30.6130  -45.9687 H         1 UNK         0.0716 
     76 H76        19.6910  -27.2137  -45.5484 H         1 UNK         0.0695 
     77 H77        20.5574  -26.5952  -46.9050 H         1 UNK         0.0695 
     78 H78        21.9059  -25.1384  -45.5445 H         1 UNK         0.0983 
     79 H79        19.3372  -24.7398  -44.1910 H         1 UNK         0.3095 
     80 H80        18.6464  -22.2222  -44.8165 H         1 UNK         0.0454 
     81 H81        18.8679  -21.2853  -47.0898 H         1 UNK         0.0851 
     82 H82        17.1698  -21.3875  -46.6565 H         1 UNK         0.0851 
     83 H83        17.8724  -22.5670  -47.7621 H         1 UNK         0.0851 
     84 H84        16.8605  -23.4691  -44.3617 H         1 UNK         0.2976 
     85 H85        20.4983  -27.5591  -43.4522 H         1 UNK         0.3116 
     86 H86        20.9696  -28.2925  -41.4177 H         1 UNK         0.0646 
     87 H87        21.5349  -25.4205  -40.5576 H         1 UNK         0.0847 
     88 H88        19.9363  -26.1645  -40.6160 H         1 UNK         0.0847 
     89 H89        21.1562  -26.7809  -39.5157 H         1 UNK         0.0847 
     90 H90        23.0808  -28.0273  -43.4589 H         1 UNK         0.3040 
     91 H91        25.5569  -27.2108  -42.6080 H         1 UNK         0.1015 
     92 H92        26.4132  -28.7039  -44.4411 H         1 UNK         0.0786 
     93 H93        25.0201  -27.7608  -44.9446 H         1 UNK         0.0786 
     94 H94        24.8333  -29.4684  -44.5485 H         1 UNK         0.0786 
     95 H95        26.4503  -27.7286  -40.7196 H         1 UNK         0.3172 
     96 H96        27.4243  -28.7578  -39.0291 H         1 UNK         0.0595 
     97 H97        27.9618  -31.0529  -40.9907 H         1 UNK         0.0839 
     98 H98        28.8586  -30.7111  -39.5188 H         1 UNK         0.0839 
     99 H99        28.9321  -29.5863  -40.8623 H         1 UNK         0.0839 
    100 H100       24.5047  -29.3825  -39.5521 H         1 UNK         0.2998 
    101 H101       22.7893  -30.6011  -38.8933 H         1 UNK         0.0822 
    102 H102       22.7749  -31.6273  -36.6568 H         1 UNK         0.0787 
    103 H103       23.6346  -30.0988  -36.5869 H         1 UNK         0.0787 
    104 H104       24.5301  -31.6180  -36.5879 H         1 UNK         0.0787 
    105 H105       24.6436  -31.7711  -40.8670 H         1 UNK         0.3055 
    106 H106       24.7748  -34.6324  -40.4171 H         1 UNK         0.1106 
    107 H107       26.5276  -33.3743  -41.6653 H         1 UNK         0.0828 
    108 H108       25.8154  -34.6352  -42.6598 H         1 UNK         0.0828 
    109 H109       25.3565  -32.9577  -42.9144 H         1 UNK         0.0828 
    110 H110       22.2984  -34.4371  -39.9521 H         1 UNK         0.2931 
    111 H111       20.9300  -35.6929  -42.2228 H         1 UNK         0.0412 
    112 H112       20.4842  -37.2060  -38.6543 H         1 UNK         0.3472 
    113 H113       21.8720  -36.2887  -39.1742 H         1 UNK         0.3472 
    114 H114       20.2714  -33.4024  -42.5827 H         1 UNK         0.0970 
    115 H115       18.8947  -34.2747  -41.9972 H         1 UNK         0.0970 
    116 H116       21.6292  -31.6100  -41.2161 H         1 UNK         0.0612 
    117 H117       20.7226  -30.5505  -40.1607 H         1 UNK         0.0612 
@<TRIPOS>BOND
     1    1    2 1    
     2    1   62 1    
     3    1   63 1    
     4    1   64 1    
     5    2    3 2    
     6    2    4 am   BACKBONE|DICT|INTERRES
     7    4    5 1    
     8    4   65 1    
     9    5    6 1    
    10    5   25 1    
    11    5   66 1    
    12    6    7 1    
    13    6   67 1    
    14    6   68 1    
    15    7    8 1    
    16    8    9 1    
    17    8   69 1    
    18    8   70 1    
    19    9   10 ar   
    20    9   14 ar   
    21   10   11 ar   
    22   10   71 1    
    23   11   12 ar   
    24   11   61 1    
    25   12   13 ar   
    26   12   72 1    
    27   13   14 ar   
    28   13   15 1    
    29   14   73 1    
    30   15   16 1    
    31   15   74 1    
    32   15   75 1    
    33   16   17 1    
    34   17   18 1    
    35   17   76 1    
    36   17   77 1    
    37   18   19 1    
    38   18   27 1    
    39   18   78 1    
    40   19   20 am   BACKBONE|DICT|INTERRES
    41   19   79 1    
    42   20   21 2    
    43   20   22 1    
    44   22   23 1    
    45   22   24 1    
    46   22   80 1    
    47   23   81 1    
    48   23   82 1    
    49   23   83 1    
    50   24   25 am   BACKBONE|DICT|INTERRES
    51   24   84 1    
    52   25   26 2    
    53   27   28 2    
    54   27   29 am   BACKBONE|DICT|INTERRES
    55   29   30 1    
    56   29   85 1    
    57   30   31 1    
    58   30   32 1    
    59   30   86 1    
    60   31   87 1    
    61   31   88 1    
    62   31   89 1    
    63   32   33 2    
    64   32   34 am   BACKBONE|DICT|INTERRES
    65   34   35 1    
    66   34   90 1    
    67   35   36 1    
    68   35   37 1    
    69   35   91 1    
    70   36   92 1    
    71   36   93 1    
    72   36   94 1    
    73   37   38 2    
    74   37   39 am   BACKBONE|DICT|INTERRES
    75   39   40 1    
    76   39   95 1    
    77   40   41 1    
    78   40   42 1    
    79   40   96 1    
    80   41   97 1    
    81   41   98 1    
    82   41   99 1    
    83   42   43 2    
    84   42   44 am   BACKBONE|DICT|INTERRES
    85   44   45 1    
    86   44  100 1    
    87   45   46 1    
    88   45   47 1    
    89   45  101 1    
    90   46  102 1    
    91   46  103 1    
    92   46  104 1    
    93   47   48 2    
    94   47   49 am   BACKBONE|DICT|INTERRES
    95   49   50 1    
    96   49  105 1    
    97   50   51 1    
    98   50   52 1    
    99   50  106 1    
   100   51  107 1    
   101   51  108 1    
   102   51  109 1    
   103   52   53 2    
   104   52   54 am   BACKBONE|DICT|INTERRES
   105   54   55 1    
   106   54  110 1    
   107   55   56 1    
   108   55   59 1    
   109   55  111 1    
   110   56   57 am   BACKBONE|DICT|INTERRES
   111   56   58 2    
   112   57  112 1    
   113   57  113 1    
   114   59   60 1    
   115   59  114 1    
   116   59  115 1    
   117   60   61 1    
   118   61  116 1    
   119   61  117 1    
@<TRIPOS>SUBSTRUCTURE
     1 UNK         1 GROUP             0       ****    0 ROOT    
