@<TRIPOS>MOLECULE
3R8
117   119    1
SMALL
USER_CHARGES


@<TRIPOS>ATOM
      1 CA         19.6631  -22.2079  -40.6532 C.3       0 UNK        -0.2013 
      2 C          18.6458  -22.9621  -41.4964 C.2       0 UNK         0.4866 
      3 O          17.7195  -22.3518  -42.0318 O.2       0 UNK        -0.5176 
      4 N          18.8064  -24.2855  -41.6116 N.am      1 UNK        -0.4884 
      5 CA         17.9864  -25.1631  -42.4525 C.3       1 UNK         0.0853 
      6 C6         18.0613  -26.6324  -41.9652 C.3       10 UNK        -0.0849 
      7 S7         19.7537  -27.3243  -41.9001 S.3       10 UNK        -0.2776 
      8 C8         19.3959  -29.0434  -41.3858 C.3       10 UNK         0.0316 
      9 C9         18.9516  -29.9964  -42.5005 C.ar      10 UNK        -0.0863 
     10 C10        18.8439  -31.3596  -42.2090 C.ar      10 UNK        -0.1009 
     11 C11        18.4467  -32.2769  -43.1886 C.ar      10 UNK        -0.0712 
     12 C12        18.1590  -31.8227  -44.4795 C.ar      10 UNK        -0.0894 
     13 C13        18.2652  -30.4651  -44.7899 C.ar      10 UNK        -0.0745 
     14 C14        18.6457  -29.5624  -43.7956 C.ar      10 UNK        -0.0972 
     15 C15        17.9495  -29.9598  -46.1901 C.3       10 UNK         0.0209 
     16 S16        19.3823  -30.0332  -47.3182 S.3       10 UNK        -0.2568 
     17 C17        20.6664  -29.0133  -46.5077 C.3       10 UNK        -0.0983 
     18 CA         20.6025  -27.5101  -46.8843 C.3       3 UNK         0.0876 
     19 N          19.3647  -26.8791  -46.4116 N.am      3 UNK        -0.4424 
     20 C          18.7758  -25.8247  -46.9878 C.2       2 UNK         0.4918 
     21 O          19.1878  -25.2880  -48.0162 O.2       2 UNK        -0.4875 
     22 CA         17.5193  -25.2585  -46.2959 C.3       2 UNK         0.0481 
     23 CB         16.2521  -25.8381  -46.9449 C.3       2 UNK        -0.1831 
     24 N          17.4460  -25.4495  -44.8381 N.am      2 UNK        -0.4498 
     25 C          18.3486  -25.0087  -43.9478 C.2       1 UNK         0.5027 
     26 O          19.4312  -24.5146  -44.2718 O.2       1 UNK        -0.4969 
     27 C          21.8649  -26.7728  -46.3769 C.2       3 UNK         0.5005 
     28 O          22.9594  -27.0894  -46.8458 O.2       3 UNK        -0.5279 
     29 N          21.7100  -25.8284  -45.4314 N.am      4 UNK        -0.4463 
     30 CA         22.7627  -25.0619  -44.7504 C.3       4 UNK         0.0283 
     31 CB         23.4810  -24.1145  -45.7347 C.3       4 UNK        -0.1875 
     32 C          23.7365  -25.9448  -43.9430 C.2       4 UNK         0.4949 
     33 O          24.9232  -25.6262  -43.8474 O.2       4 UNK        -0.5039 
     34 N          23.2193  -27.0435  -43.3786 N.am      5 UNK        -0.4663 
     35 CA         23.9730  -27.9816  -42.5489 C.3       5 UNK         0.0242 
     36 CB         23.2794  -29.3525  -42.5974 C.3       5 UNK        -0.1982 
     37 C          24.0876  -27.4703  -41.1030 C.2       5 UNK         0.5017 
     38 O          23.1921  -26.7731  -40.6209 O.2       5 UNK        -0.5012 
     39 N          25.1816  -27.8472  -40.4295 N.am      6 UNK        -0.4439 
     40 CA         25.4689  -27.4814  -39.0371 C.3       6 UNK         0.0297 
     41 CB         26.9906  -27.5301  -38.8167 C.3       6 UNK        -0.2006 
     42 C          24.7499  -28.3699  -38.0025 C.2       6 UNK         0.4892 
     43 O          24.7530  -28.0313  -36.8182 O.2       6 UNK        -0.5089 
     44 N          24.1711  -29.4887  -38.4500 N.am      7 UNK        -0.4243 
     45 CA         23.4696  -30.4875  -37.6493 C.3       7 UNK         0.0196 
     46 CB         24.4917  -31.4123  -36.9547 C.3       7 UNK        -0.2007 
     47 C          22.5152  -31.2608  -38.5719 C.2       7 UNK         0.5020 
     48 O          22.3453  -30.8797  -39.7329 O.2       7 UNK        -0.5147 
     49 N          21.9102  -32.3365  -38.0508 N.am      8 UNK        -0.4734 
     50 CA         21.0634  -33.2604  -38.8121 C.3       8 UNK         0.0238 
     51 CB         20.4414  -34.2889  -37.8538 C.3       8 UNK        -0.1912 
     52 C          21.8485  -33.9690  -39.9318 C.2       8 UNK         0.5038 
     53 O          23.0034  -34.3478  -39.7212 O.2       8 UNK        -0.5046 
     54 N          21.2022  -34.1339  -41.0906 N.am      9 UNK        -0.4200 
     55 CA         21.7948  -34.6934  -42.3136 C.3       9 UNK         0.0839 
     56 C          22.0071  -36.2366  -42.3174 C.2       9 UNK         0.5513 
     57 N          21.5182  -36.9798  -41.3315 N.am      9 UNK        -0.7519 
     58 O          22.6409  -36.7657  -43.2268 O.2       9 UNK        -0.4960 
     59 C59        21.0568  -34.1732  -43.5765 C.3       10 UNK        -0.0876 
     60 S60        19.3737  -34.8468  -43.8330 S.3       10 UNK        -0.2414 
     61 C61        18.3024  -33.7528  -42.8409 C.3       10 UNK         0.0169 
     62 H62        20.1451  -21.4337  -41.2523 H         1 UNK         0.0903 
     63 H63        19.1681  -21.7283  -39.8069 H         1 UNK         0.0903 
     64 H64        20.4402  -22.8686  -40.2637 H         1 UNK         0.0903 
     65 H65        19.6037  -24.7347  -41.1825 H         1 UNK         0.3096 
     66 H66        16.9484  -24.8376  -42.3493 H         1 UNK         0.1121 
     67 H67        17.6441  -26.6907  -40.9585 H         1 UNK         0.0849 
     68 H68        17.4218  -27.2731  -42.5737 H         1 UNK         0.0849 
     69 H69        20.2968  -29.4463  -40.9215 H         1 UNK         0.0865 
     70 H70        18.6360  -29.0316  -40.6033 H         1 UNK         0.0865 
     71 H71        19.0642  -31.7028  -41.2083 H         1 UNK         0.1346 
     72 H72        17.8549  -32.5274  -45.2416 H         1 UNK         0.1412 
     73 H73        18.7157  -28.5189  -44.0523 H         1 UNK         0.1426 
     74 H74        17.5643  -28.9412  -46.1508 H         1 UNK         0.0716 
     75 H75        17.1451  -30.5596  -46.6184 H         1 UNK         0.0716 
     76 H76        21.6203  -29.4337  -46.8324 H         1 UNK         0.0695 
     77 H77        20.6537  -29.1534  -45.4283 H         1 UNK         0.0695 
     78 H78        20.6301  -27.4427  -47.9744 H         1 UNK         0.0983 
     79 H79        18.9599  -27.2496  -45.5680 H         1 UNK         0.3095 
     80 H80        17.5221  -24.1810  -46.4727 H         1 UNK         0.0454 
     81 H81        16.1569  -26.9092  -46.7642 H         1 UNK         0.0851 
     82 H82        16.2637  -25.6912  -48.0260 H         1 UNK         0.0851 
     83 H83        15.3527  -25.3517  -46.5670 H         1 UNK         0.0851 
     84 H84        16.5868  -25.8522  -44.4909 H         1 UNK         0.2976 
     85 H85        20.7682  -25.5926  -45.1296 H         1 UNK         0.3116 
     86 H86        22.2499  -24.4392  -44.0158 H         1 UNK         0.0646 
     87 H87        24.0745  -24.6634  -46.4663 H         1 UNK         0.0847 
     88 H88        24.1586  -23.4427  -45.2067 H         1 UNK         0.0847 
     89 H89        22.7690  -23.4929  -46.2773 H         1 UNK         0.0847 
     90 H90        22.2227  -27.1937  -43.4396 H         1 UNK         0.3040 
     91 H91        24.9775  -28.0886  -42.9652 H         1 UNK         0.1015 
     92 H92        23.2014  -29.7231  -43.6197 H         1 UNK         0.0786 
     93 H93        22.2734  -29.3100  -42.1814 H         1 UNK         0.0786 
     94 H94        23.8352  -30.0966  -42.0257 H         1 UNK         0.0786 
     95 H95        25.8676  -28.4258  -40.8943 H         1 UNK         0.3172 
     96 H96        25.1377  -26.4544  -38.8678 H         1 UNK         0.0595 
     97 H97        27.3889  -28.5354  -38.9604 H         1 UNK         0.0839 
     98 H98        27.2489  -27.2209  -37.8027 H         1 UNK         0.0839 
     99 H99        27.5134  -26.8593  -39.4987 H         1 UNK         0.0839 
    100 H100       24.1236  -29.6552  -39.4470 H         1 UNK         0.2998 
    101 H101       22.8635  -29.9788  -36.8969 H         1 UNK         0.0822 
    102 H102       25.2000  -30.8432  -36.3523 H         1 UNK         0.0787 
    103 H103       24.0030  -32.1173  -36.2818 H         1 UNK         0.0787 
    104 H104       25.0634  -31.9925  -37.6802 H         1 UNK         0.0787 
    105 H105       22.1215  -32.5973  -37.0988 H         1 UNK         0.3055 
    106 H106       20.2603  -32.6728  -39.2615 H         1 UNK         0.1106 
    107 H107       21.2035  -34.8963  -37.3637 H         1 UNK         0.0828 
    108 H108       19.8487  -33.8032  -37.0785 H         1 UNK         0.0828 
    109 H109       19.7764  -34.9694  -38.3872 H         1 UNK         0.0828 
    110 H110       20.2444  -33.8334  -41.1726 H         1 UNK         0.2931 
    111 H111       22.8037  -34.2797  -42.3725 H         1 UNK         0.0412 
    112 H112       21.0036  -36.5545  -40.5779 H         1 UNK         0.3472 
    113 H113       21.6675  -37.9766  -41.3431 H         1 UNK         0.3472 
    114 H114       21.0199  -33.0831  -43.5665 H         1 UNK         0.0970 
    115 H115       21.6415  -34.4227  -44.4636 H         1 UNK         0.0970 
    116 H116       18.4938  -33.9279  -41.7822 H         1 UNK         0.0612 
    117 H117       17.2656  -34.0476  -43.0076 H         1 UNK         0.0612 
@<TRIPOS>BOND
     1    1    2 1    
     2    1   62 1    
     3    1   63 1    
     4    1   64 1    
     5    2    3 2    
     6    2    4 am   BACKBONE|DICT|INTERRES
     7    4    5 1    
     8    4   65 1    
     9    5    6 1    
    10    5   25 1    
    11    5   66 1    
    12    6    7 1    
    13    6   67 1    
    14    6   68 1    
    15    7    8 1    
    16    8    9 1    
    17    8   69 1    
    18    8   70 1    
    19    9   10 ar   
    20    9   14 ar   
    21   10   11 ar   
    22   10   71 1    
    23   11   12 ar   
    24   11   61 1    
    25   12   13 ar   
    26   12   72 1    
    27   13   14 ar   
    28   13   15 1    
    29   14   73 1    
    30   15   16 1    
    31   15   74 1    
    32   15   75 1    
    33   16   17 1    
    34   17   18 1    
    35   17   76 1    
    36   17   77 1    
    37   18   19 1    
    38   18   27 1    
    39   18   78 1    
    40   19   20 am   BACKBONE|DICT|INTERRES
    41   19   79 1    
    42   20   21 2    
    43   20   22 1    
    44   22   23 1    
    45   22   24 1    
    46   22   80 1    
    47   23   81 1    
    48   23   82 1    
    49   23   83 1    
    50   24   25 am   BACKBONE|DICT|INTERRES
    51   24   84 1    
    52   25   26 2    
    53   27   28 2    
    54   27   29 am   BACKBONE|DICT|INTERRES
    55   29   30 1    
    56   29   85 1    
    57   30   31 1    
    58   30   32 1    
    59   30   86 1    
    60   31   87 1    
    61   31   88 1    
    62   31   89 1    
    63   32   33 2    
    64   32   34 am   BACKBONE|DICT|INTERRES
    65   34   35 1    
    66   34   90 1    
    67   35   36 1    
    68   35   37 1    
    69   35   91 1    
    70   36   92 1    
    71   36   93 1    
    72   36   94 1    
    73   37   38 2    
    74   37   39 am   BACKBONE|DICT|INTERRES
    75   39   40 1    
    76   39   95 1    
    77   40   41 1    
    78   40   42 1    
    79   40   96 1    
    80   41   97 1    
    81   41   98 1    
    82   41   99 1    
    83   42   43 2    
    84   42   44 am   BACKBONE|DICT|INTERRES
    85   44   45 1    
    86   44  100 1    
    87   45   46 1    
    88   45   47 1    
    89   45  101 1    
    90   46  102 1    
    91   46  103 1    
    92   46  104 1    
    93   47   48 2    
    94   47   49 am   BACKBONE|DICT|INTERRES
    95   49   50 1    
    96   49  105 1    
    97   50   51 1    
    98   50   52 1    
    99   50  106 1    
   100   51  107 1    
   101   51  108 1    
   102   51  109 1    
   103   52   53 2    
   104   52   54 am   BACKBONE|DICT|INTERRES
   105   54   55 1    
   106   54  110 1    
   107   55   56 1    
   108   55   59 1    
   109   55  111 1    
   110   56   57 am   BACKBONE|DICT|INTERRES
   111   56   58 2    
   112   57  112 1    
   113   57  113 1    
   114   59   60 1    
   115   59  114 1    
   116   59  115 1    
   117   60   61 1    
   118   61  116 1    
   119   61  117 1    
@<TRIPOS>SUBSTRUCTURE
     1 UNK         1 GROUP             0       ****    0 ROOT    
