@<TRIPOS>MOLECULE
3R8
117   119    1
SMALL
USER_CHARGES


@<TRIPOS>ATOM
      1 CA         13.6139  -24.5682  -45.1189 C.3       0 UNK        -0.2013 
      2 C          15.1172  -24.5478  -45.3524 C.2       0 UNK         0.4866 
      3 O          15.6704  -23.5016  -45.6938 O.2       0 UNK        -0.5176 
      4 N          15.7808  -25.6970  -45.1794 N.am      1 UNK        -0.4884 
      5 CA         17.2342  -25.8478  -45.3101 C.3       1 UNK         0.0853 
      6 C6         17.6668  -27.3331  -45.4177 C.3       10 UNK        -0.0849 
      7 S7         16.8404  -28.2661  -46.7496 S.3       10 UNK        -0.2776 
      8 C8         15.7440  -29.3801  -45.8078 C.3       10 UNK         0.0316 
      9 C9         16.5129  -30.3249  -44.8909 C.ar      10 UNK        -0.0863 
     10 C10        17.2308  -31.3980  -45.4291 C.ar      10 UNK        -0.1009 
     11 C11        17.9227  -32.2815  -44.5945 C.ar      10 UNK        -0.0712 
     12 C12        17.8713  -32.0936  -43.2106 C.ar      10 UNK        -0.0894 
     13 C13        17.1809  -31.0115  -42.6586 C.ar      10 UNK        -0.0745 
     14 C14        16.4958  -30.1344  -43.5038 C.ar      10 UNK        -0.0972 
     15 C15        17.1504  -30.8223  -41.1476 C.3       10 UNK         0.0209 
     16 S16        18.7753  -30.3454  -40.4695 S.3       10 UNK        -0.2568 
     17 C17        18.8215  -28.5377  -40.7219 C.3       10 UNK        -0.0983 
     18 CA         20.0570  -28.0456  -41.5185 C.3       3 UNK         0.0876 
     19 N          19.8594  -26.6649  -41.9823 N.am      3 UNK        -0.4424 
     20 C          20.7208  -25.9294  -42.6999 C.2       2 UNK         0.4918 
     21 O          21.8590  -26.2948  -42.9893 O.2       2 UNK        -0.4875 
     22 CA         20.1877  -24.5846  -43.2298 C.3       2 UNK         0.0481 
     23 CB         21.3098  -23.6736  -43.7605 C.3       2 UNK        -0.1831 
     24 N          19.2273  -24.8430  -44.3036 N.am      2 UNK        -0.4498 
     25 C          17.9602  -25.2263  -44.1020 C.2       1 UNK         0.5027 
     26 O          17.4171  -25.2173  -42.9926 O.2       1 UNK        -0.4969 
     27 C          21.3833  -28.2496  -40.7466 C.2       3 UNK         0.5005 
     28 O          22.0870  -29.2308  -40.9937 O.2       3 UNK        -0.5279 
     29 N          21.7447  -27.2824  -39.8938 N.am      4 UNK        -0.4463 
     30 CA         22.9790  -27.2885  -39.1052 C.3       4 UNK         0.0283 
     31 CB         22.8728  -26.2185  -38.0065 C.3       4 UNK        -0.1875 
     32 C          24.2752  -27.0889  -39.9168 C.2       4 UNK         0.4949 
     33 O          25.3441  -27.4063  -39.3939 O.2       4 UNK        -0.5039 
     34 N          24.1917  -26.5721  -41.1550 N.am      5 UNK        -0.4663 
     35 CA         25.3567  -26.2199  -41.9837 C.3       5 UNK         0.0242 
     36 CB         24.9042  -25.4127  -43.2106 C.3       5 UNK        -0.1982 
     37 C          26.2094  -27.4240  -42.4206 C.2       5 UNK         0.5017 
     38 O          27.4094  -27.2612  -42.6444 O.2       5 UNK        -0.5012 
     39 N          25.5849  -28.6039  -42.5006 N.am      6 UNK        -0.4439 
     40 CA         26.2391  -29.8971  -42.6954 C.3       6 UNK         0.0297 
     41 CB         25.9911  -30.4087  -44.1264 C.3       6 UNK        -0.2006 
     42 C          25.7580  -30.8693  -41.6079 C.2       6 UNK         0.4892 
     43 O          25.4246  -32.0171  -41.9076 O.2       6 UNK        -0.5089 
     44 N          25.7047  -30.3699  -40.3635 N.am      7 UNK        -0.4243 
     45 CA         25.3066  -31.0259  -39.1114 C.3       7 UNK         0.0196 
     46 CB         26.2219  -32.2217  -38.7820 C.3       7 UNK        -0.2007 
     47 C          23.8230  -31.4239  -39.0304 C.2       7 UNK         0.5020 
     48 O          23.1777  -31.1094  -38.0300 O.2       7 UNK        -0.5147 
     49 N          23.3131  -32.1137  -40.0556 N.am      8 UNK        -0.4734 
     50 CA         21.9400  -32.6140  -40.1231 C.3       8 UNK         0.0238 
     51 CB         21.8337  -33.9536  -39.3644 C.3       8 UNK        -0.1912 
     52 C          21.4181  -32.7029  -41.5676 C.2       8 UNK         0.5038 
     53 O          20.5857  -33.5670  -41.8423 O.2       8 UNK        -0.5046 
     54 N          21.9018  -31.8213  -42.4534 N.am      9 UNK        -0.4200 
     55 CA         21.4287  -31.6019  -43.8338 C.3       9 UNK         0.0839 
     56 C          22.0579  -30.3365  -44.4912 C.2       9 UNK         0.5513 
     57 N          22.5134  -29.3540  -43.7252 N.am      9 UNK        -0.7519 
     58 O          22.1418  -30.2269  -45.7110 O.2       9 UNK        -0.4960 
     59 C59        21.4838  -32.8722  -44.7401 C.3       10 UNK        -0.0876 
     60 S60        20.2141  -32.8841  -46.0582 S.3       10 UNK        -0.2414 
     61 C61        18.7106  -33.4435  -45.1884 C.3       10 UNK         0.0169 
     62 H62        13.3492  -23.8751  -44.3209 H         1 UNK         0.0903 
     63 H63        13.0894  -24.2627  -46.0239 H         1 UNK         0.0903 
     64 H64        13.2574  -25.5594  -44.8391 H         1 UNK         0.0903 
     65 H65        15.2813  -26.5200  -44.8787 H         1 UNK         0.3096 
     66 H66        17.5501  -25.3229  -46.2148 H         1 UNK         0.1121 
     67 H67        18.7401  -27.3994  -45.6081 H         1 UNK         0.0849 
     68 H68        17.5146  -27.8392  -44.4647 H         1 UNK         0.0849 
     69 H69        15.0274  -28.7865  -45.2388 H         1 UNK         0.0865 
     70 H70        15.1534  -29.9680  -46.5121 H         1 UNK         0.0865 
     71 H71        17.2575  -31.5421  -46.5008 H         1 UNK         0.1346 
     72 H72        18.3817  -32.7828  -42.5554 H         1 UNK         0.1412 
     73 H73        15.9444  -29.3058  -43.0804 H         1 UNK         0.1426 
     74 H74        16.8484  -31.7632  -40.6854 H         1 UNK         0.0716 
     75 H75        16.3978  -30.0887  -40.8545 H         1 UNK         0.0716 
     76 H76        18.7701  -28.0499  -39.7467 H         1 UNK         0.0695 
     77 H77        17.9108  -28.2462  -41.2477 H         1 UNK         0.0695 
     78 H78        20.1223  -28.6530  -42.4234 H         1 UNK         0.0983 
     79 H79        18.9348  -26.2757  -41.8411 H         1 UNK         0.3095 
     80 H80        19.6936  -24.0632  -42.4073 H         1 UNK         0.0454 
     81 H81        22.0335  -23.4529  -42.9751 H         1 UNK         0.0851 
     82 H82        20.9139  -22.7206  -44.1112 H         1 UNK         0.0851 
     83 H83        21.8551  -24.1340  -44.5855 H         1 UNK         0.0851 
     84 H84        19.6138  -24.9108  -45.2349 H         1 UNK         0.2976 
     85 H85        21.1295  -26.4901  -39.7773 H         1 UNK         0.3116 
     86 H86        23.0562  -28.2635  -38.6190 H         1 UNK         0.0646 
     87 H87        22.7763  -25.2163  -38.4262 H         1 UNK         0.0847 
     88 H88        22.0151  -26.3974  -37.3579 H         1 UNK         0.0847 
     89 H89        23.7600  -26.2206  -37.3714 H         1 UNK         0.0847 
     90 H90        23.2786  -26.3889  -41.5592 H         1 UNK         0.3040 
     91 H91        26.0012  -25.5776  -41.3792 H         1 UNK         0.1015 
     92 H92        24.3200  -24.5397  -42.9206 H         1 UNK         0.0786 
     93 H93        24.2995  -26.0141  -43.8900 H         1 UNK         0.0786 
     94 H94        25.7638  -25.0528  -43.7775 H         1 UNK         0.0786 
     95 H95        24.5972  -28.6285  -42.2858 H         1 UNK         0.3172 
     96 H96        27.3176  -29.7979  -42.5567 H         1 UNK         0.0595 
     97 H97        24.9383  -30.6193  -44.3062 H         1 UNK         0.0839 
     98 H98        26.5411  -31.3325  -44.3096 H         1 UNK         0.0839 
     99 H99        26.3200  -29.6828  -44.8700 H         1 UNK         0.0839 
    100 H100       25.9460  -29.3914  -40.2535 H         1 UNK         0.2998 
    101 H101       25.4647  -30.2751  -38.3349 H         1 UNK         0.0822 
    102 H102       25.9746  -32.6420  -37.8063 H         1 UNK         0.0787 
    103 H103       27.2692  -31.9215  -38.7493 H         1 UNK         0.0787 
    104 H104       26.1261  -33.0254  -39.5127 H         1 UNK         0.0787 
    105 H105       23.9284  -32.3192  -40.8412 H         1 UNK         0.3055 
    106 H106       21.2862  -31.8919  -39.6284 H         1 UNK         0.1106 
    107 H107       22.1528  -33.8520  -38.3272 H         1 UNK         0.0828 
    108 H108       20.8053  -34.3168  -39.3456 H         1 UNK         0.0828 
    109 H109       22.4467  -34.7256  -39.8305 H         1 UNK         0.0828 
    110 H110       22.5491  -31.1252  -42.1084 H         1 UNK         0.2931 
    111 H111       20.3834  -31.3255  -43.7144 H         1 UNK         0.0412 
    112 H112       22.3699  -29.3573  -42.7191 H         1 UNK         0.3472 
    113 H113       22.8714  -28.5273  -44.1770 H         1 UNK         0.3472 
    114 H114       21.3635  -33.7925  -44.1718 H         1 UNK         0.0970 
    115 H115       22.4680  -32.9616  -45.2032 H         1 UNK         0.0970 
    116 H116       18.9767  -34.1712  -44.4201 H         1 UNK         0.0612 
    117 H117       18.0746  -33.9712  -45.9003 H         1 UNK         0.0612 
@<TRIPOS>BOND
     1    1    2 1    
     2    1   62 1    
     3    1   63 1    
     4    1   64 1    
     5    2    3 2    
     6    2    4 am   BACKBONE|DICT|INTERRES
     7    4    5 1    
     8    4   65 1    
     9    5    6 1    
    10    5   25 1    
    11    5   66 1    
    12    6    7 1    
    13    6   67 1    
    14    6   68 1    
    15    7    8 1    
    16    8    9 1    
    17    8   69 1    
    18    8   70 1    
    19    9   10 ar   
    20    9   14 ar   
    21   10   11 ar   
    22   10   71 1    
    23   11   12 ar   
    24   11   61 1    
    25   12   13 ar   
    26   12   72 1    
    27   13   14 ar   
    28   13   15 1    
    29   14   73 1    
    30   15   16 1    
    31   15   74 1    
    32   15   75 1    
    33   16   17 1    
    34   17   18 1    
    35   17   76 1    
    36   17   77 1    
    37   18   19 1    
    38   18   27 1    
    39   18   78 1    
    40   19   20 am   BACKBONE|DICT|INTERRES
    41   19   79 1    
    42   20   21 2    
    43   20   22 1    
    44   22   23 1    
    45   22   24 1    
    46   22   80 1    
    47   23   81 1    
    48   23   82 1    
    49   23   83 1    
    50   24   25 am   BACKBONE|DICT|INTERRES
    51   24   84 1    
    52   25   26 2    
    53   27   28 2    
    54   27   29 am   BACKBONE|DICT|INTERRES
    55   29   30 1    
    56   29   85 1    
    57   30   31 1    
    58   30   32 1    
    59   30   86 1    
    60   31   87 1    
    61   31   88 1    
    62   31   89 1    
    63   32   33 2    
    64   32   34 am   BACKBONE|DICT|INTERRES
    65   34   35 1    
    66   34   90 1    
    67   35   36 1    
    68   35   37 1    
    69   35   91 1    
    70   36   92 1    
    71   36   93 1    
    72   36   94 1    
    73   37   38 2    
    74   37   39 am   BACKBONE|DICT|INTERRES
    75   39   40 1    
    76   39   95 1    
    77   40   41 1    
    78   40   42 1    
    79   40   96 1    
    80   41   97 1    
    81   41   98 1    
    82   41   99 1    
    83   42   43 2    
    84   42   44 am   BACKBONE|DICT|INTERRES
    85   44   45 1    
    86   44  100 1    
    87   45   46 1    
    88   45   47 1    
    89   45  101 1    
    90   46  102 1    
    91   46  103 1    
    92   46  104 1    
    93   47   48 2    
    94   47   49 am   BACKBONE|DICT|INTERRES
    95   49   50 1    
    96   49  105 1    
    97   50   51 1    
    98   50   52 1    
    99   50  106 1    
   100   51  107 1    
   101   51  108 1    
   102   51  109 1    
   103   52   53 2    
   104   52   54 am   BACKBONE|DICT|INTERRES
   105   54   55 1    
   106   54  110 1    
   107   55   56 1    
   108   55   59 1    
   109   55  111 1    
   110   56   57 am   BACKBONE|DICT|INTERRES
   111   56   58 2    
   112   57  112 1    
   113   57  113 1    
   114   59   60 1    
   115   59  114 1    
   116   59  115 1    
   117   60   61 1    
   118   61  116 1    
   119   61  117 1    
@<TRIPOS>SUBSTRUCTURE
     1 UNK         1 GROUP             0       ****    0 ROOT    
