@<TRIPOS>MOLECULE
3R8
117   119    1
SMALL
USER_CHARGES


@<TRIPOS>ATOM
      1 CA         19.4827  -28.2577  -41.6166 C.3       0 UNK        -0.2013 
      2 C          19.0076  -26.9387  -42.2038 C.2       0 UNK         0.4866 
      3 O          19.4976  -25.8787  -41.8179 O.2       0 UNK        -0.5176 
      4 N          18.0271  -27.0088  -43.1113 N.am      1 UNK        -0.4884 
      5 CA         17.3155  -25.8783  -43.7089 C.3       1 UNK         0.0853 
      6 C6         15.9191  -26.3067  -44.2444 C.3       10 UNK        -0.0849 
      7 S7         15.8760  -27.5632  -45.5803 S.3       10 UNK        -0.2776 
      8 C8         16.0665  -29.1548  -44.6995 C.3       10 UNK         0.0316 
      9 C9         17.4976  -29.7013  -44.6287 C.ar      10 UNK        -0.0863 
     10 C10        17.7904  -30.6852  -43.6790 C.ar      10 UNK        -0.1009 
     11 C11        19.0563  -31.2766  -43.6225 C.ar      10 UNK        -0.0712 
     12 C12        20.0515  -30.8599  -44.5109 C.ar      10 UNK        -0.0894 
     13 C13        19.7835  -29.8722  -45.4649 C.ar      10 UNK        -0.0745 
     14 C14        18.5046  -29.3077  -45.5226 C.ar      10 UNK        -0.0972 
     15 C15        20.8250  -29.4781  -46.5097 C.3       10 UNK         0.0209 
     16 S16        22.5117  -29.2116  -45.8626 S.3       10 UNK        -0.2568 
     17 C17        22.3433  -27.8069  -44.7119 C.3       10 UNK        -0.0983 
     18 CA         22.2780  -26.4338  -45.4297 C.3       3 UNK         0.0876 
     19 N          20.9291  -26.1861  -45.9369 N.am      3 UNK        -0.4424 
     20 C          20.5783  -25.2435  -46.8198 C.2       2 UNK         0.4918 
     21 O          21.3792  -24.5168  -47.4072 O.2       2 UNK        -0.4875 
     22 CA         19.0673  -25.0705  -47.0673 C.3       2 UNK         0.0481 
     23 CB         18.6582  -25.7603  -48.3782 C.3       2 UNK        -0.1831 
     24 N          18.2289  -25.5820  -45.9751 N.am      2 UNK        -0.4498 
     25 C          18.2043  -25.1195  -44.7178 C.2       1 UNK         0.5027 
     26 O          18.8871  -24.1680  -44.3375 O.2       1 UNK        -0.4969 
     27 C          22.7707  -25.2971  -44.5028 C.2       3 UNK         0.5005 
     28 O          23.9836  -25.1411  -44.3558 O.2       3 UNK        -0.5279 
     29 N          21.8430  -24.5335  -43.8957 N.am      4 UNK        -0.4463 
     30 CA         22.0620  -23.4201  -42.9578 C.3       4 UNK         0.0283 
     31 CB         22.7883  -22.2490  -43.6520 C.3       4 UNK        -0.1875 
     32 C          22.7374  -23.8253  -41.6296 C.2       4 UNK         0.4949 
     33 O          23.2046  -22.9572  -40.8909 O.2       4 UNK        -0.5039 
     34 N          22.7585  -25.1283  -41.3423 N.am      5 UNK        -0.4663 
     35 CA         23.3378  -25.7932  -40.1830 C.3       5 UNK         0.0242 
     36 CB         24.8752  -25.6835  -40.2004 C.3       5 UNK        -0.1982 
     37 C          22.9053  -27.2606  -40.2606 C.2       5 UNK         0.5017 
     38 O          22.5997  -27.7444  -41.3545 O.2       5 UNK        -0.5012 
     39 N          22.8936  -27.9491  -39.1137 N.am      6 UNK        -0.4439 
     40 CA         22.5453  -29.3660  -39.0050 C.3       6 UNK         0.0297 
     41 CB         22.2503  -29.7084  -37.5338 C.3       6 UNK        -0.2006 
     42 C          23.6528  -30.2571  -39.5927 C.2       6 UNK         0.4892 
     43 O          24.5520  -30.6842  -38.8646 O.2       6 UNK        -0.5089 
     44 N          23.5710  -30.5173  -40.9030 N.am      7 UNK        -0.4243 
     45 CA         24.4430  -31.4178  -41.6606 C.3       7 UNK         0.0196 
     46 CB         24.3104  -31.0860  -43.1575 C.3       7 UNK        -0.2007 
     47 C          24.1077  -32.8881  -41.3475 C.2       7 UNK         0.5020 
     48 O          23.5780  -33.6029  -42.2008 O.2       7 UNK        -0.5147 
     49 N          24.3684  -33.2839  -40.0943 N.am      8 UNK        -0.4734 
     50 CA         23.9591  -34.5156  -39.4102 C.3       8 UNK         0.0238 
     51 CB         24.4982  -35.7842  -40.1036 C.3       8 UNK        -0.1912 
     52 C          22.4386  -34.5671  -39.1878 C.2       8 UNK         0.5038 
     53 O          21.9991  -34.5253  -38.0384 O.2       8 UNK        -0.5046 
     54 N          21.6765  -34.6261  -40.2875 N.am      9 UNK        -0.4200 
     55 CA         20.2051  -34.6181  -40.3430 C.3       9 UNK         0.0839 
     56 C          19.5090  -35.7976  -39.5948 C.2       9 UNK         0.5513 
     57 N          20.1742  -36.9292  -39.3950 N.am      9 UNK        -0.7519 
     58 O          18.3428  -35.7057  -39.2193 O.2       9 UNK        -0.4960 
     59 C59        19.6038  -33.2238  -39.9917 C.3       10 UNK        -0.0876 
     60 S60        20.1313  -31.8860  -41.1220 S.3       10 UNK        -0.2414 
     61 C61        19.3166  -32.4238  -42.6579 C.3       10 UNK         0.0169 
     62 H62        20.2435  -28.7133  -42.2480 H         1 UNK         0.0903 
     63 H63        19.9084  -28.1005  -40.6265 H         1 UNK         0.0903 
     64 H64        18.6593  -28.9632  -41.5114 H         1 UNK         0.0903 
     65 H65        17.7197  -27.9205  -43.4232 H         1 UNK         0.3096 
     66 H66        17.1258  -25.1658  -42.9021 H         1 UNK         0.1121 
     67 H67        15.3119  -26.6718  -43.4145 H         1 UNK         0.0849 
     68 H68        15.3885  -25.4253  -44.6098 H         1 UNK         0.0849 
     69 H69        15.6436  -29.0669  -43.6973 H         1 UNK         0.0865 
     70 H70        15.4564  -29.8959  -45.2178 H         1 UNK         0.0865 
     71 H71        17.0171  -31.0223  -43.0016 H         1 UNK         0.1346 
     72 H72        21.0241  -31.3312  -44.4823 H         1 UNK         0.1412 
     73 H73        18.2899  -28.5875  -46.2981 H         1 UNK         0.1426 
     74 H74        20.5130  -28.5912  -47.0609 H         1 UNK         0.0716 
     75 H75        20.8743  -30.2794  -47.2479 H         1 UNK         0.0716 
     76 H76        23.2150  -27.8597  -44.0560 H         1 UNK         0.0695 
     77 H77        21.4806  -27.9597  -44.0635 H         1 UNK         0.0695 
     78 H78        22.9618  -26.4489  -46.2815 H         1 UNK         0.0983 
     79 H79        20.1931  -26.7351  -45.5207 H         1 UNK         0.3095 
     80 H80        18.8711  -24.0009  -47.1648 H         1 UNK         0.0454 
     81 H81        19.2406  -25.3790  -49.2182 H         1 UNK         0.0851 
     82 H82        17.6077  -25.5832  -48.6094 H         1 UNK         0.0851 
     83 H83        18.8159  -26.8386  -48.3359 H         1 UNK         0.0851 
     84 H84        17.5963  -26.3416  -46.1975 H         1 UNK         0.2976 
     85 H85        20.8638  -24.7253  -44.0816 H         1 UNK         0.3116 
     86 H86        21.0650  -23.0708  -42.6851 H         1 UNK         0.0646 
     87 H87        23.8223  -22.4983  -43.8915 H         1 UNK         0.0847 
     88 H88        22.8089  -21.3661  -43.0121 H         1 UNK         0.0847 
     89 H89        22.2876  -21.9644  -44.5774 H         1 UNK         0.0847 
     90 H90        22.3124  -25.7727  -41.9853 H         1 UNK         0.3040 
     91 H91        22.9330  -25.3414  -39.2752 H         1 UNK         0.1015 
     92 H92        25.2946  -26.0968  -41.1189 H         1 UNK         0.0786 
     93 H93        25.3183  -26.2267  -39.3649 H         1 UNK         0.0786 
     94 H94        25.2060  -24.6481  -40.1195 H         1 UNK         0.0786 
     95 H95        23.1944  -27.4913  -38.2650 H         1 UNK         0.3172 
     96 H96        21.6295  -29.5462  -39.5721 H         1 UNK         0.0595 
     97 H97        23.1081  -29.5131  -36.8890 H         1 UNK         0.0839 
     98 H98        21.9955  -30.7639  -37.4257 H         1 UNK         0.0839 
     99 H99        21.4062  -29.1326  -37.1539 H         1 UNK         0.0839 
    100 H100       22.8247  -30.0724  -41.4217 H         1 UNK         0.2998 
    101 H101       25.4791  -31.2398  -41.3649 H         1 UNK         0.0822 
    102 H102       24.5959  -30.0539  -43.3623 H         1 UNK         0.0787 
    103 H103       24.9552  -31.7271  -43.7597 H         1 UNK         0.0787 
    104 H104       23.2884  -31.2250  -43.5118 H         1 UNK         0.0787 
    105 H105       24.7291  -32.5593  -39.4783 H         1 UNK         0.3055 
    106 H106       24.4166  -34.4712  -38.4201 H         1 UNK         0.1106 
    107 H107       24.2504  -36.6749  -39.5250 H         1 UNK         0.0828 
    108 H108       24.0855  -35.9250  -41.1026 H         1 UNK         0.0828 
    109 H109       25.5838  -35.7510  -40.1949 H         1 UNK         0.0828 
    110 H110       22.1562  -34.5761  -41.1804 H         1 UNK         0.2931 
    111 H111       19.9680  -34.8159  -41.3877 H         1 UNK         0.0412 
    112 H112       21.1264  -37.0246  -39.7099 H         1 UNK         0.3472 
    113 H113       19.7189  -37.6935  -38.9209 H         1 UNK         0.3472 
    114 H114       18.5129  -33.2528  -40.0107 H         1 UNK         0.0970 
    115 H115       19.8730  -32.9424  -38.9725 H         1 UNK         0.0970 
    116 H116       18.3748  -32.9201  -42.4189 H         1 UNK         0.0612 
    117 H117       19.9410  -33.1748  -43.1440 H         1 UNK         0.0612 
@<TRIPOS>BOND
     1    1    2 1    
     2    1   62 1    
     3    1   63 1    
     4    1   64 1    
     5    2    3 2    
     6    2    4 am   BACKBONE|DICT|INTERRES
     7    4    5 1    
     8    4   65 1    
     9    5    6 1    
    10    5   25 1    
    11    5   66 1    
    12    6    7 1    
    13    6   67 1    
    14    6   68 1    
    15    7    8 1    
    16    8    9 1    
    17    8   69 1    
    18    8   70 1    
    19    9   10 ar   
    20    9   14 ar   
    21   10   11 ar   
    22   10   71 1    
    23   11   12 ar   
    24   11   61 1    
    25   12   13 ar   
    26   12   72 1    
    27   13   14 ar   
    28   13   15 1    
    29   14   73 1    
    30   15   16 1    
    31   15   74 1    
    32   15   75 1    
    33   16   17 1    
    34   17   18 1    
    35   17   76 1    
    36   17   77 1    
    37   18   19 1    
    38   18   27 1    
    39   18   78 1    
    40   19   20 am   BACKBONE|DICT|INTERRES
    41   19   79 1    
    42   20   21 2    
    43   20   22 1    
    44   22   23 1    
    45   22   24 1    
    46   22   80 1    
    47   23   81 1    
    48   23   82 1    
    49   23   83 1    
    50   24   25 am   BACKBONE|DICT|INTERRES
    51   24   84 1    
    52   25   26 2    
    53   27   28 2    
    54   27   29 am   BACKBONE|DICT|INTERRES
    55   29   30 1    
    56   29   85 1    
    57   30   31 1    
    58   30   32 1    
    59   30   86 1    
    60   31   87 1    
    61   31   88 1    
    62   31   89 1    
    63   32   33 2    
    64   32   34 am   BACKBONE|DICT|INTERRES
    65   34   35 1    
    66   34   90 1    
    67   35   36 1    
    68   35   37 1    
    69   35   91 1    
    70   36   92 1    
    71   36   93 1    
    72   36   94 1    
    73   37   38 2    
    74   37   39 am   BACKBONE|DICT|INTERRES
    75   39   40 1    
    76   39   95 1    
    77   40   41 1    
    78   40   42 1    
    79   40   96 1    
    80   41   97 1    
    81   41   98 1    
    82   41   99 1    
    83   42   43 2    
    84   42   44 am   BACKBONE|DICT|INTERRES
    85   44   45 1    
    86   44  100 1    
    87   45   46 1    
    88   45   47 1    
    89   45  101 1    
    90   46  102 1    
    91   46  103 1    
    92   46  104 1    
    93   47   48 2    
    94   47   49 am   BACKBONE|DICT|INTERRES
    95   49   50 1    
    96   49  105 1    
    97   50   51 1    
    98   50   52 1    
    99   50  106 1    
   100   51  107 1    
   101   51  108 1    
   102   51  109 1    
   103   52   53 2    
   104   52   54 am   BACKBONE|DICT|INTERRES
   105   54   55 1    
   106   54  110 1    
   107   55   56 1    
   108   55   59 1    
   109   55  111 1    
   110   56   57 am   BACKBONE|DICT|INTERRES
   111   56   58 2    
   112   57  112 1    
   113   57  113 1    
   114   59   60 1    
   115   59  114 1    
   116   59  115 1    
   117   60   61 1    
   118   61  116 1    
   119   61  117 1    
@<TRIPOS>SUBSTRUCTURE
     1 UNK         1 GROUP             0       ****    0 ROOT    
