@<TRIPOS>MOLECULE
3R8
117   119    1
SMALL
USER_CHARGES


@<TRIPOS>ATOM
      1 CA         20.5157  -23.5749  -40.3205 C.3       0 UNK        -0.2013 
      2 C          19.2157  -23.9118  -41.0370 C.2       0 UNK         0.4866 
      3 O          18.1353  -23.5904  -40.5353 O.2       0 UNK        -0.5176 
      4 N          19.3184  -24.5649  -42.1995 N.am      1 UNK        -0.4884 
      5 CA         18.2082  -24.9749  -43.0585 C.3       1 UNK         0.0853 
      6 C6         18.0270  -26.5166  -42.9681 C.3       10 UNK        -0.0849 
      7 S7         16.4431  -27.1334  -43.6250 S.3       10 UNK        -0.2776 
      8 C8         16.6146  -28.9241  -43.3039 C.3       10 UNK         0.0316 
      9 C9         17.7032  -29.6385  -44.1098 C.ar      10 UNK        -0.0863 
     10 C10        18.2867  -30.7913  -43.5745 C.ar      10 UNK        -0.1009 
     11 C11        19.2368  -31.5177  -44.2980 C.ar      10 UNK        -0.0712 
     12 C12        19.6212  -31.0762  -45.5655 C.ar      10 UNK        -0.0894 
     13 C13        19.0693  -29.9122  -46.1079 C.ar      10 UNK        -0.0745 
     14 C14        18.0986  -29.2102  -45.3842 C.ar      10 UNK        -0.0972 
     15 C15        19.5142  -29.4114  -47.4777 C.3       10 UNK         0.0209 
     16 S16        21.3216  -29.1736  -47.6357 S.3       10 UNK        -0.2568 
     17 C17        21.8003  -28.3322  -46.0864 C.3       10 UNK        -0.0983 
     18 CA         21.6700  -26.7914  -46.1443 C.3       3 UNK         0.0876 
     19 N          20.2825  -26.3716  -46.3019 N.am      3 UNK        -0.4424 
     20 C          19.8212  -25.4568  -47.1619 C.2       2 UNK         0.4918 
     21 O          20.4771  -24.9855  -48.0909 O.2       2 UNK        -0.4875 
     22 CA         18.3837  -24.9530  -46.9107 C.3       2 UNK         0.0481 
     23 CB         17.3814  -25.6701  -47.8287 C.3       2 UNK        -0.1831 
     24 N          17.9728  -25.1175  -45.5102 N.am      2 UNK        -0.4498 
     25 C          18.5066  -24.4457  -44.4804 C.2       1 UNK         0.5027 
     26 O          19.2437  -23.4665  -44.6322 O.2       1 UNK        -0.4969 
     27 C          22.1664  -26.1916  -44.8158 C.2       3 UNK         0.5005 
     28 O          21.3746  -26.0327  -43.8803 O.2       3 UNK        -0.5279 
     29 N          23.4743  -25.9194  -44.7266 N.am      4 UNK        -0.4463 
     30 CA         24.1217  -25.4014  -43.5154 C.3       4 UNK         0.0283 
     31 CB         25.5362  -24.9117  -43.8661 C.3       4 UNK        -0.1875 
     32 C          24.1780  -26.4165  -42.3570 C.2       4 UNK         0.4949 
     33 O          24.2828  -26.0003  -41.2035 O.2       4 UNK        -0.5039 
     34 N          24.1254  -27.7174  -42.6811 N.am      5 UNK        -0.4663 
     35 CA         24.1703  -28.8229  -41.7219 C.3       5 UNK         0.0242 
     36 CB         24.3688  -30.1492  -42.4743 C.3       5 UNK        -0.1982 
     37 C          22.9315  -28.8880  -40.8147 C.2       5 UNK         0.5017 
     38 O          23.0867  -29.0166  -39.6003 O.2       5 UNK        -0.5012 
     39 N          21.7360  -28.7924  -41.4163 N.am      6 UNK        -0.4439 
     40 CA         20.4160  -28.8496  -40.7757 C.3       6 UNK         0.0297 
     41 CB         20.1628  -27.5642  -39.9583 C.3       6 UNK        -0.2006 
     42 C          20.2126  -30.1446  -39.9615 C.2       6 UNK         0.4892 
     43 O          19.8529  -31.1704  -40.5359 O.2       6 UNK        -0.5089 
     44 N          20.4535  -30.0850  -38.6453 N.am      7 UNK        -0.4243 
     45 CA         20.4160  -31.2365  -37.7410 C.3       7 UNK         0.0196 
     46 CB         20.2514  -30.7324  -36.2980 C.3       7 UNK        -0.2007 
     47 C          21.6595  -32.1392  -37.8536 C.2       7 UNK         0.5020 
     48 O          21.5881  -33.3057  -37.4667 O.2       7 UNK        -0.5147 
     49 N          22.7768  -31.6042  -38.3679 N.am      8 UNK        -0.4734 
     50 CA         24.0684  -32.2945  -38.4665 C.3       8 UNK         0.0238 
     51 CB         25.2008  -31.2523  -38.4923 C.3       8 UNK        -0.1912 
     52 C          24.1842  -33.2672  -39.6563 C.2       8 UNK         0.5038 
     53 O          25.2584  -33.8410  -39.8432 O.2       8 UNK        -0.5046 
     54 N          23.1085  -33.4451  -40.4372 N.am      9 UNK        -0.4200 
     55 CA         23.0296  -34.4111  -41.5476 C.3       9 UNK         0.0839 
     56 C          23.1845  -35.9031  -41.1252 C.2       9 UNK         0.5513 
     57 N          22.9320  -36.2683  -39.8733 N.am      9 UNK        -0.7519 
     58 O          23.5351  -36.7410  -41.9521 O.2       9 UNK        -0.4960 
     59 C59        21.7300  -34.2454  -42.3747 C.3       10 UNK        -0.0876 
     60 S60        21.5031  -32.5862  -43.0920 S.3       10 UNK        -0.2414 
     61 C61        19.8133  -32.8038  -43.7293 C.3       10 UNK         0.0169 
     62 H62        20.5048  -23.9901  -39.3120 H         1 UNK         0.0903 
     63 H63        21.3855  -23.9785  -40.8431 H         1 UNK         0.0903 
     64 H64        20.6353  -22.4926  -40.2443 H         1 UNK         0.0903 
     65 H65        20.2325  -24.7751  -42.5945 H         1 UNK         0.3096 
     66 H66        17.2851  -24.4883  -42.7353 H         1 UNK         0.1121 
     67 H67        18.0582  -26.8173  -41.9199 H         1 UNK         0.0849 
     68 H68        18.8576  -27.0388  -43.4463 H         1 UNK         0.0849 
     69 H69        15.6602  -29.4041  -43.5241 H         1 UNK         0.0865 
     70 H70        16.7873  -29.0651  -42.2354 H         1 UNK         0.0865 
     71 H71        17.9864  -31.1404  -42.5956 H         1 UNK         0.1346 
     72 H72        20.3603  -31.6327  -46.1257 H         1 UNK         0.1412 
     73 H73        17.6450  -28.3335  -45.8215 H         1 UNK         0.1426 
     74 H74        19.0223  -28.4707  -47.7237 H         1 UNK         0.0716 
     75 H75        19.1901  -30.1265  -48.2348 H         1 UNK         0.0716 
     76 H76        21.2406  -28.7414  -45.2444 H         1 UNK         0.0695 
     77 H77        22.8398  -28.6092  -45.9013 H         1 UNK         0.0695 
     78 H78        22.2813  -26.4032  -46.9619 H         1 UNK         0.0983 
     79 H79        19.6842  -26.6343  -45.5344 H         1 UNK         0.3095 
     80 H80        18.3609  -23.8880  -47.1508 H         1 UNK         0.0454 
     81 H81        17.3229  -26.7375  -47.6183 H         1 UNK         0.0851 
     82 H82        17.6650  -25.5599  -48.8763 H         1 UNK         0.0851 
     83 H83        16.3798  -25.2534  -47.7216 H         1 UNK         0.0851 
     84 H84        17.3347  -25.8749  -45.2972 H         1 UNK         0.2976 
     85 H85        24.0692  -26.0783  -45.5281 H         1 UNK         0.3116 
     86 H86        23.5433  -24.5433  -43.1655 H         1 UNK         0.0646 
     87 H87        26.1651  -25.7216  -44.2380 H         1 UNK         0.0847 
     88 H88        26.0320  -24.4923  -42.9894 H         1 UNK         0.0847 
     89 H89        25.5101  -24.1290  -44.6243 H         1 UNK         0.0847 
     90 H90        24.0616  -27.9602  -43.6580 H         1 UNK         0.3040 
     91 H91        25.0366  -28.6671  -41.0746 H         1 UNK         0.1015 
     92 H92        25.3221  -30.1655  -43.0029 H         1 UNK         0.0786 
     93 H93        23.5785  -30.3242  -43.2050 H         1 UNK         0.0786 
     94 H94        24.3674  -30.9967  -41.7879 H         1 UNK         0.0786 
     95 H95        21.7272  -28.6976  -42.4214 H         1 UNK         0.3172 
     96 H96        19.6841  -28.8752  -41.5844 H         1 UNK         0.0595 
     97 H97        20.8878  -27.4244  -39.1561 H         1 UNK         0.0839 
     98 H98        19.1675  -27.5691  -39.5120 H         1 UNK         0.0839 
     99 H99        20.2259  -26.6876  -40.6000 H         1 UNK         0.0839 
    100 H100       20.7854  -29.2117  -38.2614 H         1 UNK         0.2998 
    101 H101       19.5450  -31.8469  -37.9905 H         1 UNK         0.0822 
    102 H102       19.3391  -30.1464  -36.1838 H         1 UNK         0.0787 
    103 H103       20.1884  -31.5667  -35.5978 H         1 UNK         0.0787 
    104 H104       21.0924  -30.1102  -35.9889 H         1 UNK         0.0787 
    105 H105       22.7567  -30.6406  -38.6961 H         1 UNK         0.3055 
    106 H106       24.1983  -32.8973  -37.5647 H         1 UNK         0.1106 
    107 H107       26.1771  -31.7329  -38.4162 H         1 UNK         0.0828 
    108 H108       25.1208  -30.5546  -37.6585 H         1 UNK         0.0828 
    109 H109       25.1988  -30.6739  -39.4155 H         1 UNK         0.0828 
    110 H110       22.2678  -32.9251  -40.2324 H         1 UNK         0.2931 
    111 H111       23.8693  -34.1917  -42.2102 H         1 UNK         0.0412 
    112 H112       23.0359  -37.2359  -39.6099 H         1 UNK         0.3472 
    113 H113       22.6348  -35.5881  -39.1908 H         1 UNK         0.3472 
    114 H114       21.7108  -34.9612  -43.1994 H         1 UNK         0.0970 
    115 H115       20.8634  -34.4757  -41.7514 H         1 UNK         0.0970 
    116 H116       19.8172  -33.5746  -44.5016 H         1 UNK         0.0612 
    117 H117       19.1741  -33.1749  -42.9264 H         1 UNK         0.0612 
@<TRIPOS>BOND
     1    1    2 1    
     2    1   62 1    
     3    1   63 1    
     4    1   64 1    
     5    2    3 2    
     6    2    4 am   BACKBONE|DICT|INTERRES
     7    4    5 1    
     8    4   65 1    
     9    5    6 1    
    10    5   25 1    
    11    5   66 1    
    12    6    7 1    
    13    6   67 1    
    14    6   68 1    
    15    7    8 1    
    16    8    9 1    
    17    8   69 1    
    18    8   70 1    
    19    9   10 ar   
    20    9   14 ar   
    21   10   11 ar   
    22   10   71 1    
    23   11   12 ar   
    24   11   61 1    
    25   12   13 ar   
    26   12   72 1    
    27   13   14 ar   
    28   13   15 1    
    29   14   73 1    
    30   15   16 1    
    31   15   74 1    
    32   15   75 1    
    33   16   17 1    
    34   17   18 1    
    35   17   76 1    
    36   17   77 1    
    37   18   19 1    
    38   18   27 1    
    39   18   78 1    
    40   19   20 am   BACKBONE|DICT|INTERRES
    41   19   79 1    
    42   20   21 2    
    43   20   22 1    
    44   22   23 1    
    45   22   24 1    
    46   22   80 1    
    47   23   81 1    
    48   23   82 1    
    49   23   83 1    
    50   24   25 am   BACKBONE|DICT|INTERRES
    51   24   84 1    
    52   25   26 2    
    53   27   28 2    
    54   27   29 am   BACKBONE|DICT|INTERRES
    55   29   30 1    
    56   29   85 1    
    57   30   31 1    
    58   30   32 1    
    59   30   86 1    
    60   31   87 1    
    61   31   88 1    
    62   31   89 1    
    63   32   33 2    
    64   32   34 am   BACKBONE|DICT|INTERRES
    65   34   35 1    
    66   34   90 1    
    67   35   36 1    
    68   35   37 1    
    69   35   91 1    
    70   36   92 1    
    71   36   93 1    
    72   36   94 1    
    73   37   38 2    
    74   37   39 am   BACKBONE|DICT|INTERRES
    75   39   40 1    
    76   39   95 1    
    77   40   41 1    
    78   40   42 1    
    79   40   96 1    
    80   41   97 1    
    81   41   98 1    
    82   41   99 1    
    83   42   43 2    
    84   42   44 am   BACKBONE|DICT|INTERRES
    85   44   45 1    
    86   44  100 1    
    87   45   46 1    
    88   45   47 1    
    89   45  101 1    
    90   46  102 1    
    91   46  103 1    
    92   46  104 1    
    93   47   48 2    
    94   47   49 am   BACKBONE|DICT|INTERRES
    95   49   50 1    
    96   49  105 1    
    97   50   51 1    
    98   50   52 1    
    99   50  106 1    
   100   51  107 1    
   101   51  108 1    
   102   51  109 1    
   103   52   53 2    
   104   52   54 am   BACKBONE|DICT|INTERRES
   105   54   55 1    
   106   54  110 1    
   107   55   56 1    
   108   55   59 1    
   109   55  111 1    
   110   56   57 am   BACKBONE|DICT|INTERRES
   111   56   58 2    
   112   57  112 1    
   113   57  113 1    
   114   59   60 1    
   115   59  114 1    
   116   59  115 1    
   117   60   61 1    
   118   61  116 1    
   119   61  117 1    
@<TRIPOS>SUBSTRUCTURE
     1 UNK         1 GROUP             0       ****    0 ROOT    
