@<TRIPOS>MOLECULE
3R8
117   119    1
SMALL
USER_CHARGES


@<TRIPOS>ATOM
      1 CA         15.7965  -23.4734  -40.9108 C.3       0 UNK        -0.2013 
      2 C          16.0816  -23.5573  -42.4027 C.2       0 UNK         0.4866 
      3 O          15.9263  -22.5634  -43.1125 O.2       0 UNK        -0.5176 
      4 N          16.4952  -24.7372  -42.8838 N.am      1 UNK        -0.4884 
      5 CA         16.8074  -25.0033  -44.2947 C.3       1 UNK         0.0853 
      6 C6         16.9508  -26.5152  -44.5723 C.3       10 UNK        -0.0849 
      7 S7         15.4062  -27.4661  -44.3452 S.3       10 UNK        -0.2776 
      8 C8         15.9018  -28.8117  -43.1992 C.3       10 UNK         0.0316 
      9 C9         17.1502  -29.6164  -43.5820 C.ar      10 UNK        -0.0863 
     10 C10        17.7501  -30.4267  -42.6115 C.ar      10 UNK        -0.1009 
     11 C11        18.9354  -31.1169  -42.8866 C.ar      10 UNK        -0.0712 
     12 C12        19.5487  -30.9634  -44.1344 C.ar      10 UNK        -0.0894 
     13 C13        18.9509  -30.1755  -45.1214 C.ar      10 UNK        -0.0745 
     14 C14        17.7315  -29.5520  -44.8543 C.ar      10 UNK        -0.0972 
     15 C15        19.6162  -29.9695  -46.4750 C.3       10 UNK         0.0209 
     16 S16        20.0573  -28.2183  -46.7495 S.3       10 UNK        -0.2568 
     17 C17        21.4737  -28.0362  -45.6221 C.3       10 UNK        -0.0983 
     18 CA         22.0519  -26.5964  -45.6185 C.3       3 UNK         0.0876 
     19 N          21.1318  -25.6351  -44.9979 N.am      3 UNK        -0.4424 
     20 C          21.2825  -24.3029  -45.0252 C.2       2 UNK         0.4918 
     21 O          22.1222  -23.7301  -45.7226 O.2       2 UNK        -0.4875 
     22 CA         20.3685  -23.4775  -44.0915 C.3       2 UNK         0.0481 
     23 CB         20.2442  -22.0006  -44.5241 C.3       2 UNK        -0.1831 
     24 N          19.0459  -24.0763  -43.8653 N.am      2 UNK        -0.4498 
     25 C          18.0856  -24.2861  -44.7802 C.2       1 UNK         0.5027 
     26 O          18.1822  -23.9706  -45.9668 O.2       1 UNK        -0.4969 
     27 C          23.4120  -26.5904  -44.8890 C.2       3 UNK         0.5005 
     28 O          23.4674  -26.3090  -43.6890 O.2       3 UNK        -0.5279 
     29 N          24.4792  -26.9793  -45.6012 N.am      4 UNK        -0.4463 
     30 CA         25.8388  -27.1128  -45.0583 C.3       4 UNK         0.0283 
     31 CB         26.8151  -27.4229  -46.2046 C.3       4 UNK        -0.1875 
     32 C          25.9710  -28.1688  -43.9418 C.2       4 UNK         0.4949 
     33 O          26.8784  -28.0617  -43.1170 O.2       4 UNK        -0.5039 
     34 N          25.0607  -29.1510  -43.9311 N.am      5 UNK        -0.4663 
     35 CA         24.9549  -30.2056  -42.9229 C.3       5 UNK         0.0242 
     36 CB         25.1188  -31.5724  -43.6156 C.3       5 UNK        -0.1982 
     37 C          23.6305  -30.1184  -42.1417 C.2       5 UNK         0.5017 
     38 O          23.1926  -31.1396  -41.6101 O.2       5 UNK        -0.5012 
     39 N          23.0027  -28.9303  -42.0818 N.am      6 UNK        -0.4439 
     40 CA         21.7527  -28.6832  -41.3484 C.3       6 UNK         0.0297 
     41 CB         21.3213  -27.2179  -41.5118 C.3       6 UNK        -0.2006 
     42 C          21.8538  -29.0378  -39.8548 C.2       6 UNK         0.4892 
     43 O          22.9186  -28.8721  -39.2548 O.2       6 UNK        -0.5089 
     44 N          20.7430  -29.5403  -39.2992 N.am      7 UNK        -0.4243 
     45 CA         20.5544  -30.0725  -37.9402 C.3       7 UNK         0.0196 
     46 CB         20.8533  -29.0141  -36.8600 C.3       7 UNK        -0.2007 
     47 C          21.3102  -31.3864  -37.6604 C.2       7 UNK         0.5020 
     48 O          20.7372  -32.2771  -37.0333 O.2       7 UNK        -0.5147 
     49 N          22.5588  -31.5010  -38.1316 N.am      8 UNK        -0.4734 
     50 CA         23.3817  -32.7109  -38.0597 C.3       8 UNK         0.0238 
     51 CB         24.8340  -32.3726  -38.4373 C.3       8 UNK        -0.1912 
     52 C          22.8212  -33.8316  -38.9493 C.2       8 UNK         0.5038 
     53 O          22.5766  -34.9334  -38.4570 O.2       8 UNK        -0.5046 
     54 N          22.5935  -33.5062  -40.2288 N.am      9 UNK        -0.4200 
     55 CA         21.9380  -34.3434  -41.2442 C.3       9 UNK         0.0839 
     56 C          22.6777  -35.6633  -41.6210 C.2       9 UNK         0.5513 
     57 N          23.9622  -35.8062  -41.3170 N.am      9 UNK        -0.7519 
     58 O          22.0952  -36.5574  -42.2295 O.2       9 UNK        -0.4960 
     59 C59        20.4137  -34.5175  -40.9474 C.3       10 UNK        -0.0876 
     60 S60        19.3743  -33.7700  -42.2441 S.3       10 UNK        -0.2414 
     61 C61        19.5710  -32.0084  -41.8315 C.3       10 UNK         0.0169 
     62 H62        16.4358  -22.7218  -40.4484 H         1 UNK         0.0903 
     63 H63        14.7585  -23.1874  -40.7432 H         1 UNK         0.0903 
     64 H64        15.9714  -24.4239  -40.4069 H         1 UNK         0.0903 
     65 H65        16.5719  -25.5283  -42.2604 H         1 UNK         0.3096 
     66 H66        15.9821  -24.6194  -44.8991 H         1 UNK         0.1121 
     67 H67        17.2689  -26.6774  -45.6048 H         1 UNK         0.0849 
     68 H68        17.7401  -26.9322  -43.9443 H         1 UNK         0.0849 
     69 H69        15.0630  -29.5017  -43.0984 H         1 UNK         0.0865 
     70 H70        16.0539  -28.3702  -42.2131 H         1 UNK         0.0865 
     71 H71        17.2955  -30.5139  -41.6338 H         1 UNK         0.1346 
     72 H72        20.4845  -31.4671  -44.3355 H         1 UNK         0.1412 
     73 H73        17.2730  -28.9722  -45.6409 H         1 UNK         0.1426 
     74 H74        18.9287  -30.2874  -47.2599 H         1 UNK         0.0716 
     75 H75        20.5077  -30.5905  -46.5754 H         1 UNK         0.0716 
     76 H76        22.2263  -28.7590  -45.9436 H         1 UNK         0.0695 
     77 H77        21.1715  -28.3371  -44.6172 H         1 UNK         0.0695 
     78 H78        22.2234  -26.2793  -46.6498 H         1 UNK         0.0983 
     79 H79        20.4159  -26.0234  -44.4055 H         1 UNK         0.3095 
     80 H80        20.8633  -23.4858  -43.1193 H         1 UNK         0.0454 
     81 H81        19.6048  -21.4395  -43.8428 H         1 UNK         0.0851 
     82 H82        19.8309  -21.9044  -45.5284 H         1 UNK         0.0851 
     83 H83        21.2186  -21.5107  -44.5280 H         1 UNK         0.0851 
     84 H84        18.8502  -24.3641  -42.9165 H         1 UNK         0.2976 
     85 H85        24.3603  -27.2048  -46.5793 H         1 UNK         0.3116 
     86 H86        26.1165  -26.1493  -44.6253 H         1 UNK         0.0646 
     87 H87        27.8389  -27.4984  -45.8351 H         1 UNK         0.0847 
     88 H88        26.8048  -26.6377  -46.9607 H         1 UNK         0.0847 
     89 H89        26.5769  -28.3676  -46.6950 H         1 UNK         0.0847 
     90 H90        24.3566  -29.1520  -44.6545 H         1 UNK         0.3040 
     91 H91        25.7505  -30.1053  -42.1815 H         1 UNK         0.1015 
     92 H92        26.0601  -31.6282  -44.1626 H         1 UNK         0.0786 
     93 H93        24.3089  -31.7671  -44.3196 H         1 UNK         0.0786 
     94 H94        25.1227  -32.3862  -42.8889 H         1 UNK         0.0786 
     95 H95        23.4362  -28.1247  -42.5187 H         1 UNK         0.3172 
     96 H96        20.9866  -29.3137  -41.8020 H         1 UNK         0.0595 
     97 H97        22.0975  -26.5296  -41.1744 H         1 UNK         0.0839 
     98 H98        20.4207  -27.0029  -40.9350 H         1 UNK         0.0839 
     99 H99        21.0949  -26.9875  -42.5500 H         1 UNK         0.0839 
    100 H100       19.9310  -29.6246  -39.8943 H         1 UNK         0.2998 
    101 H101       19.4916  -30.3108  -37.8705 H         1 UNK         0.0822 
    102 H102       21.9094  -28.7454  -36.8283 H         1 UNK         0.0787 
    103 H103       20.2797  -28.1027  -37.0280 H         1 UNK         0.0787 
    104 H104       20.5874  -29.3868  -35.8699 H         1 UNK         0.0787 
    105 H105       22.9461  -30.6969  -38.6182 H         1 UNK         0.3055 
    106 H106       23.3701  -33.0695  -37.0278 H         1 UNK         0.1106 
    107 H107       25.4652  -33.2614  -38.3968 H         1 UNK         0.0828 
    108 H108       24.9099  -31.9622  -39.4451 H         1 UNK         0.0828 
    109 H109       25.2603  -31.6429  -37.7487 H         1 UNK         0.0828 
    110 H110       22.8551  -32.5777  -40.5552 H         1 UNK         0.2931 
    111 H111       22.0451  -33.7504  -42.1532 H         1 UNK         0.0412 
    112 H112       24.4538  -35.0764  -40.8271 H         1 UNK         0.3472 
    113 H113       24.4400  -36.6561  -41.5730 H         1 UNK         0.3472 
    114 H114       20.1330  -35.5675  -40.8482 H         1 UNK         0.0970 
    115 H115       20.1349  -34.0674  -39.9930 H         1 UNK         0.0970 
    116 H116       19.1368  -31.8210  -40.8483 H         1 UNK         0.0612 
    117 H117       20.6308  -31.7684  -41.7533 H         1 UNK         0.0612 
@<TRIPOS>BOND
     1    1    2 1    
     2    1   62 1    
     3    1   63 1    
     4    1   64 1    
     5    2    3 2    
     6    2    4 am   BACKBONE|DICT|INTERRES
     7    4    5 1    
     8    4   65 1    
     9    5    6 1    
    10    5   25 1    
    11    5   66 1    
    12    6    7 1    
    13    6   67 1    
    14    6   68 1    
    15    7    8 1    
    16    8    9 1    
    17    8   69 1    
    18    8   70 1    
    19    9   10 ar   
    20    9   14 ar   
    21   10   11 ar   
    22   10   71 1    
    23   11   12 ar   
    24   11   61 1    
    25   12   13 ar   
    26   12   72 1    
    27   13   14 ar   
    28   13   15 1    
    29   14   73 1    
    30   15   16 1    
    31   15   74 1    
    32   15   75 1    
    33   16   17 1    
    34   17   18 1    
    35   17   76 1    
    36   17   77 1    
    37   18   19 1    
    38   18   27 1    
    39   18   78 1    
    40   19   20 am   BACKBONE|DICT|INTERRES
    41   19   79 1    
    42   20   21 2    
    43   20   22 1    
    44   22   23 1    
    45   22   24 1    
    46   22   80 1    
    47   23   81 1    
    48   23   82 1    
    49   23   83 1    
    50   24   25 am   BACKBONE|DICT|INTERRES
    51   24   84 1    
    52   25   26 2    
    53   27   28 2    
    54   27   29 am   BACKBONE|DICT|INTERRES
    55   29   30 1    
    56   29   85 1    
    57   30   31 1    
    58   30   32 1    
    59   30   86 1    
    60   31   87 1    
    61   31   88 1    
    62   31   89 1    
    63   32   33 2    
    64   32   34 am   BACKBONE|DICT|INTERRES
    65   34   35 1    
    66   34   90 1    
    67   35   36 1    
    68   35   37 1    
    69   35   91 1    
    70   36   92 1    
    71   36   93 1    
    72   36   94 1    
    73   37   38 2    
    74   37   39 am   BACKBONE|DICT|INTERRES
    75   39   40 1    
    76   39   95 1    
    77   40   41 1    
    78   40   42 1    
    79   40   96 1    
    80   41   97 1    
    81   41   98 1    
    82   41   99 1    
    83   42   43 2    
    84   42   44 am   BACKBONE|DICT|INTERRES
    85   44   45 1    
    86   44  100 1    
    87   45   46 1    
    88   45   47 1    
    89   45  101 1    
    90   46  102 1    
    91   46  103 1    
    92   46  104 1    
    93   47   48 2    
    94   47   49 am   BACKBONE|DICT|INTERRES
    95   49   50 1    
    96   49  105 1    
    97   50   51 1    
    98   50   52 1    
    99   50  106 1    
   100   51  107 1    
   101   51  108 1    
   102   51  109 1    
   103   52   53 2    
   104   52   54 am   BACKBONE|DICT|INTERRES
   105   54   55 1    
   106   54  110 1    
   107   55   56 1    
   108   55   59 1    
   109   55  111 1    
   110   56   57 am   BACKBONE|DICT|INTERRES
   111   56   58 2    
   112   57  112 1    
   113   57  113 1    
   114   59   60 1    
   115   59  114 1    
   116   59  115 1    
   117   60   61 1    
   118   61  116 1    
   119   61  117 1    
@<TRIPOS>SUBSTRUCTURE
     1 UNK         1 GROUP             0       ****    0 ROOT    
