@<TRIPOS>MOLECULE
3R8
117   119    1
SMALL
USER_CHARGES


@<TRIPOS>ATOM
      1 CA         15.4163  -23.1089  -47.0238 C.3       0 UNK        -0.2013 
      2 C          16.7996  -23.6913  -46.7744 C.2       0 UNK         0.4866 
      3 O          17.8014  -23.0336  -47.0587 O.2       0 UNK        -0.5176 
      4 N          16.8632  -24.9231  -46.2544 N.am      1 UNK        -0.4884 
      5 CA         18.1053  -25.6187  -45.9038 C.3       1 UNK         0.0853 
      6 C6         17.8581  -27.1136  -45.5960 C.3       10 UNK        -0.0849 
      7 S7         17.3533  -28.0796  -47.0555 S.3       10 UNK        -0.2776 
      8 C8         16.4008  -29.4300  -46.2810 C.3       10 UNK         0.0316 
      9 C9         17.1381  -30.0694  -45.1091 C.ar      10 UNK        -0.0863 
     10 C10        18.2647  -30.8684  -45.3303 C.ar      10 UNK        -0.1009 
     11 C11        18.9455  -31.4439  -44.2530 C.ar      10 UNK        -0.0712 
     12 C12        18.4889  -31.2235  -42.9511 C.ar      10 UNK        -0.0894 
     13 C13        17.3624  -30.4311  -42.7164 C.ar      10 UNK        -0.0745 
     14 C14        16.6918  -29.8566  -43.8000 C.ar      10 UNK        -0.0972 
     15 C15        16.8453  -30.2266  -41.2980 C.3       10 UNK         0.0209 
     16 S16        18.0977  -29.5270  -40.1750 S.3       10 UNK        -0.2568 
     17 C17        18.3633  -27.8599  -40.8719 C.3       10 UNK        -0.0983 
     18 CA         19.8405  -27.6110  -41.2652 C.3       3 UNK         0.0876 
     19 N          19.9722  -26.4095  -42.0933 N.am      3 UNK        -0.4424 
     20 C          21.1061  -25.9424  -42.6341 C.2       2 UNK         0.4918 
     21 O          22.2073  -26.4813  -42.4990 O.2       2 UNK        -0.4875 
     22 CA         20.9608  -24.6849  -43.5135 C.3       2 UNK         0.0481 
     23 CB         22.3124  -24.1379  -44.0064 C.3       2 UNK        -0.1831 
     24 N          20.1223  -24.9875  -44.6744 N.am      2 UNK        -0.4498 
     25 C          18.7836  -24.9771  -44.6791 C.2       1 UNK         0.5027 
     26 O          18.0999  -24.5896  -43.7273 O.2       1 UNK        -0.4969 
     27 C          20.7510  -27.5253  -40.0232 C.2       3 UNK         0.5005 
     28 O          20.7116  -26.5197  -39.3095 O.2       3 UNK        -0.5279 
     29 N          21.5814  -28.5571  -39.8244 N.am      4 UNK        -0.4463 
     30 CA         22.6059  -28.7353  -38.7851 C.3       4 UNK         0.0283 
     31 CB         22.0062  -28.6626  -37.3680 C.3       4 UNK        -0.1875 
     32 C          23.8248  -27.8051  -38.9299 C.2       4 UNK         0.4949 
     33 O          24.9364  -28.2332  -38.6208 O.2       4 UNK        -0.5039 
     34 N          23.6121  -26.5719  -39.4066 N.am      5 UNK        -0.4663 
     35 CA         24.6466  -25.5773  -39.6916 C.3       5 UNK         0.0242 
     36 CB         23.9869  -24.2214  -39.9909 C.3       5 UNK        -0.1982 
     37 C          25.5784  -26.0091  -40.8353 C.2       5 UNK         0.5017 
     38 O          26.7975  -25.9541  -40.6683 O.2       5 UNK        -0.5012 
     39 N          24.9928  -26.4507  -41.9573 N.am      6 UNK        -0.4439 
     40 CA         25.7187  -27.0596  -43.0724 C.3       6 UNK         0.0297 
     41 CB         25.0384  -26.7152  -44.4070 C.3       6 UNK        -0.2006 
     42 C          25.8180  -28.5779  -42.8796 C.2       6 UNK         0.4892 
     43 O          26.9204  -29.1230  -42.9467 O.2       6 UNK        -0.5089 
     44 N          24.6747  -29.2282  -42.6274 N.am      7 UNK        -0.4243 
     45 CA         24.5629  -30.6627  -42.3805 C.3       7 UNK         0.0196 
     46 CB         24.6833  -31.4486  -43.7009 C.3       7 UNK        -0.2007 
     47 C          23.2146  -30.9506  -41.7191 C.2       7 UNK         0.5020 
     48 O          22.2334  -30.2611  -42.0058 O.2       7 UNK        -0.5147 
     49 N          23.1800  -31.9755  -40.8612 N.am      8 UNK        -0.4734 
     50 CA         21.9452  -32.5124  -40.2762 C.3       8 UNK         0.0238 
     51 CB         22.2425  -33.0351  -38.8612 C.3       8 UNK        -0.1912 
     52 C          21.3253  -33.6241  -41.1446 C.2       8 UNK         0.5038 
     53 O          20.1294  -33.8801  -41.0083 O.2       8 UNK        -0.5046 
     54 N          22.1501  -34.2409  -42.0076 N.am      9 UNK        -0.4200 
     55 CA         21.8496  -35.3394  -42.9423 C.3       9 UNK         0.0839 
     56 C          21.0607  -36.5371  -42.3269 C.2       9 UNK         0.5513 
     57 N          20.1886  -37.1991  -43.0759 N.am      9 UNK        -0.7519 
     58 O          21.2956  -36.9213  -41.1828 O.2       9 UNK        -0.4960 
     59 C59        21.3894  -34.8395  -44.3461 C.3       10 UNK        -0.0876 
     60 S60        19.7348  -34.0729  -44.4041 S.3       10 UNK        -0.2414 
     61 C61        20.1713  -32.3103  -44.4827 C.3       10 UNK         0.0169 
     62 H62        15.2864  -22.1922  -46.4492 H         1 UNK         0.0903 
     63 H63        15.2946  -22.8696  -48.0799 H         1 UNK         0.0903 
     64 H64        14.6244  -23.8019  -46.7401 H         1 UNK         0.0903 
     65 H65        16.0097  -25.4154  -46.0330 H         1 UNK         0.3096 
     66 H66        18.7859  -25.5410  -46.7551 H         1 UNK         0.1121 
     67 H67        18.7600  -27.5889  -45.2024 H         1 UNK         0.0849 
     68 H68        17.1006  -27.2110  -44.8158 H         1 UNK         0.0849 
     69 H69        15.4332  -29.0403  -45.9607 H         1 UNK         0.0865 
     70 H70        16.1863  -30.1908  -47.0329 H         1 UNK         0.0865 
     71 H71        18.6129  -31.0357  -46.3405 H         1 UNK         0.1346 
     72 H72        19.0077  -31.6779  -42.1181 H         1 UNK         0.1412 
     73 H73        15.8171  -29.2449  -43.6245 H         1 UNK         0.1426 
     74 H74        16.5230  -31.1908  -40.9027 H         1 UNK         0.0716 
     75 H75        15.9649  -29.5821  -41.2895 H         1 UNK         0.0716 
     76 H76        18.0196  -27.1174  -40.1490 H         1 UNK         0.0695 
     77 H77        17.7235  -27.7402  -41.7476 H         1 UNK         0.0695 
     78 H78        20.1714  -28.4460  -41.8875 H         1 UNK         0.0983 
     79 H79        19.1244  -25.8825  -42.2598 H         1 UNK         0.3095 
     80 H80        20.4898  -23.9093  -42.9061 H         1 UNK         0.0454 
     81 H81        22.8051  -24.8350  -44.6829 H         1 UNK         0.0851 
     82 H82        22.9931  -23.9485  -43.1763 H         1 UNK         0.0851 
     83 H83        22.1843  -23.1952  -44.5382 H         1 UNK         0.0851 
     84 H84        20.6054  -25.3576  -45.4810 H         1 UNK         0.2976 
     85 H85        21.5974  -29.2717  -40.5501 H         1 UNK         0.3116 
     86 H86        22.9802  -29.7505  -38.9206 H         1 UNK         0.0646 
     87 H87        21.6445  -27.6631  -37.1259 H         1 UNK         0.0847 
     88 H88        22.7538  -28.9239  -36.6181 H         1 UNK         0.0847 
     89 H89        21.1749  -29.3582  -37.2534 H         1 UNK         0.0847 
     90 H90        22.6478  -26.3060  -39.5814 H         1 UNK         0.3040 
     91 H91        25.2594  -25.4668  -38.7941 H         1 UNK         0.1015 
     92 H92        23.2911  -24.2850  -40.8271 H         1 UNK         0.0786 
     93 H93        24.7349  -23.4678  -40.2413 H         1 UNK         0.0786 
     94 H94        23.4339  -23.8534  -39.1264 H         1 UNK         0.0786 
     95 H95        23.9757  -26.4556  -42.0148 H         1 UNK         0.3172 
     96 H96        26.7341  -26.6592  -43.1131 H         1 UNK         0.0595 
     97 H97        25.5617  -27.1835  -45.2417 H         1 UNK         0.0839 
     98 H98        25.0496  -25.6402  -44.5845 H         1 UNK         0.0839 
     99 H99        24.0029  -27.0549  -44.4418 H         1 UNK         0.0839 
    100 H100       23.8003  -28.7192  -42.5777 H         1 UNK         0.2998 
    101 H101       25.3613  -30.9640  -41.6987 H         1 UNK         0.0822 
    102 H102       24.5822  -32.5214  -43.5327 H         1 UNK         0.0787 
    103 H103       23.9104  -31.1555  -44.4129 H         1 UNK         0.0787 
    104 H104       25.6514  -31.2898  -44.1759 H         1 UNK         0.0787 
    105 H105       24.0384  -32.4623  -40.6415 H         1 UNK         0.3055 
    106 H106       21.1995  -31.7180  -40.1908 H         1 UNK         0.1106 
    107 H107       21.3368  -33.4211  -38.3911 H         1 UNK         0.0828 
    108 H108       22.9732  -33.8447  -38.8721 H         1 UNK         0.0828 
    109 H109       22.6261  -32.2433  -38.2176 H         1 UNK         0.0828 
    110 H110       23.1151  -33.9517  -41.9980 H         1 UNK         0.2931 
    111 H111       22.8321  -35.7793  -43.1181 H         1 UNK         0.0412 
    112 H112       19.7023  -37.9900  -42.6829 H         1 UNK         0.3472 
    113 H113       19.9687  -36.8847  -44.0080 H         1 UNK         0.3472 
    114 H114       21.4026  -35.6658  -45.0586 H         1 UNK         0.0970 
    115 H115       22.1220  -34.1304  -44.7346 H         1 UNK         0.0970 
    116 H116       20.6245  -32.0908  -45.4506 H         1 UNK         0.0612 
    117 H117       20.9245  -32.0816  -43.7278 H         1 UNK         0.0612 
@<TRIPOS>BOND
     1    1    2 1    
     2    1   62 1    
     3    1   63 1    
     4    1   64 1    
     5    2    3 2    
     6    2    4 am   BACKBONE|DICT|INTERRES
     7    4    5 1    
     8    4   65 1    
     9    5    6 1    
    10    5   25 1    
    11    5   66 1    
    12    6    7 1    
    13    6   67 1    
    14    6   68 1    
    15    7    8 1    
    16    8    9 1    
    17    8   69 1    
    18    8   70 1    
    19    9   10 ar   
    20    9   14 ar   
    21   10   11 ar   
    22   10   71 1    
    23   11   12 ar   
    24   11   61 1    
    25   12   13 ar   
    26   12   72 1    
    27   13   14 ar   
    28   13   15 1    
    29   14   73 1    
    30   15   16 1    
    31   15   74 1    
    32   15   75 1    
    33   16   17 1    
    34   17   18 1    
    35   17   76 1    
    36   17   77 1    
    37   18   19 1    
    38   18   27 1    
    39   18   78 1    
    40   19   20 am   BACKBONE|DICT|INTERRES
    41   19   79 1    
    42   20   21 2    
    43   20   22 1    
    44   22   23 1    
    45   22   24 1    
    46   22   80 1    
    47   23   81 1    
    48   23   82 1    
    49   23   83 1    
    50   24   25 am   BACKBONE|DICT|INTERRES
    51   24   84 1    
    52   25   26 2    
    53   27   28 2    
    54   27   29 am   BACKBONE|DICT|INTERRES
    55   29   30 1    
    56   29   85 1    
    57   30   31 1    
    58   30   32 1    
    59   30   86 1    
    60   31   87 1    
    61   31   88 1    
    62   31   89 1    
    63   32   33 2    
    64   32   34 am   BACKBONE|DICT|INTERRES
    65   34   35 1    
    66   34   90 1    
    67   35   36 1    
    68   35   37 1    
    69   35   91 1    
    70   36   92 1    
    71   36   93 1    
    72   36   94 1    
    73   37   38 2    
    74   37   39 am   BACKBONE|DICT|INTERRES
    75   39   40 1    
    76   39   95 1    
    77   40   41 1    
    78   40   42 1    
    79   40   96 1    
    80   41   97 1    
    81   41   98 1    
    82   41   99 1    
    83   42   43 2    
    84   42   44 am   BACKBONE|DICT|INTERRES
    85   44   45 1    
    86   44  100 1    
    87   45   46 1    
    88   45   47 1    
    89   45  101 1    
    90   46  102 1    
    91   46  103 1    
    92   46  104 1    
    93   47   48 2    
    94   47   49 am   BACKBONE|DICT|INTERRES
    95   49   50 1    
    96   49  105 1    
    97   50   51 1    
    98   50   52 1    
    99   50  106 1    
   100   51  107 1    
   101   51  108 1    
   102   51  109 1    
   103   52   53 2    
   104   52   54 am   BACKBONE|DICT|INTERRES
   105   54   55 1    
   106   54  110 1    
   107   55   56 1    
   108   55   59 1    
   109   55  111 1    
   110   56   57 am   BACKBONE|DICT|INTERRES
   111   56   58 2    
   112   57  112 1    
   113   57  113 1    
   114   59   60 1    
   115   59  114 1    
   116   59  115 1    
   117   60   61 1    
   118   61  116 1    
   119   61  117 1    
@<TRIPOS>SUBSTRUCTURE
     1 UNK         1 GROUP             0       ****    0 ROOT    
