@<TRIPOS>MOLECULE
3R8
117   119    1
SMALL
USER_CHARGES


@<TRIPOS>ATOM
      1 CA         14.1915  -24.0208  -43.4487 C.3       0 UNK        -0.2013 
      2 C          14.6205  -25.4209  -43.8610 C.2       0 UNK         0.4866 
      3 O          14.3861  -25.8239  -45.0007 O.2       0 UNK        -0.5176 
      4 N          15.2483  -26.1653  -42.9460 N.am      1 UNK        -0.4884 
      5 CA         15.7802  -27.5076  -43.1679 C.3       1 UNK         0.0853 
      6 C6         14.6661  -28.5875  -43.1087 C.3       10 UNK        -0.0849 
      7 S7         15.1563  -30.2696  -43.6313 S.3       10 UNK        -0.2776 
      8 C8         15.5386  -30.0620  -45.4025 C.3       10 UNK         0.0316 
      9 C9         17.0219  -29.8004  -45.6390 C.ar      10 UNK        -0.0863 
     10 C10        17.9618  -30.7966  -45.3571 C.ar      10 UNK        -0.1009 
     11 C11        19.3221  -30.5811  -45.5976 C.ar      10 UNK        -0.0712 
     12 C12        19.7460  -29.3505  -46.1058 C.ar      10 UNK        -0.0894 
     13 C13        18.8178  -28.3420  -46.3808 C.ar      10 UNK        -0.0745 
     14 C14        17.4573  -28.5803  -46.1654 C.ar      10 UNK        -0.0972 
     15 C15        19.2730  -26.9990  -46.9298 C.3       10 UNK         0.0209 
     16 S16        19.5257  -25.7806  -45.6000 S.3       10 UNK        -0.2568 
     17 C17        21.1940  -26.2147  -44.9993 C.3       10 UNK        -0.0983 
     18 CA         21.2314  -26.5060  -43.4791 C.3       3 UNK         0.0876 
     19 N          20.3598  -27.6264  -43.1180 N.am      3 UNK        -0.4424 
     20 C          20.0450  -27.9891  -41.8685 C.2       2 UNK         0.4918 
     21 O          20.4878  -27.4384  -40.8600 O.2       2 UNK        -0.4875 
     22 CA         18.9992  -29.1135  -41.7508 C.3       2 UNK         0.0481 
     23 CB         18.7128  -29.5406  -40.2962 C.3       2 UNK        -0.1831 
     24 N          17.7626  -28.7540  -42.4520 N.am      2 UNK        -0.4498 
     25 C          16.9355  -27.7343  -42.1762 C.2       1 UNK         0.5027 
     26 O          17.0591  -26.9782  -41.2076 O.2       1 UNK        -0.4969 
     27 C          22.6892  -26.7212  -43.0231 C.2       3 UNK         0.5005 
     28 O          23.1714  -27.8564  -42.9810 O.2       3 UNK        -0.5279 
     29 N          23.3841  -25.6127  -42.7368 N.am      4 UNK        -0.4463 
     30 CA         24.8276  -25.5743  -42.4915 C.3       4 UNK         0.0283 
     31 CB         25.1933  -24.1792  -41.9559 C.3       4 UNK        -0.1875 
     32 C          25.6158  -25.8828  -43.7857 C.2       4 UNK         0.4949 
     33 O          25.1190  -25.5799  -44.8706 O.2       4 UNK        -0.5039 
     34 N          26.8311  -26.4443  -43.7184 N.am      5 UNK        -0.4663 
     35 CA         27.5938  -26.8238  -42.5229 C.3       5 UNK         0.0242 
     36 CB         29.0909  -26.7883  -42.8763 C.3       5 UNK        -0.1982 
     37 C          27.2148  -28.2001  -41.9441 C.2       5 UNK         0.5017 
     38 O          27.7420  -28.5589  -40.8911 O.2       5 UNK        -0.5012 
     39 N          26.3320  -28.9471  -42.6253 N.am      6 UNK        -0.4439 
     40 CA         25.8622  -30.2719  -42.2051 C.3       6 UNK         0.0297 
     41 CB         25.0417  -30.9144  -43.3317 C.3       6 UNK        -0.2006 
     42 C          25.0696  -30.2357  -40.8863 C.2       6 UNK         0.4892 
     43 O          25.2905  -31.0911  -40.0296 O.2       6 UNK        -0.5089 
     44 N          24.1923  -29.2311  -40.7429 N.am      7 UNK        -0.4243 
     45 CA         23.5014  -28.7604  -39.5311 C.3       7 UNK         0.0196 
     46 CB         24.5267  -28.2582  -38.4958 C.3       7 UNK        -0.2007 
     47 C          22.4943  -29.7257  -38.8736 C.2       7 UNK         0.5020 
     48 O          21.6279  -29.2592  -38.1340 O.2       7 UNK        -0.5147 
     49 N          22.6092  -31.0323  -39.1275 N.am      8 UNK        -0.4734 
     50 CA         21.7687  -32.0880  -38.5539 C.3       8 UNK         0.0238 
     51 CB         22.5438  -32.7810  -37.4173 C.3       8 UNK        -0.1912 
     52 C          21.2893  -33.0892  -39.6195 C.2       8 UNK         0.5038 
     53 O          20.8631  -34.1892  -39.2648 O.2       8 UNK        -0.5046 
     54 N          21.3701  -32.7070  -40.9009 N.am      9 UNK        -0.4200 
     55 CA         20.9797  -33.5333  -42.0552 C.3       9 UNK         0.0839 
     56 C          19.4460  -33.7013  -42.2764 C.2       9 UNK         0.5513 
     57 N          18.5849  -33.0122  -41.5377 N.am      9 UNK        -0.7519 
     58 O          19.0329  -34.4817  -43.1300 O.2       9 UNK        -0.4960 
     59 C59        21.7188  -33.0826  -43.3415 C.3       10 UNK        -0.0876 
     60 S60        21.3148  -31.3738  -43.8478 S.3       10 UNK        -0.2414 
     61 C61        20.3261  -31.6922  -45.3399 C.3       10 UNK         0.0169 
     62 H62        14.4568  -23.8010  -42.4147 H         1 UNK         0.0903 
     63 H63        14.6702  -23.2787  -44.0870 H         1 UNK         0.0903 
     64 H64        13.1120  -23.9138  -43.5516 H         1 UNK         0.0903 
     65 H65        15.4793  -25.7874  -42.0338 H         1 UNK         0.3096 
     66 H66        16.2224  -27.5007  -44.1601 H         1 UNK         0.1121 
     67 H67        14.2618  -28.6507  -42.0968 H         1 UNK         0.0849 
     68 H68        13.8267  -28.2890  -43.7387 H         1 UNK         0.0849 
     69 H69        15.2576  -30.9755  -45.9288 H         1 UNK         0.0865 
     70 H70        14.9220  -29.2676  -45.8266 H         1 UNK         0.0865 
     71 H71        17.6297  -31.7477  -44.9617 H         1 UNK         0.1346 
     72 H72        20.7985  -29.1859  -46.2923 H         1 UNK         0.1412 
     73 H73        16.7387  -27.8069  -46.4036 H         1 UNK         0.1426 
     74 H74        20.1858  -27.1081  -47.5176 H         1 UNK         0.0716 
     75 H75        18.5193  -26.6114  -47.6170 H         1 UNK         0.0716 
     76 H76        21.5855  -27.0654  -45.5590 H         1 UNK         0.0695 
     77 H77        21.8478  -25.3748  -45.2432 H         1 UNK         0.0695 
     78 H78        20.8475  -25.6288  -42.9532 H         1 UNK         0.0983 
     79 H79        19.9507  -28.1318  -43.8902 H         1 UNK         0.3095 
     80 H80        19.3993  -29.9828  -42.2700 H         1 UNK         0.0454 
     81 H81        18.3936  -28.7014  -39.6777 H         1 UNK         0.0851 
     82 H82        17.9353  -30.3025  -40.2505 H         1 UNK         0.0851 
     83 H83        19.6068  -29.9571  -39.8342 H         1 UNK         0.0851 
     84 H84        17.5434  -29.3243  -43.2597 H         1 UNK         0.2976 
     85 H85        22.9270  -24.7174  -42.8334 H         1 UNK         0.3116 
     86 H86        25.0502  -26.3190  -41.7268 H         1 UNK         0.0646 
     87 H87        26.2599  -24.0952  -41.7479 H         1 UNK         0.0847 
     88 H88        24.6677  -23.9610  -41.0260 H         1 UNK         0.0847 
     89 H89        24.9457  -23.3950  -42.6727 H         1 UNK         0.0847 
     90 H90        27.3021  -26.6203  -44.5947 H         1 UNK         0.3040 
     91 H91        27.4292  -26.0909  -41.7322 H         1 UNK         0.1015 
     92 H92        29.3922  -25.8020  -43.2301 H         1 UNK         0.0786 
     93 H93        29.3413  -27.5144  -43.6508 H         1 UNK         0.0786 
     94 H94        29.7071  -27.0167  -42.0053 H         1 UNK         0.0786 
     95 H95        25.9373  -28.5684  -43.4745 H         1 UNK         0.3172 
     96 H96        26.7447  -30.8935  -42.0394 H         1 UNK         0.0595 
     97 H97        24.7360  -31.9226  -43.0545 H         1 UNK         0.0839 
     98 H98        25.6221  -30.9971  -44.2506 H         1 UNK         0.0839 
     99 H99        24.1397  -30.3438  -43.5551 H         1 UNK         0.0839 
    100 H100       23.9917  -28.6794  -41.5770 H         1 UNK         0.2998 
    101 H101       22.9188  -27.8967  -39.8539 H         1 UNK         0.0822 
    102 H102       25.1836  -27.5009  -38.9241 H         1 UNK         0.0787 
    103 H103       24.0275  -27.8065  -37.6375 H         1 UNK         0.0787 
    104 H104       25.1512  -29.0689  -38.1186 H         1 UNK         0.0787 
    105 H105       23.4262  -31.3289  -39.6550 H         1 UNK         0.3055 
    106 H106       20.8610  -31.6534  -38.1295 H         1 UNK         0.1106 
    107 H107       21.9340  -33.5406  -36.9264 H         1 UNK         0.0828 
    108 H108       23.4448  -33.2716  -37.7875 H         1 UNK         0.0828 
    109 H109       22.8431  -32.0665  -36.6504 H         1 UNK         0.0828 
    110 H110       21.6992  -31.7769  -41.1121 H         1 UNK         0.2931 
    111 H111       21.3388  -34.5424  -41.8430 H         1 UNK         0.0412 
    112 H112       17.5966  -33.1362  -41.6899 H         1 UNK         0.3472 
    113 H113       18.9136  -32.3893  -40.8204 H         1 UNK         0.3472 
    114 H114       21.5225  -33.7777  -44.1598 H         1 UNK         0.0970 
    115 H115       22.7941  -33.1428  -43.1779 H         1 UNK         0.0970 
    116 H116       19.8018  -32.6439  -45.2424 H         1 UNK         0.0612 
    117 H117       20.9939  -31.7959  -46.1963 H         1 UNK         0.0612 
@<TRIPOS>BOND
     1    1    2 1    
     2    1   62 1    
     3    1   63 1    
     4    1   64 1    
     5    2    3 2    
     6    2    4 am   BACKBONE|DICT|INTERRES
     7    4    5 1    
     8    4   65 1    
     9    5    6 1    
    10    5   25 1    
    11    5   66 1    
    12    6    7 1    
    13    6   67 1    
    14    6   68 1    
    15    7    8 1    
    16    8    9 1    
    17    8   69 1    
    18    8   70 1    
    19    9   10 ar   
    20    9   14 ar   
    21   10   11 ar   
    22   10   71 1    
    23   11   12 ar   
    24   11   61 1    
    25   12   13 ar   
    26   12   72 1    
    27   13   14 ar   
    28   13   15 1    
    29   14   73 1    
    30   15   16 1    
    31   15   74 1    
    32   15   75 1    
    33   16   17 1    
    34   17   18 1    
    35   17   76 1    
    36   17   77 1    
    37   18   19 1    
    38   18   27 1    
    39   18   78 1    
    40   19   20 am   BACKBONE|DICT|INTERRES
    41   19   79 1    
    42   20   21 2    
    43   20   22 1    
    44   22   23 1    
    45   22   24 1    
    46   22   80 1    
    47   23   81 1    
    48   23   82 1    
    49   23   83 1    
    50   24   25 am   BACKBONE|DICT|INTERRES
    51   24   84 1    
    52   25   26 2    
    53   27   28 2    
    54   27   29 am   BACKBONE|DICT|INTERRES
    55   29   30 1    
    56   29   85 1    
    57   30   31 1    
    58   30   32 1    
    59   30   86 1    
    60   31   87 1    
    61   31   88 1    
    62   31   89 1    
    63   32   33 2    
    64   32   34 am   BACKBONE|DICT|INTERRES
    65   34   35 1    
    66   34   90 1    
    67   35   36 1    
    68   35   37 1    
    69   35   91 1    
    70   36   92 1    
    71   36   93 1    
    72   36   94 1    
    73   37   38 2    
    74   37   39 am   BACKBONE|DICT|INTERRES
    75   39   40 1    
    76   39   95 1    
    77   40   41 1    
    78   40   42 1    
    79   40   96 1    
    80   41   97 1    
    81   41   98 1    
    82   41   99 1    
    83   42   43 2    
    84   42   44 am   BACKBONE|DICT|INTERRES
    85   44   45 1    
    86   44  100 1    
    87   45   46 1    
    88   45   47 1    
    89   45  101 1    
    90   46  102 1    
    91   46  103 1    
    92   46  104 1    
    93   47   48 2    
    94   47   49 am   BACKBONE|DICT|INTERRES
    95   49   50 1    
    96   49  105 1    
    97   50   51 1    
    98   50   52 1    
    99   50  106 1    
   100   51  107 1    
   101   51  108 1    
   102   51  109 1    
   103   52   53 2    
   104   52   54 am   BACKBONE|DICT|INTERRES
   105   54   55 1    
   106   54  110 1    
   107   55   56 1    
   108   55   59 1    
   109   55  111 1    
   110   56   57 am   BACKBONE|DICT|INTERRES
   111   56   58 2    
   112   57  112 1    
   113   57  113 1    
   114   59   60 1    
   115   59  114 1    
   116   59  115 1    
   117   60   61 1    
   118   61  116 1    
   119   61  117 1    
@<TRIPOS>SUBSTRUCTURE
     1 UNK         1 GROUP             0       ****    0 ROOT    
