@<TRIPOS>MOLECULE
3R8
117   119    1
SMALL
USER_CHARGES


@<TRIPOS>ATOM
      1 CA         20.6660  -24.9517  -39.0934 C.3       0 UNK        -0.2013 
      2 C          19.8251  -24.8416  -40.3563 C.2       0 UNK         0.4866 
      3 O          19.3369  -23.7570  -40.6751 O.2       0 UNK        -0.5176 
      4 N          19.6447  -25.9575  -41.0721 N.am      1 UNK        -0.4884 
      5 CA         18.9069  -26.0266  -42.3366 C.3       1 UNK         0.0853 
      6 C6         18.6302  -27.4845  -42.7595 C.3       10 UNK        -0.0849 
      7 S7         17.4519  -28.3490  -41.6709 S.3       10 UNK        -0.2776 
      8 C8         18.2661  -29.9722  -41.4570 C.3       10 UNK         0.0316 
      9 C9         18.7930  -30.6088  -42.7463 C.ar      10 UNK        -0.0863 
     10 C10        19.9880  -31.3342  -42.7085 C.ar      10 UNK        -0.1009 
     11 C11        20.5268  -31.8937  -43.8693 C.ar      10 UNK        -0.0712 
     12 C12        19.8799  -31.6924  -45.0912 C.ar      10 UNK        -0.0894 
     13 C13        18.6961  -30.9499  -45.1514 C.ar      10 UNK        -0.0745 
     14 C14        18.1345  -30.4518  -43.9725 C.ar      10 UNK        -0.0972 
     15 C15        18.0624  -30.6220  -46.4969 C.3       10 UNK         0.0209 
     16 S16        18.3159  -28.8704  -46.9586 S.3       10 UNK        -0.2568 
     17 C17        20.1306  -28.7209  -46.8276 C.3       10 UNK        -0.0983 
     18 CA         20.6936  -27.3227  -47.1909 C.3       3 UNK         0.0876 
     19 N          20.0310  -26.2533  -46.4407 N.am      3 UNK        -0.4424 
     20 C          20.2591  -24.9379  -46.5603 C.2       2 UNK         0.4918 
     21 O          21.0196  -24.4477  -47.3950 O.2       2 UNK        -0.4875 
     22 CA         19.5297  -24.0040  -45.5707 C.3       2 UNK         0.0481 
     23 CB         18.4010  -23.2454  -46.2873 C.3       2 UNK        -0.1831 
     24 N          18.9796  -24.6676  -44.3793 N.am      2 UNK        -0.4498 
     25 C          19.6938  -25.3418  -43.4665 C.2       1 UNK         0.5027 
     26 O          20.9102  -25.5230  -43.5514 O.2       1 UNK        -0.4969 
     27 C          22.2244  -27.3438  -46.9826 C.2       3 UNK         0.5005 
     28 O          22.9511  -27.6533  -47.9288 O.2       3 UNK        -0.5279 
     29 N          22.6810  -27.0643  -45.7505 N.am      4 UNK        -0.4463 
     30 CA         24.0766  -27.2562  -45.3371 C.3       4 UNK         0.0283 
     31 CB         24.2731  -28.7231  -44.9021 C.3       4 UNK        -0.1875 
     32 C          24.5589  -26.2990  -44.2329 C.2       4 UNK         0.4949 
     33 O          25.7482  -26.3339  -43.9163 O.2       4 UNK        -0.5039 
     34 N          23.6604  -25.4907  -43.6473 N.am      5 UNK        -0.4663 
     35 CA         23.8657  -24.6545  -42.4551 C.3       5 UNK         0.0242 
     36 CB         24.8794  -23.5220  -42.7267 C.3       5 UNK        -0.1982 
     37 C          24.2090  -25.5057  -41.2163 C.2       5 UNK         0.5017 
     38 O          25.1254  -25.1676  -40.4645 O.2       5 UNK        -0.5012 
     39 N          23.4775  -26.6146  -41.0481 N.am      6 UNK        -0.4439 
     40 CA         23.6982  -27.6299  -40.0226 C.3       6 UNK         0.0297 
     41 CB         24.6792  -28.6867  -40.5641 C.3       6 UNK        -0.2006 
     42 C          22.3645  -28.2739  -39.6256 C.2       6 UNK         0.4892 
     43 O          21.3668  -28.1181  -40.3361 O.2       6 UNK        -0.5089 
     44 N          22.3830  -28.9855  -38.4920 N.am      7 UNK        -0.4243 
     45 CA         21.2678  -29.7792  -37.9702 C.3       7 UNK         0.0196 
     46 CB         21.5697  -30.1453  -36.5064 C.3       7 UNK        -0.2007 
     47 C          21.0113  -31.0466  -38.8073 C.2       7 UNK         0.5020 
     48 O          21.8520  -31.4252  -39.6254 O.2       7 UNK        -0.5147 
     49 N          19.8463  -31.6704  -38.5744 N.am      8 UNK        -0.4734 
     50 CA         19.3192  -32.8531  -39.2686 C.3       8 UNK         0.0238 
     51 CB         18.0348  -33.3191  -38.5621 C.3       8 UNK        -0.1912 
     52 C          20.3275  -34.0108  -39.3897 C.2       8 UNK         0.5038 
     53 O          20.7067  -34.5980  -38.3741 O.2       8 UNK        -0.5046 
     54 N          20.7338  -34.3016  -40.6305 N.am      9 UNK        -0.4200 
     55 CA         21.6817  -35.3637  -40.9936 C.3       9 UNK         0.0839 
     56 C          21.0504  -36.7812  -41.1223 C.2       9 UNK         0.5513 
     57 N          19.7365  -36.9409  -41.0133 N.am      9 UNK        -0.7519 
     58 O          21.7709  -37.7589  -41.3064 O.2       9 UNK        -0.4960 
     59 C59        22.5183  -34.9675  -42.2418 C.3       10 UNK        -0.0876 
     60 S60        21.5097  -34.4716  -43.6886 S.3       10 UNK        -0.2414 
     61 C61        21.8275  -32.6796  -43.8064 C.3       10 UNK         0.0169 
     62 H62        20.2874  -24.2776  -38.3255 H         1 UNK         0.0903 
     63 H63        20.6453  -25.9624  -38.6871 H         1 UNK         0.0903 
     64 H64        21.7007  -24.6833  -39.3036 H         1 UNK         0.0903 
     65 H65        20.1117  -26.8167  -40.7868 H         1 UNK         0.3096 
     66 H66        17.9557  -25.5054  -42.2063 H         1 UNK         0.1121 
     67 H67        19.5711  -28.0378  -42.8030 H         1 UNK         0.0849 
     68 H68        18.2081  -27.5262  -43.7660 H         1 UNK         0.0849 
     69 H69        19.0873  -29.8301  -40.7535 H         1 UNK         0.0865 
     70 H70        17.5628  -30.6575  -40.9829 H         1 UNK         0.0865 
     71 H71        20.5181  -31.4478  -41.7751 H         1 UNK         0.1346 
     72 H72        20.3156  -32.0894  -45.9979 H         1 UNK         0.1412 
     73 H73        17.2168  -29.8827  -44.0259 H         1 UNK         0.1426 
     74 H74        18.4707  -31.2601  -47.2822 H         1 UNK         0.0716 
     75 H75        16.9922  -30.8297  -46.4570 H         1 UNK         0.0716 
     76 H76        20.5769  -29.4873  -47.4648 H         1 UNK         0.0695 
     77 H77        20.4120  -28.9714  -45.8029 H         1 UNK         0.0695 
     78 H78        20.5082  -27.1380  -48.2512 H         1 UNK         0.0983 
     79 H79        19.3497  -26.5554  -45.7622 H         1 UNK         0.3095 
     80 H80        20.2634  -23.2734  -45.2242 H         1 UNK         0.0454 
     81 H81        17.6191  -23.9206  -46.6372 H         1 UNK         0.0851 
     82 H82        18.7809  -22.7094  -47.1584 H         1 UNK         0.0851 
     83 H83        17.9401  -22.5053  -45.6330 H         1 UNK         0.0851 
     84 H84        17.9805  -24.5890  -44.2507 H         1 UNK         0.2976 
     85 H85        22.0146  -26.8005  -45.0359 H         1 UNK         0.3116 
     86 H86        24.7287  -27.0620  -46.1915 H         1 UNK         0.0646 
     87 H87        24.0562  -29.4138  -45.7171 H         1 UNK         0.0847 
     88 H88        23.6263  -28.9823  -44.0630 H         1 UNK         0.0847 
     89 H89        25.3017  -28.9105  -44.5910 H         1 UNK         0.0847 
     90 H90        22.6885  -25.5288  -43.9414 H         1 UNK         0.3040 
     91 H91        22.9047  -24.1844  -42.2389 H         1 UNK         0.1015 
     92 H92        25.8882  -23.9043  -42.8843 H         1 UNK         0.0786 
     93 H93        24.9245  -22.8310  -41.8841 H         1 UNK         0.0786 
     94 H94        24.5988  -22.9421  -43.6059 H         1 UNK         0.0786 
     95 H95        22.6954  -26.7950  -41.6648 H         1 UNK         0.3172 
     96 H96        24.1211  -27.1622  -39.1308 H         1 UNK         0.0595 
     97 H97        24.2780  -29.1915  -41.4439 H         1 UNK         0.0839 
     98 H98        24.8904  -29.4533  -39.8177 H         1 UNK         0.0839 
     99 H99        25.6325  -28.2376  -40.8438 H         1 UNK         0.0839 
    100 H100       23.2597  -29.0778  -38.0001 H         1 UNK         0.2998 
    101 H101       20.3673  -29.1617  -38.0033 H         1 UNK         0.0822 
    102 H102       21.7343  -29.2541  -35.9003 H         1 UNK         0.0787 
    103 H103       20.7405  -30.6904  -36.0536 H         1 UNK         0.0787 
    104 H104       22.4561  -30.7760  -36.4239 H         1 UNK         0.0787 
    105 H105       19.2508  -31.2914  -37.8521 H         1 UNK         0.3055 
    106 H106       19.0368  -32.5407  -40.2736 H         1 UNK         0.1106 
    107 H107       18.2225  -33.5931  -37.5230 H         1 UNK         0.0828 
    108 H108       17.6110  -34.1942  -39.0568 H         1 UNK         0.0828 
    109 H109       17.2692  -32.5430  -38.5723 H         1 UNK         0.0828 
    110 H110       20.3681  -33.7785  -41.4124 H         1 UNK         0.2931 
    111 H111       22.3933  -35.4539  -40.1704 H         1 UNK         0.0412 
    112 H112       19.3436  -37.8660  -41.0921 H         1 UNK         0.3472 
    113 H113       19.1347  -36.1481  -40.8621 H         1 UNK         0.3472 
    114 H114       23.1710  -35.7884  -42.5447 H         1 UNK         0.0970 
    115 H115       23.1990  -34.1596  -41.9719 H         1 UNK         0.0970 
    116 H116       22.4245  -32.4845  -44.6985 H         1 UNK         0.0612 
    117 H117       22.4241  -32.3299  -42.9630 H         1 UNK         0.0612 
@<TRIPOS>BOND
     1    1    2 1    
     2    1   62 1    
     3    1   63 1    
     4    1   64 1    
     5    2    3 2    
     6    2    4 am   BACKBONE|DICT|INTERRES
     7    4    5 1    
     8    4   65 1    
     9    5    6 1    
    10    5   25 1    
    11    5   66 1    
    12    6    7 1    
    13    6   67 1    
    14    6   68 1    
    15    7    8 1    
    16    8    9 1    
    17    8   69 1    
    18    8   70 1    
    19    9   10 ar   
    20    9   14 ar   
    21   10   11 ar   
    22   10   71 1    
    23   11   12 ar   
    24   11   61 1    
    25   12   13 ar   
    26   12   72 1    
    27   13   14 ar   
    28   13   15 1    
    29   14   73 1    
    30   15   16 1    
    31   15   74 1    
    32   15   75 1    
    33   16   17 1    
    34   17   18 1    
    35   17   76 1    
    36   17   77 1    
    37   18   19 1    
    38   18   27 1    
    39   18   78 1    
    40   19   20 am   BACKBONE|DICT|INTERRES
    41   19   79 1    
    42   20   21 2    
    43   20   22 1    
    44   22   23 1    
    45   22   24 1    
    46   22   80 1    
    47   23   81 1    
    48   23   82 1    
    49   23   83 1    
    50   24   25 am   BACKBONE|DICT|INTERRES
    51   24   84 1    
    52   25   26 2    
    53   27   28 2    
    54   27   29 am   BACKBONE|DICT|INTERRES
    55   29   30 1    
    56   29   85 1    
    57   30   31 1    
    58   30   32 1    
    59   30   86 1    
    60   31   87 1    
    61   31   88 1    
    62   31   89 1    
    63   32   33 2    
    64   32   34 am   BACKBONE|DICT|INTERRES
    65   34   35 1    
    66   34   90 1    
    67   35   36 1    
    68   35   37 1    
    69   35   91 1    
    70   36   92 1    
    71   36   93 1    
    72   36   94 1    
    73   37   38 2    
    74   37   39 am   BACKBONE|DICT|INTERRES
    75   39   40 1    
    76   39   95 1    
    77   40   41 1    
    78   40   42 1    
    79   40   96 1    
    80   41   97 1    
    81   41   98 1    
    82   41   99 1    
    83   42   43 2    
    84   42   44 am   BACKBONE|DICT|INTERRES
    85   44   45 1    
    86   44  100 1    
    87   45   46 1    
    88   45   47 1    
    89   45  101 1    
    90   46  102 1    
    91   46  103 1    
    92   46  104 1    
    93   47   48 2    
    94   47   49 am   BACKBONE|DICT|INTERRES
    95   49   50 1    
    96   49  105 1    
    97   50   51 1    
    98   50   52 1    
    99   50  106 1    
   100   51  107 1    
   101   51  108 1    
   102   51  109 1    
   103   52   53 2    
   104   52   54 am   BACKBONE|DICT|INTERRES
   105   54   55 1    
   106   54  110 1    
   107   55   56 1    
   108   55   59 1    
   109   55  111 1    
   110   56   57 am   BACKBONE|DICT|INTERRES
   111   56   58 2    
   112   57  112 1    
   113   57  113 1    
   114   59   60 1    
   115   59  114 1    
   116   59  115 1    
   117   60   61 1    
   118   61  116 1    
   119   61  117 1    
@<TRIPOS>SUBSTRUCTURE
     1 UNK         1 GROUP             0       ****    0 ROOT    
