@<TRIPOS>MOLECULE
3R8
117   119    1
SMALL
USER_CHARGES


@<TRIPOS>ATOM
      1 CA         19.8550  -29.0799  -41.9524 C.3       0 UNK        -0.2013 
      2 C          18.7957  -27.9977  -42.0619 C.2       0 UNK         0.4866 
      3 O          18.6271  -27.2279  -41.1170 O.2       0 UNK        -0.5176 
      4 N          18.0888  -27.9233  -43.2005 N.am      1 UNK        -0.4884 
      5 CA         17.1307  -26.8561  -43.5106 C.3       1 UNK         0.0853 
      6 C6         15.9811  -27.3391  -44.4439 C.3       10 UNK        -0.0849 
      7 S7         16.4340  -27.8899  -46.1325 S.3       10 UNK        -0.2776 
      8 C8         16.2832  -29.7034  -46.0514 C.3       10 UNK         0.0316 
      9 C9         17.5626  -30.3721  -45.5678 C.ar      10 UNK        -0.0863 
     10 C10        17.5246  -31.2880  -44.5134 C.ar      10 UNK        -0.1009 
     11 C11        18.6882  -31.9445  -44.1014 C.ar      10 UNK        -0.0712 
     12 C12        19.9006  -31.6650  -44.7402 C.ar      10 UNK        -0.0894 
     13 C13        19.9541  -30.7546  -45.7998 C.ar      10 UNK        -0.0745 
     14 C14        18.7772  -30.1234  -46.2158 C.ar      10 UNK        -0.0972 
     15 C15        21.2741  -30.5117  -46.5264 C.3       10 UNK         0.0209 
     16 S16        21.6090  -28.7532  -46.8728 S.3       10 UNK        -0.2568 
     17 C17        21.9895  -28.1303  -45.2050 C.3       10 UNK        -0.0983 
     18 CA         21.9915  -26.5837  -45.1536 C.3       3 UNK         0.0876 
     19 N          20.6751  -26.0399  -45.5005 N.am      3 UNK        -0.4424 
     20 C          20.3845  -24.7532  -45.7411 C.2       2 UNK         0.4918 
     21 O          21.2241  -23.8545  -45.7876 O.2       2 UNK        -0.4875 
     22 CA         18.8929  -24.4110  -45.9321 C.3       2 UNK         0.0481 
     23 CB         18.5509  -24.3157  -47.4270 C.3       2 UNK        -0.1831 
     24 N          18.0015  -25.3870  -45.2941 N.am      2 UNK        -0.4498 
     25 C          17.9047  -25.6002  -43.9755 C.2       1 UNK         0.5027 
     26 O          18.4679  -24.8884  -43.1429 O.2       1 UNK        -0.4969 
     27 C          22.4980  -26.0843  -43.7820 C.2       3 UNK         0.5005 
     28 O          23.7130  -26.0115  -43.5859 O.2       3 UNK        -0.5279 
     29 N          21.5670  -25.7335  -42.8772 N.am      4 UNK        -0.4463 
     30 CA         21.7707  -25.1052  -41.5686 C.3       4 UNK         0.0283 
     31 CB         21.9959  -23.5888  -41.7605 C.3       4 UNK        -0.1875 
     32 C          22.8576  -25.7986  -40.7239 C.2       4 UNK         0.4949 
     33 O          22.6492  -26.9294  -40.2835 O.2       4 UNK        -0.5039 
     34 N          24.0018  -25.1246  -40.5404 N.am      5 UNK        -0.4663 
     35 CA         25.1583  -25.5681  -39.7566 C.3       5 UNK         0.0242 
     36 CB         26.1878  -24.4274  -39.7025 C.3       5 UNK        -0.1982 
     37 C          25.8237  -26.8690  -40.2438 C.2       5 UNK         0.5017 
     38 O          26.5320  -27.4959  -39.4551 O.2       5 UNK        -0.5012 
     39 N          25.5847  -27.2709  -41.5027 N.am      6 UNK        -0.4439 
     40 CA         26.0197  -28.5667  -42.0375 C.3       6 UNK         0.0297 
     41 CB         25.9448  -28.5483  -43.5707 C.3       6 UNK        -0.2006 
     42 C          25.2332  -29.7608  -41.4566 C.2       6 UNK         0.4892 
     43 O          25.7373  -30.8830  -41.5158 O.2       6 UNK        -0.5089 
     44 N          24.0492  -29.4956  -40.8796 N.am      7 UNK        -0.4243 
     45 CA         23.1927  -30.4190  -40.1330 C.3       7 UNK         0.0196 
     46 CB         23.8465  -30.7693  -38.7757 C.3       7 UNK        -0.2007 
     47 C          22.7472  -31.6396  -40.9625 C.2       7 UNK         0.5020 
     48 O          22.0488  -31.4577  -41.9577 O.2       7 UNK        -0.5147 
     49 N          23.1052  -32.8488  -40.5027 N.am      8 UNK        -0.4734 
     50 CA         22.6914  -34.1790  -40.9849 C.3       8 UNK         0.0238 
     51 CB         22.9378  -34.3545  -42.4989 C.3       8 UNK        -0.1912 
     52 C          21.2570  -34.5793  -40.5800 C.2       8 UNK         0.5038 
     53 O          20.8310  -35.6891  -40.9032 O.2       8 UNK        -0.5046 
     54 N          20.5547  -33.7013  -39.8569 N.am      9 UNK        -0.4200 
     55 CA         19.2037  -33.8992  -39.3126 C.3       9 UNK         0.0839 
     56 C          18.9190  -33.0165  -38.0626 C.2       9 UNK         0.5513 
     57 N          19.9307  -32.4767  -37.3907 N.am      9 UNK        -0.7519 
     58 O          17.7682  -32.8325  -37.6745 O.2       9 UNK        -0.4960 
     59 C59        18.0926  -33.8373  -40.3992 C.3       10 UNK        -0.0876 
     60 S60        18.1144  -32.3104  -41.4032 S.3       10 UNK        -0.2414 
     61 C61        18.6255  -32.9985  -43.0070 C.3       10 UNK         0.0169 
     62 H62        19.6627  -29.7113  -41.0859 H         1 UNK         0.0903 
     63 H63        19.8810  -29.7168  -42.8328 H         1 UNK         0.0903 
     64 H64        20.8410  -28.6319  -41.8308 H         1 UNK         0.0903 
     65 H65        18.2352  -28.6074  -43.9317 H         1 UNK         0.3096 
     66 H66        16.6460  -26.5612  -42.5765 H         1 UNK         0.1121 
     67 H67        15.4392  -28.1447  -43.9463 H         1 UNK         0.0849 
     68 H68        15.2483  -26.5373  -44.5520 H         1 UNK         0.0849 
     69 H69        15.4280  -29.9790  -45.4325 H         1 UNK         0.0865 
     70 H70        16.0624  -30.0757  -47.0528 H         1 UNK         0.0865 
     71 H71        16.5867  -31.5109  -44.0227 H         1 UNK         0.1346 
     72 H72        20.8019  -32.1708  -44.4211 H         1 UNK         0.1412 
     73 H73        18.8038  -29.4401  -47.0538 H         1 UNK         0.1426 
     74 H74        21.2492  -31.0528  -47.4730 H         1 UNK         0.0716 
     75 H75        22.1113  -30.9213  -45.9586 H         1 UNK         0.0716 
     76 H76        21.2674  -28.5381  -44.4965 H         1 UNK         0.0695 
     77 H77        22.9600  -28.5354  -44.9218 H         1 UNK         0.0695 
     78 H78        22.7023  -26.2169  -45.8976 H         1 UNK         0.0983 
     79 H79        19.9218  -26.7090  -45.5438 H         1 UNK         0.3095 
     80 H80        18.7134  -23.4362  -45.4740 H         1 UNK         0.0454 
     81 H81        18.6982  -25.2684  -47.9375 H         1 UNK         0.0851 
     82 H82        17.5157  -24.0098  -47.5787 H         1 UNK         0.0851 
     83 H83        19.1815  -23.5780  -47.9252 H         1 UNK         0.0851 
     84 H84        17.5045  -26.0259  -45.9051 H         1 UNK         0.2976 
     85 H85        20.5959  -25.8253  -43.1449 H         1 UNK         0.3116 
     86 H86        20.8360  -25.2317  -41.0198 H         1 UNK         0.0646 
     87 H87        22.1245  -23.0803  -40.8038 H         1 UNK         0.0847 
     88 H88        21.1352  -23.1304  -42.2483 H         1 UNK         0.0847 
     89 H89        22.8693  -23.3753  -42.3780 H         1 UNK         0.0847 
     90 H90        24.0849  -24.2203  -40.9820 H         1 UNK         0.3040 
     91 H91        24.8053  -25.7596  -38.7409 H         1 UNK         0.1015 
     92 H92        25.7625  -23.5276  -39.2574 H         1 UNK         0.0786 
     93 H93        26.5570  -24.1705  -40.6963 H         1 UNK         0.0786 
     94 H94        27.0512  -24.7070  -39.0967 H         1 UNK         0.0786 
     95 H95        24.9887  -26.7011  -42.0973 H         1 UNK         0.3172 
     96 H96        27.0669  -28.7091  -41.7620 H         1 UNK         0.0595 
     97 H97        26.3052  -29.4880  -43.9916 H         1 UNK         0.0839 
     98 H98        26.5554  -27.7485  -43.9899 H         1 UNK         0.0839 
     99 H99        24.9243  -28.4067  -43.9175 H         1 UNK         0.0839 
    100 H100       23.7200  -28.5352  -40.8899 H         1 UNK         0.2998 
    101 H101       22.2795  -29.8628  -39.9152 H         1 UNK         0.0822 
    102 H102       24.0625  -29.8643  -38.2072 H         1 UNK         0.0787 
    103 H103       23.1849  -31.3774  -38.1576 H         1 UNK         0.0787 
    104 H104       24.7873  -31.3080  -38.8960 H         1 UNK         0.0787 
    105 H105       23.7039  -32.8622  -39.6878 H         1 UNK         0.3055 
    106 H106       23.3430  -34.8886  -40.4722 H         1 UNK         0.1106 
    107 H107       22.2394  -33.7702  -43.0976 H         1 UNK         0.0828 
    108 H108       23.9494  -34.0567  -42.7745 H         1 UNK         0.0828 
    109 H109       22.8151  -35.3972  -42.7939 H         1 UNK         0.0828 
    110 H110       20.9621  -32.7965  -39.6785 H         1 UNK         0.2931 
    111 H111       19.1822  -34.9133  -38.9093 H         1 UNK         0.0412 
    112 H112       20.8869  -32.6920  -37.6180 H         1 UNK         0.3472 
    113 H113       19.7259  -31.9133  -36.5798 H         1 UNK         0.3472 
    114 H114       18.1899  -34.7028  -41.0558 H         1 UNK         0.0970 
    115 H115       17.1034  -33.9406  -39.9501 H         1 UNK         0.0970 
    116 H116       19.5938  -33.4867  -42.8877 H         1 UNK         0.0612 
    117 H117       17.9199  -33.7743  -43.3077 H         1 UNK         0.0612 
@<TRIPOS>BOND
     1    1    2 1    
     2    1   62 1    
     3    1   63 1    
     4    1   64 1    
     5    2    3 2    
     6    2    4 am   BACKBONE|DICT|INTERRES
     7    4    5 1    
     8    4   65 1    
     9    5    6 1    
    10    5   25 1    
    11    5   66 1    
    12    6    7 1    
    13    6   67 1    
    14    6   68 1    
    15    7    8 1    
    16    8    9 1    
    17    8   69 1    
    18    8   70 1    
    19    9   10 ar   
    20    9   14 ar   
    21   10   11 ar   
    22   10   71 1    
    23   11   12 ar   
    24   11   61 1    
    25   12   13 ar   
    26   12   72 1    
    27   13   14 ar   
    28   13   15 1    
    29   14   73 1    
    30   15   16 1    
    31   15   74 1    
    32   15   75 1    
    33   16   17 1    
    34   17   18 1    
    35   17   76 1    
    36   17   77 1    
    37   18   19 1    
    38   18   27 1    
    39   18   78 1    
    40   19   20 am   BACKBONE|DICT|INTERRES
    41   19   79 1    
    42   20   21 2    
    43   20   22 1    
    44   22   23 1    
    45   22   24 1    
    46   22   80 1    
    47   23   81 1    
    48   23   82 1    
    49   23   83 1    
    50   24   25 am   BACKBONE|DICT|INTERRES
    51   24   84 1    
    52   25   26 2    
    53   27   28 2    
    54   27   29 am   BACKBONE|DICT|INTERRES
    55   29   30 1    
    56   29   85 1    
    57   30   31 1    
    58   30   32 1    
    59   30   86 1    
    60   31   87 1    
    61   31   88 1    
    62   31   89 1    
    63   32   33 2    
    64   32   34 am   BACKBONE|DICT|INTERRES
    65   34   35 1    
    66   34   90 1    
    67   35   36 1    
    68   35   37 1    
    69   35   91 1    
    70   36   92 1    
    71   36   93 1    
    72   36   94 1    
    73   37   38 2    
    74   37   39 am   BACKBONE|DICT|INTERRES
    75   39   40 1    
    76   39   95 1    
    77   40   41 1    
    78   40   42 1    
    79   40   96 1    
    80   41   97 1    
    81   41   98 1    
    82   41   99 1    
    83   42   43 2    
    84   42   44 am   BACKBONE|DICT|INTERRES
    85   44   45 1    
    86   44  100 1    
    87   45   46 1    
    88   45   47 1    
    89   45  101 1    
    90   46  102 1    
    91   46  103 1    
    92   46  104 1    
    93   47   48 2    
    94   47   49 am   BACKBONE|DICT|INTERRES
    95   49   50 1    
    96   49  105 1    
    97   50   51 1    
    98   50   52 1    
    99   50  106 1    
   100   51  107 1    
   101   51  108 1    
   102   51  109 1    
   103   52   53 2    
   104   52   54 am   BACKBONE|DICT|INTERRES
   105   54   55 1    
   106   54  110 1    
   107   55   56 1    
   108   55   59 1    
   109   55  111 1    
   110   56   57 am   BACKBONE|DICT|INTERRES
   111   56   58 2    
   112   57  112 1    
   113   57  113 1    
   114   59   60 1    
   115   59  114 1    
   116   59  115 1    
   117   60   61 1    
   118   61  116 1    
   119   61  117 1    
@<TRIPOS>SUBSTRUCTURE
     1 UNK         1 GROUP             0       ****    0 ROOT    
