@<TRIPOS>MOLECULE
3R8
117   119    1
SMALL
USER_CHARGES


@<TRIPOS>ATOM
      1 CA         15.2814  -23.5960  -41.1291 C.3       0 UNK        -0.2013 
      2 C          15.8999  -23.8427  -42.4971 C.2       0 UNK         0.4866 
      3 O          16.0798  -22.8987  -43.2676 O.2       0 UNK        -0.5176 
      4 N          16.2176  -25.1052  -42.8081 N.am      1 UNK        -0.4884 
      5 CA         16.8705  -25.5263  -44.0532 C.3       1 UNK         0.0853 
      6 C6         16.8035  -27.0638  -44.2511 C.3       10 UNK        -0.0849 
      7 S7         15.1171  -27.7562  -44.0933 S.3       10 UNK        -0.2776 
      8 C8         15.1320  -29.1530  -45.2707 C.3       10 UNK         0.0316 
      9 C9         16.3621  -30.0388  -45.1140 C.ar      10 UNK        -0.0863 
     10 C10        16.5749  -30.7631  -43.9350 C.ar      10 UNK        -0.1009 
     11 C11        17.7457  -31.5096  -43.7627 C.ar      10 UNK        -0.0712 
     12 C12        18.6868  -31.5553  -44.7945 C.ar      10 UNK        -0.0894 
     13 C13        18.4878  -30.8300  -45.9725 C.ar      10 UNK        -0.0745 
     14 C14        17.3163  -30.0879  -46.1347 C.ar      10 UNK        -0.0972 
     15 C15        19.5908  -30.7601  -47.0184 C.3       10 UNK         0.0209 
     16 S16        20.5155  -29.1880  -46.9078 S.3       10 UNK        -0.2568 
     17 C17        20.9436  -29.1516  -45.1318 C.3       10 UNK        -0.0983 
     18 CA         21.6413  -27.8638  -44.6487 C.3       3 UNK         0.0876 
     19 N          20.9000  -26.6761  -45.0794 N.am      3 UNK        -0.4424 
     20 C          21.3123  -25.4047  -45.0221 C.2       2 UNK         0.4918 
     21 O          22.4162  -25.0591  -44.6012 O.2       2 UNK        -0.4875 
     22 CA         20.2840  -24.3394  -45.4548 C.3       2 UNK         0.0481 
     23 CB         20.5016  -23.9566  -46.9269 C.3       2 UNK        -0.1831 
     24 N          18.8816  -24.7451  -45.2558 N.am      2 UNK        -0.4498 
     25 C          18.3433  -25.0639  -44.0681 C.2       1 UNK         0.5027 
     26 O          18.9884  -25.0668  -43.0168 O.2       1 UNK        -0.4969 
     27 C          21.8562  -27.9478  -43.1161 C.2       3 UNK         0.5005 
     28 O          22.5675  -28.8476  -42.6606 O.2       3 UNK        -0.5279 
     29 N          21.2405  -27.0398  -42.3377 N.am      4 UNK        -0.4463 
     30 CA         21.4681  -26.8822  -40.8981 C.3       4 UNK         0.0283 
     31 CB         20.4562  -25.8850  -40.3143 C.3       4 UNK        -0.1875 
     32 C          22.9053  -26.4461  -40.5625 C.2       4 UNK         0.4949 
     33 O          23.3747  -26.7366  -39.4624 O.2       4 UNK        -0.5039 
     34 N          23.5985  -25.8075  -41.5182 N.am      5 UNK        -0.4663 
     35 CA         25.0384  -25.5505  -41.4768 C.3       5 UNK         0.0242 
     36 CB         25.4314  -24.6814  -42.6832 C.3       5 UNK        -0.1982 
     37 C          25.8092  -26.8834  -41.4654 C.2       5 UNK         0.5017 
     38 O          25.8305  -27.5788  -42.4818 O.2       5 UNK        -0.5012 
     39 N          26.3619  -27.2284  -40.2939 N.am      6 UNK        -0.4439 
     40 CA         26.9939  -28.5073  -39.9378 C.3       6 UNK         0.0297 
     41 CB         28.1753  -28.8479  -40.8725 C.3       6 UNK        -0.2006 
     42 C          26.0064  -29.6858  -39.7754 C.2       6 UNK         0.4892 
     43 O          26.4674  -30.8190  -39.6357 O.2       6 UNK        -0.5089 
     44 N          24.6940  -29.3945  -39.7401 N.am      7 UNK        -0.4243 
     45 CA         23.5582  -30.2828  -39.4542 C.3       7 UNK         0.0196 
     46 CB         23.4592  -30.5143  -37.9327 C.3       7 UNK        -0.2007 
     47 C          23.5771  -31.6049  -40.2446 C.2       7 UNK         0.5020 
     48 O          23.8380  -32.6612  -39.6652 O.2       7 UNK        -0.5147 
     49 N          23.3043  -31.5285  -41.5552 N.am      8 UNK        -0.4734 
     50 CA         23.4077  -32.6564  -42.4964 C.3       8 UNK         0.0238 
     51 CB         23.0576  -32.1784  -43.9116 C.3       8 UNK        -0.1912 
     52 C          22.5635  -33.8991  -42.1480 C.2       8 UNK         0.5038 
     53 O          22.9888  -35.0118  -42.4620 O.2       8 UNK        -0.5046 
     54 N          21.4030  -33.6956  -41.5095 N.am      9 UNK        -0.4200 
     55 CA         20.5355  -34.7737  -41.0011 C.3       9 UNK         0.0839 
     56 C          20.9990  -35.3758  -39.6405 C.2       9 UNK         0.5513 
     57 N          22.0463  -34.8746  -38.9960 N.am      9 UNK        -0.7519 
     58 O          20.3968  -36.3328  -39.1604 O.2       9 UNK        -0.4960 
     59 C59        19.0401  -34.3561  -40.9539 C.3       10 UNK        -0.0876 
     60 S60        18.3669  -33.9644  -42.6053 S.3       10 UNK        -0.2414 
     61 C61        18.0485  -32.1823  -42.4307 C.3       10 UNK         0.0169 
     62 H62        15.9093  -22.9188  -40.5507 H         1 UNK         0.0903 
     63 H63        15.1656  -24.5191  -40.5614 H         1 UNK         0.0903 
     64 H64        14.2978  -23.1398  -41.2384 H         1 UNK         0.0903 
     65 H65        16.0505  -25.8425  -42.1385 H         1 UNK         0.3096 
     66 H66        16.3476  -25.0451  -44.8830 H         1 UNK         0.1121 
     67 H67        17.4373  -27.5783  -43.5250 H         1 UNK         0.0849 
     68 H68        17.1983  -27.3226  -45.2351 H         1 UNK         0.0849 
     69 H69        14.2344  -29.7544  -45.1207 H         1 UNK         0.0865 
     70 H70        15.0662  -28.7569  -46.2854 H         1 UNK         0.0865 
     71 H71        15.8498  -30.7021  -43.1347 H         1 UNK         0.1346 
     72 H72        19.6054  -32.1076  -44.6524 H         1 UNK         0.1412 
     73 H73        17.1764  -29.5075  -47.0367 H         1 UNK         0.1426 
     74 H74        20.2861  -31.5928  -46.9007 H         1 UNK         0.0716 
     75 H75        19.1613  -30.8553  -48.0167 H         1 UNK         0.0716 
     76 H76        21.5729  -30.0159  -44.9339 H         1 UNK         0.0695 
     77 H77        20.0312  -29.2822  -44.5498 H         1 UNK         0.0695 
     78 H78        22.6328  -27.8159  -45.1038 H         1 UNK         0.0983 
     79 H79        19.9868  -26.8571  -45.4678 H         1 UNK         0.3095 
     80 H80        20.4588  -23.4522  -44.8428 H         1 UNK         0.0454 
     81 H81        19.8486  -23.1366  -47.2259 H         1 UNK         0.0851 
     82 H82        20.3154  -24.7976  -47.5961 H         1 UNK         0.0851 
     83 H83        21.5279  -23.6274  -47.0965 H         1 UNK         0.0851 
     84 H84        18.2985  -24.7686  -46.0808 H         1 UNK         0.2976 
     85 H85        20.6252  -26.3583  -42.7695 H         1 UNK         0.3116 
     86 H86        21.2981  -27.8517  -40.4267 H         1 UNK         0.0646 
     87 H87        19.4306  -26.2124  -40.4863 H         1 UNK         0.0847 
     88 H88        20.5862  -25.7827  -39.2361 H         1 UNK         0.0847 
     89 H89        20.5691  -24.8923  -40.7519 H         1 UNK         0.0847 
     90 H90        23.1389  -25.6305  -42.4024 H         1 UNK         0.3040 
     91 H91        25.2634  -24.9919  -40.5656 H         1 UNK         0.1015 
     92 H92        24.9151  -23.7213  -42.6652 H         1 UNK         0.0786 
     93 H93        25.1926  -25.1694  -43.6295 H         1 UNK         0.0786 
     94 H94        26.5024  -24.4749  -42.6829 H         1 UNK         0.0786 
     95 H95        26.2462  -26.5866  -39.5203 H         1 UNK         0.3172 
     96 H96        27.4139  -28.3479  -38.9436 H         1 UNK         0.0595 
     97 H97        28.8579  -28.0047  -40.9766 H         1 UNK         0.0839 
     98 H98        27.8380  -29.1344  -41.8688 H         1 UNK         0.0839 
     99 H99        28.7546  -29.6841  -40.4792 H         1 UNK         0.0839 
    100 H100       24.4408  -28.4184  -39.8488 H         1 UNK         0.2998 
    101 H101       22.6595  -29.7479  -39.7632 H         1 UNK         0.0822 
    102 H102       23.3387  -29.5725  -37.3971 H         1 UNK         0.0787 
    103 H103       22.6001  -31.1398  -37.6864 H         1 UNK         0.0787 
    104 H104       24.3480  -31.0109  -37.5412 H         1 UNK         0.0787 
    105 H105       23.1006  -30.6142  -41.9552 H         1 UNK         0.3055 
    106 H106       24.4538  -32.9705  -42.4923 H         1 UNK         0.1106 
    107 H107       23.6183  -31.2851  -44.1880 H         1 UNK         0.0828 
    108 H108       23.2865  -32.9480  -44.6500 H         1 UNK         0.0828 
    109 H109       21.9939  -31.9600  -43.9947 H         1 UNK         0.0828 
    110 H110       21.1408  -32.7511  -41.2739 H         1 UNK         0.2931 
    111 H111       20.5994  -35.6037  -41.7078 H         1 UNK         0.0412 
    112 H112       22.3236  -35.2897  -38.1208 H         1 UNK         0.3472 
    113 H113       22.5855  -34.1005  -39.3728 H         1 UNK         0.3472 
    114 H114       18.4297  -35.1669  -40.5515 H         1 UNK         0.0970 
    115 H115       18.8983  -33.5138  -40.2746 H         1 UNK         0.0970 
    116 H116       18.9247  -31.7001  -41.9948 H         1 UNK         0.0612 
    117 H117       17.2283  -32.0384  -41.7257 H         1 UNK         0.0612 
@<TRIPOS>BOND
     1    1    2 1    
     2    1   62 1    
     3    1   63 1    
     4    1   64 1    
     5    2    3 2    
     6    2    4 am   BACKBONE|DICT|INTERRES
     7    4    5 1    
     8    4   65 1    
     9    5    6 1    
    10    5   25 1    
    11    5   66 1    
    12    6    7 1    
    13    6   67 1    
    14    6   68 1    
    15    7    8 1    
    16    8    9 1    
    17    8   69 1    
    18    8   70 1    
    19    9   10 ar   
    20    9   14 ar   
    21   10   11 ar   
    22   10   71 1    
    23   11   12 ar   
    24   11   61 1    
    25   12   13 ar   
    26   12   72 1    
    27   13   14 ar   
    28   13   15 1    
    29   14   73 1    
    30   15   16 1    
    31   15   74 1    
    32   15   75 1    
    33   16   17 1    
    34   17   18 1    
    35   17   76 1    
    36   17   77 1    
    37   18   19 1    
    38   18   27 1    
    39   18   78 1    
    40   19   20 am   BACKBONE|DICT|INTERRES
    41   19   79 1    
    42   20   21 2    
    43   20   22 1    
    44   22   23 1    
    45   22   24 1    
    46   22   80 1    
    47   23   81 1    
    48   23   82 1    
    49   23   83 1    
    50   24   25 am   BACKBONE|DICT|INTERRES
    51   24   84 1    
    52   25   26 2    
    53   27   28 2    
    54   27   29 am   BACKBONE|DICT|INTERRES
    55   29   30 1    
    56   29   85 1    
    57   30   31 1    
    58   30   32 1    
    59   30   86 1    
    60   31   87 1    
    61   31   88 1    
    62   31   89 1    
    63   32   33 2    
    64   32   34 am   BACKBONE|DICT|INTERRES
    65   34   35 1    
    66   34   90 1    
    67   35   36 1    
    68   35   37 1    
    69   35   91 1    
    70   36   92 1    
    71   36   93 1    
    72   36   94 1    
    73   37   38 2    
    74   37   39 am   BACKBONE|DICT|INTERRES
    75   39   40 1    
    76   39   95 1    
    77   40   41 1    
    78   40   42 1    
    79   40   96 1    
    80   41   97 1    
    81   41   98 1    
    82   41   99 1    
    83   42   43 2    
    84   42   44 am   BACKBONE|DICT|INTERRES
    85   44   45 1    
    86   44  100 1    
    87   45   46 1    
    88   45   47 1    
    89   45  101 1    
    90   46  102 1    
    91   46  103 1    
    92   46  104 1    
    93   47   48 2    
    94   47   49 am   BACKBONE|DICT|INTERRES
    95   49   50 1    
    96   49  105 1    
    97   50   51 1    
    98   50   52 1    
    99   50  106 1    
   100   51  107 1    
   101   51  108 1    
   102   51  109 1    
   103   52   53 2    
   104   52   54 am   BACKBONE|DICT|INTERRES
   105   54   55 1    
   106   54  110 1    
   107   55   56 1    
   108   55   59 1    
   109   55  111 1    
   110   56   57 am   BACKBONE|DICT|INTERRES
   111   56   58 2    
   112   57  112 1    
   113   57  113 1    
   114   59   60 1    
   115   59  114 1    
   116   59  115 1    
   117   60   61 1    
   118   61  116 1    
   119   61  117 1    
@<TRIPOS>SUBSTRUCTURE
     1 UNK         1 GROUP             0       ****    0 ROOT    
