@<TRIPOS>MOLECULE
3R8
117   119    1
SMALL
USER_CHARGES


@<TRIPOS>ATOM
      1 CA         17.9696  -22.9016  -48.1863 C.3       0 UNK        -0.2013 
      2 C          18.5371  -24.3075  -48.0612 C.2       0 UNK         0.4866 
      3 O          19.6334  -24.5708  -48.5556 O.2       0 UNK        -0.5176 
      4 N          17.7993  -25.2133  -47.4044 N.am      1 UNK        -0.4884 
      5 CA         18.1971  -26.6109  -47.1797 C.3       1 UNK         0.0853 
      6 C6         16.9678  -27.4877  -46.8265 C.3       10 UNK        -0.0849 
      7 S7         17.1773  -29.2287  -47.3330 S.3       10 UNK        -0.2776 
      8 C8         15.7707  -30.0306  -46.4977 C.3       10 UNK         0.0316 
      9 C9         15.9676  -30.0944  -44.9900 C.ar      10 UNK        -0.0863 
     10 C10        16.7921  -31.0739  -44.4280 C.ar      10 UNK        -0.1009 
     11 C11        16.9891  -31.1260  -43.0446 C.ar      10 UNK        -0.0712 
     12 C12        16.3460  -30.1982  -42.2205 C.ar      10 UNK        -0.0894 
     13 C13        15.5391  -29.2009  -42.7746 C.ar      10 UNK        -0.0745 
     14 C14        15.3380  -29.1654  -44.1569 C.ar      10 UNK        -0.0972 
     15 C15        14.9140  -28.1338  -41.8920 C.3       10 UNK         0.0209 
     16 S16        15.9584  -26.6418  -41.8408 S.3       10 UNK        -0.2568 
     17 C17        17.2420  -27.1139  -40.6301 C.3       10 UNK        -0.0983 
     18 CA         18.5829  -27.5775  -41.2617 C.3       3 UNK         0.0876 
     19 N          19.0987  -26.5962  -42.2269 N.am      3 UNK        -0.4424 
     20 C          20.1261  -26.7850  -43.0649 C.2       2 UNK         0.4918 
     21 O          20.8471  -27.7804  -43.0556 O.2       2 UNK        -0.4875 
     22 CA         20.3594  -25.6625  -44.0912 C.3       2 UNK         0.0481 
     23 CB         21.8207  -25.5940  -44.5822 C.3       2 UNK        -0.1831 
     24 N          19.4211  -25.7644  -45.2154 N.am      2 UNK        -0.4498 
     25 C          19.3220  -26.7500  -46.1256 C.2       1 UNK         0.5027 
     26 O          20.0742  -27.7231  -46.1779 O.2       1 UNK        -0.4969 
     27 C          19.5708  -27.9740  -40.1377 C.2       3 UNK         0.5005 
     28 O          19.3104  -28.9521  -39.4343 O.2       3 UNK        -0.5279 
     29 N          20.6499  -27.2019  -39.9444 N.am      4 UNK        -0.4463 
     30 CA         21.6877  -27.4551  -38.9454 C.3       4 UNK         0.0283 
     31 CB         22.5972  -26.2203  -38.8324 C.3       4 UNK        -0.1875 
     32 C          22.5178  -28.7002  -39.2950 C.2       4 UNK         0.4949 
     33 O          23.0239  -28.7999  -40.4140 O.2       4 UNK        -0.5039 
     34 N          22.7080  -29.5860  -38.3078 N.am      5 UNK        -0.4663 
     35 CA         23.4768  -30.8335  -38.4266 C.3       5 UNK         0.0242 
     36 CB         23.2874  -31.6626  -37.1458 C.3       5 UNK        -0.1982 
     37 C          24.9767  -30.6337  -38.7234 C.2       5 UNK         0.5017 
     38 O          25.6310  -31.5612  -39.1998 O.2       5 UNK        -0.5012 
     39 N          25.4942  -29.4325  -38.4354 N.am      6 UNK        -0.4439 
     40 CA         26.8469  -29.0007  -38.7855 C.3       6 UNK         0.0297 
     41 CB         27.2664  -27.8638  -37.8387 C.3       6 UNK        -0.2006 
     42 C          26.9750  -28.5468  -40.2528 C.2       6 UNK         0.4892 
     43 O          28.0983  -28.4967  -40.7556 O.2       6 UNK        -0.5089 
     44 N          25.8539  -28.1988  -40.9021 N.am      7 UNK        -0.4243 
     45 CA         25.8165  -27.6786  -42.2693 C.3       7 UNK         0.0196 
     46 CB         24.8298  -26.5016  -42.3425 C.3       7 UNK        -0.2007 
     47 C          25.4294  -28.7677  -43.2776 C.2       7 UNK         0.5020 
     48 O          26.0700  -28.8695  -44.3244 O.2       7 UNK        -0.5147 
     49 N          24.3993  -29.5588  -42.9577 N.am      8 UNK        -0.4734 
     50 CA         23.8768  -30.6343  -43.8015 C.3       8 UNK         0.0238 
     51 CB         22.9454  -30.0511  -44.8886 C.3       8 UNK        -0.1912 
     52 C          23.2030  -31.6973  -42.9188 C.2       8 UNK         0.5038 
     53 O          23.5775  -31.8422  -41.7550 O.2       8 UNK        -0.5046 
     54 N          22.2358  -32.4311  -43.4853 N.am      9 UNK        -0.4200 
     55 CA         21.4050  -33.4470  -42.8097 C.3       9 UNK         0.0839 
     56 C          22.1626  -34.7457  -42.3969 C.2       9 UNK         0.5513 
     57 N          23.3507  -35.0142  -42.9252 N.am      9 UNK        -0.7519 
     58 O          21.6536  -35.5431  -41.6130 O.2       9 UNK        -0.4960 
     59 C59        20.5432  -32.8646  -41.6493 C.3       10 UNK        -0.0876 
     60 S60        19.5654  -31.4109  -42.1575 S.3       10 UNK        -0.2414 
     61 C61        17.9324  -32.1534  -42.4427 C.3       10 UNK         0.0169 
     62 H62        17.8580  -22.6346  -49.2368 H         1 UNK         0.0903 
     63 H63        16.9945  -22.8099  -47.7083 H         1 UNK         0.0903 
     64 H64        18.6438  -22.1823  -47.7220 H         1 UNK         0.0903 
     65 H65        16.9005  -24.9418  -47.0299 H         1 UNK         0.3096 
     66 H66        18.6119  -26.9730  -48.1239 H         1 UNK         0.1121 
     67 H67        16.7406  -27.4253  -45.7613 H         1 UNK         0.0849 
     68 H68        16.0796  -27.1207  -47.3438 H         1 UNK         0.0849 
     69 H69        14.8481  -29.5040  -46.7476 H         1 UNK         0.0865 
     70 H70        15.6571  -31.0420  -46.8908 H         1 UNK         0.0865 
     71 H71        17.2980  -31.7813  -45.0710 H         1 UNK         0.1346 
     72 H72        16.5139  -30.2252  -41.1522 H         1 UNK         0.1412 
     73 H73        14.7134  -28.3934  -44.5858 H         1 UNK         0.1426 
     74 H74        14.7410  -28.5117  -40.8832 H         1 UNK         0.0716 
     75 H75        13.9333  -27.8621  -42.2854 H         1 UNK         0.0716 
     76 H76        16.8382  -27.8895  -39.9766 H         1 UNK         0.0695 
     77 H77        17.4126  -26.2475  -39.9880 H         1 UNK         0.0695 
     78 H78        18.3994  -28.4905  -41.8293 H         1 UNK         0.0983 
     79 H79        18.5491  -25.7540  -42.3178 H         1 UNK         0.3095 
     80 H80        20.1431  -24.7148  -43.5956 H         1 UNK         0.0454 
     81 H81        22.1528  -26.5324  -45.0279 H         1 UNK         0.0851 
     82 H82        22.4912  -25.3753  -43.7520 H         1 UNK         0.0851 
     83 H83        21.9545  -24.8059  -45.3230 H         1 UNK         0.0851 
     84 H84        18.7474  -25.0151  -45.2871 H         1 UNK         0.2976 
     85 H85        20.8103  -26.4429  -40.5890 H         1 UNK         0.3116 
     86 H86        21.1979  -27.6094  -37.9814 H         1 UNK         0.0646 
     87 H87        23.1034  -26.0015  -39.7733 H         1 UNK         0.0847 
     88 H88        23.3684  -26.3695  -38.0756 H         1 UNK         0.0847 
     89 H89        22.0309  -25.3349  -38.5430 H         1 UNK         0.0847 
     90 H90        22.2618  -29.4185  -37.4167 H         1 UNK         0.3040 
     91 H91        23.0582  -31.3977  -39.2618 H         1 UNK         0.1015 
     92 H92        23.6662  -31.1402  -36.2664 H         1 UNK         0.0786 
     93 H93        23.8187  -32.6131  -37.2143 H         1 UNK         0.0786 
     94 H94        22.2361  -31.8948  -36.9746 H         1 UNK         0.0786 
     95 H95        24.8858  -28.7464  -38.0138 H         1 UNK         0.3172 
     96 H96        27.5342  -29.8364  -38.6367 H         1 UNK         0.0595 
     97 H97        26.6199  -26.9912  -37.9410 H         1 UNK         0.0839 
     98 H98        28.2864  -27.5384  -38.0485 H         1 UNK         0.0839 
     99 H99        27.2393  -28.1834  -36.7968 H         1 UNK         0.0839 
    100 H100       24.9541  -28.3492  -40.4583 H         1 UNK         0.2998 
    101 H101       26.8013  -27.2991  -42.5510 H         1 UNK         0.0822 
    102 H102       25.1021  -25.7108  -41.6435 H         1 UNK         0.0787 
    103 H103       24.8266  -26.0646  -43.3418 H         1 UNK         0.0787 
    104 H104       23.8083  -26.8124  -42.1186 H         1 UNK         0.0787 
    105 H105       23.9257  -29.4367  -42.0646 H         1 UNK         0.3055 
    106 H106       24.7174  -31.1307  -44.2912 H         1 UNK         0.1106 
    107 H107       22.6780  -30.8007  -45.6335 H         1 UNK         0.0828 
    108 H108       22.0196  -29.6658  -44.4597 H         1 UNK         0.0828 
    109 H109       23.4209  -29.2321  -45.4282 H         1 UNK         0.0828 
    110 H110       22.0006  -32.2527  -44.4501 H         1 UNK         0.2931 
    111 H111       20.7051  -33.7820  -43.5760 H         1 UNK         0.0412 
    112 H112       23.7773  -34.3735  -43.5748 H         1 UNK         0.3472 
    113 H113       23.8292  -35.8614  -42.6617 H         1 UNK         0.3472 
    114 H114       21.1794  -32.5687  -40.8138 H         1 UNK         0.0970 
    115 H115       19.8663  -33.6230  -41.2519 H         1 UNK         0.0970 
    116 H116       17.5303  -32.5271  -41.4998 H         1 UNK         0.0612 
    117 H117       18.0336  -33.0136  -43.1065 H         1 UNK         0.0612 
@<TRIPOS>BOND
     1    1    2 1    
     2    1   62 1    
     3    1   63 1    
     4    1   64 1    
     5    2    3 2    
     6    2    4 am   BACKBONE|DICT|INTERRES
     7    4    5 1    
     8    4   65 1    
     9    5    6 1    
    10    5   25 1    
    11    5   66 1    
    12    6    7 1    
    13    6   67 1    
    14    6   68 1    
    15    7    8 1    
    16    8    9 1    
    17    8   69 1    
    18    8   70 1    
    19    9   10 ar   
    20    9   14 ar   
    21   10   11 ar   
    22   10   71 1    
    23   11   12 ar   
    24   11   61 1    
    25   12   13 ar   
    26   12   72 1    
    27   13   14 ar   
    28   13   15 1    
    29   14   73 1    
    30   15   16 1    
    31   15   74 1    
    32   15   75 1    
    33   16   17 1    
    34   17   18 1    
    35   17   76 1    
    36   17   77 1    
    37   18   19 1    
    38   18   27 1    
    39   18   78 1    
    40   19   20 am   BACKBONE|DICT|INTERRES
    41   19   79 1    
    42   20   21 2    
    43   20   22 1    
    44   22   23 1    
    45   22   24 1    
    46   22   80 1    
    47   23   81 1    
    48   23   82 1    
    49   23   83 1    
    50   24   25 am   BACKBONE|DICT|INTERRES
    51   24   84 1    
    52   25   26 2    
    53   27   28 2    
    54   27   29 am   BACKBONE|DICT|INTERRES
    55   29   30 1    
    56   29   85 1    
    57   30   31 1    
    58   30   32 1    
    59   30   86 1    
    60   31   87 1    
    61   31   88 1    
    62   31   89 1    
    63   32   33 2    
    64   32   34 am   BACKBONE|DICT|INTERRES
    65   34   35 1    
    66   34   90 1    
    67   35   36 1    
    68   35   37 1    
    69   35   91 1    
    70   36   92 1    
    71   36   93 1    
    72   36   94 1    
    73   37   38 2    
    74   37   39 am   BACKBONE|DICT|INTERRES
    75   39   40 1    
    76   39   95 1    
    77   40   41 1    
    78   40   42 1    
    79   40   96 1    
    80   41   97 1    
    81   41   98 1    
    82   41   99 1    
    83   42   43 2    
    84   42   44 am   BACKBONE|DICT|INTERRES
    85   44   45 1    
    86   44  100 1    
    87   45   46 1    
    88   45   47 1    
    89   45  101 1    
    90   46  102 1    
    91   46  103 1    
    92   46  104 1    
    93   47   48 2    
    94   47   49 am   BACKBONE|DICT|INTERRES
    95   49   50 1    
    96   49  105 1    
    97   50   51 1    
    98   50   52 1    
    99   50  106 1    
   100   51  107 1    
   101   51  108 1    
   102   51  109 1    
   103   52   53 2    
   104   52   54 am   BACKBONE|DICT|INTERRES
   105   54   55 1    
   106   54  110 1    
   107   55   56 1    
   108   55   59 1    
   109   55  111 1    
   110   56   57 am   BACKBONE|DICT|INTERRES
   111   56   58 2    
   112   57  112 1    
   113   57  113 1    
   114   59   60 1    
   115   59  114 1    
   116   59  115 1    
   117   60   61 1    
   118   61  116 1    
   119   61  117 1    
@<TRIPOS>SUBSTRUCTURE
     1 UNK         1 GROUP             0       ****    0 ROOT    
