@<TRIPOS>MOLECULE
3R8
117   119    1
SMALL
USER_CHARGES


@<TRIPOS>ATOM
      1 CA         14.8481  -23.1531  -42.6128 C.3       0 UNK        -0.2013 
      2 C          15.5768  -23.5244  -43.8954 C.2       0 UNK         0.4866 
      3 O          15.7670  -22.6707  -44.7618 O.2       0 UNK        -0.5176 
      4 N          15.9890  -24.7922  -44.0239 N.am      1 UNK        -0.4884 
      5 CA         16.7135  -25.3283  -45.1844 C.3       1 UNK         0.0853 
      6 C6         16.5625  -26.8687  -45.2975 C.3       10 UNK        -0.0849 
      7 S7         17.0377  -27.7782  -43.7850 S.3       10 UNK        -0.2776 
      8 C8         16.5924  -29.4903  -44.2323 C.3       10 UNK         0.0316 
      9 C9         17.8262  -30.3499  -44.4765 C.ar      10 UNK        -0.0863 
     10 C10        18.1662  -31.3745  -43.5850 C.ar      10 UNK        -0.1009 
     11 C11        19.3080  -32.1627  -43.7968 C.ar      10 UNK        -0.0712 
     12 C12        20.0965  -31.9107  -44.9229 C.ar      10 UNK        -0.0894 
     13 C13        19.7778  -30.8846  -45.8138 C.ar      10 UNK        -0.0745 
     14 C14        18.6278  -30.1219  -45.5971 C.ar      10 UNK        -0.0972 
     15 C15        20.6847  -30.6038  -47.0035 C.3       10 UNK         0.0209 
     16 S16        22.1379  -29.6071  -46.5308 S.3       10 UNK        -0.2568 
     17 C17        21.3762  -27.9748  -46.2283 C.3       10 UNK        -0.0983 
     18 CA         21.8463  -27.2021  -44.9678 C.3       3 UNK         0.0876 
     19 N          21.0258  -25.9999  -44.8092 N.am      3 UNK        -0.4424 
     20 C          21.2237  -24.9850  -43.9622 C.2       2 UNK         0.4918 
     21 O          22.2127  -24.8846  -43.2371 O.2       2 UNK        -0.4875 
     22 CA         20.1190  -23.9105  -43.8863 C.3       2 UNK         0.0481 
     23 CB         20.4516  -22.7184  -44.8037 C.3       2 UNK        -0.1831 
     24 N          18.7455  -24.3980  -44.1184 N.am      2 UNK        -0.4498 
     25 C          18.1956  -24.8964  -45.2394 C.2       1 UNK         0.5027 
     26 O          18.8209  -25.0559  -46.2885 O.2       1 UNK        -0.4969 
     27 C          21.8905  -28.0418  -43.6676 C.2       3 UNK         0.5005 
     28 O          22.9397  -28.6111  -43.3568 O.2       3 UNK        -0.5279 
     29 N          20.7932  -28.0341  -42.8922 N.am      4 UNK        -0.4463 
     30 CA         20.6981  -28.5527  -41.5242 C.3       4 UNK         0.0283 
     31 CB         19.2180  -28.5829  -41.1031 C.3       4 UNK        -0.1875 
     32 C          21.5443  -27.7135  -40.5466 C.2       4 UNK         0.4949 
     33 O          21.0134  -26.8351  -39.8652 O.2       4 UNK        -0.5039 
     34 N          22.8495  -27.9921  -40.5433 N.am      5 UNK        -0.4663 
     35 CA         23.9396  -27.3401  -39.8150 C.3       5 UNK         0.0242 
     36 CB         23.9109  -25.8008  -39.9400 C.3       5 UNK        -0.1982 
     37 C          25.2635  -27.8706  -40.3771 C.2       5 UNK         0.5017 
     38 O          26.1557  -28.2209  -39.6046 O.2       5 UNK        -0.5012 
     39 N          25.3505  -27.9417  -41.7141 N.am      6 UNK        -0.4439 
     40 CA         26.4362  -28.5930  -42.4460 C.3       6 UNK         0.0297 
     41 CB         26.5317  -28.0031  -43.8631 C.3       6 UNK        -0.2006 
     42 C          26.2063  -30.1105  -42.4943 C.2       6 UNK         0.4892 
     43 O          27.1217  -30.8770  -42.1921 O.2       6 UNK        -0.5089 
     44 N          24.9752  -30.5065  -42.8410 N.am      7 UNK        -0.4243 
     45 CA         24.4767  -31.8736  -42.7399 C.3       7 UNK         0.0196 
     46 CB         23.3576  -32.0607  -43.7710 C.3       7 UNK        -0.2007 
     47 C          23.9478  -32.1392  -41.3230 C.2       7 UNK         0.5020 
     48 O          23.5618  -31.2016  -40.6187 O.2       7 UNK        -0.5147 
     49 N          23.9108  -33.4214  -40.9417 N.am      8 UNK        -0.4734 
     50 CA         23.5182  -33.9126  -39.6163 C.3       8 UNK         0.0238 
     51 CB         24.1302  -35.3117  -39.4092 C.3       8 UNK        -0.1912 
     52 C          21.9933  -33.8921  -39.3759 C.2       8 UNK         0.5038 
     53 O          21.4048  -34.9297  -39.0651 O.2       8 UNK        -0.5046 
     54 N          21.3925  -32.7077  -39.5067 N.am      9 UNK        -0.4200 
     55 CA         20.0082  -32.3895  -39.1392 C.3       9 UNK         0.0839 
     56 C          19.9999  -31.1879  -38.1608 C.2       9 UNK         0.5513 
     57 N          18.9968  -31.1012  -37.2987 N.am      9 UNK        -0.7519 
     58 O          20.8684  -30.3188  -38.1960 O.2       9 UNK        -0.4960 
     59 C59        19.1353  -32.0834  -40.3824 C.3       10 UNK        -0.0876 
     60 S60        18.7384  -33.5657  -41.3653 S.3       10 UNK        -0.2414 
     61 C61        19.7514  -33.2919  -42.8588 C.3       10 UNK         0.0169 
     62 H62        14.7515  -24.0031  -41.9374 H         1 UNK         0.0903 
     63 H63        15.3872  -22.3637  -42.0897 H         1 UNK         0.0903 
     64 H64        13.8475  -22.7878  -42.8425 H         1 UNK         0.0903 
     65 H65        15.8068  -25.4607  -43.2870 H         1 UNK         0.3096 
     66 H66        16.2569  -24.8992  -46.0797 H         1 UNK         0.1121 
     67 H67        15.5195  -27.1043  -45.5157 H         1 UNK         0.0849 
     68 H68        17.1324  -27.2549  -46.1447 H         1 UNK         0.0849 
     69 H69        15.9892  -29.9103  -43.4260 H         1 UNK         0.0865 
     70 H70        15.9575  -29.5038  -45.1192 H         1 UNK         0.0865 
     71 H71        17.5340  -31.5469  -42.7266 H         1 UNK         0.1346 
     72 H72        20.9759  -32.5113  -45.1063 H         1 UNK         0.1412 
     73 H73        18.3630  -29.3365  -46.2905 H         1 UNK         0.1426 
     74 H74        20.1359  -30.0954  -47.7979 H         1 UNK         0.0716 
     75 H75        21.0297  -31.5474  -47.4288 H         1 UNK         0.0716 
     76 H76        21.5674  -27.3643  -47.1122 H         1 UNK         0.0695 
     77 H77        20.2943  -28.0886  -46.1935 H         1 UNK         0.0695 
     78 H78        22.8708  -26.8695  -45.1477 H         1 UNK         0.0983 
     79 H79        20.2142  -25.9238  -45.4158 H         1 UNK         0.3095 
     80 H80        20.1235  -23.5413  -42.8596 H         1 UNK         0.0454 
     81 H81        21.4229  -22.2921  -44.5495 H         1 UNK         0.0851 
     82 H82        20.4923  -23.0082  -45.8540 H         1 UNK         0.0851 
     83 H83        19.7131  -21.9231  -44.7036 H         1 UNK         0.0851 
     84 H84        18.1369  -24.3509  -43.3129 H         1 UNK         0.2976 
     85 H85        19.9855  -27.5323  -43.2307 H         1 UNK         0.3116 
     86 H86        21.0816  -29.5751  -41.5158 H         1 UNK         0.0646 
     87 H87        19.1106  -28.9293  -40.0749 H         1 UNK         0.0847 
     88 H88        18.6382  -29.2542  -41.7338 H         1 UNK         0.0847 
     89 H89        18.7602  -27.5946  -41.1589 H         1 UNK         0.0847 
     90 H90        23.1432  -28.7641  -41.1325 H         1 UNK         0.3040 
     91 H91        23.8700  -27.6238  -38.7633 H         1 UNK         0.1015 
     92 H92        23.0778  -25.3655  -39.3892 H         1 UNK         0.0786 
     93 H93        23.8294  -25.4798  -40.9793 H         1 UNK         0.0786 
     94 H94        24.8200  -25.3574  -39.5311 H         1 UNK         0.0786 
     95 H95        24.5434  -27.6634  -42.2602 H         1 UNK         0.3172 
     96 H96        27.3814  -28.4032  -41.9326 H         1 UNK         0.0595 
     97 H97        27.3381  -28.4744  -44.4265 H         1 UNK         0.0839 
     98 H98        26.7403  -26.9336  -43.8328 H         1 UNK         0.0839 
     99 H99        25.6105  -28.1481  -44.4296 H         1 UNK         0.0839 
    100 H100       24.2751  -29.7987  -43.0562 H         1 UNK         0.2998 
    101 H101       25.2853  -32.5742  -42.9596 H         1 UNK         0.0822 
    102 H102       22.5218  -31.3889  -43.5703 H         1 UNK         0.0787 
    103 H103       23.7108  -31.8578  -44.7823 H         1 UNK         0.0787 
    104 H104       22.9768  -33.0824  -43.7583 H         1 UNK         0.0787 
    105 H105       24.2004  -34.1264  -41.6049 H         1 UNK         0.3055 
    106 H106       23.9569  -33.2509  -38.8655 H         1 UNK         0.1106 
    107 H107       23.7401  -36.0340  -40.1274 H         1 UNK         0.0828 
    108 H108       25.2155  -35.2901  -39.5091 H         1 UNK         0.0828 
    109 H109       23.9091  -35.6925  -38.4111 H         1 UNK         0.0828 
    110 H110       21.9758  -31.9091  -39.7431 H         1 UNK         0.2931 
    111 H111       19.5687  -33.2350  -38.6057 H         1 UNK         0.0412 
    112 H112       18.9666  -30.3207  -36.6611 H         1 UNK         0.3472 
    113 H113       18.2744  -31.8041  -37.2634 H         1 UNK         0.3472 
    114 H114       18.1830  -31.6378  -40.0880 H         1 UNK         0.0970 
    115 H115       19.6296  -31.3493  -41.0167 H         1 UNK         0.0970 
    116 H116       20.7791  -33.1109  -42.5412 H         1 UNK         0.0612 
    117 H117       19.7642  -34.2236  -43.4259 H         1 UNK         0.0612 
@<TRIPOS>BOND
     1    1    2 1    
     2    1   62 1    
     3    1   63 1    
     4    1   64 1    
     5    2    3 2    
     6    2    4 am   BACKBONE|DICT|INTERRES
     7    4    5 1    
     8    4   65 1    
     9    5    6 1    
    10    5   25 1    
    11    5   66 1    
    12    6    7 1    
    13    6   67 1    
    14    6   68 1    
    15    7    8 1    
    16    8    9 1    
    17    8   69 1    
    18    8   70 1    
    19    9   10 ar   
    20    9   14 ar   
    21   10   11 ar   
    22   10   71 1    
    23   11   12 ar   
    24   11   61 1    
    25   12   13 ar   
    26   12   72 1    
    27   13   14 ar   
    28   13   15 1    
    29   14   73 1    
    30   15   16 1    
    31   15   74 1    
    32   15   75 1    
    33   16   17 1    
    34   17   18 1    
    35   17   76 1    
    36   17   77 1    
    37   18   19 1    
    38   18   27 1    
    39   18   78 1    
    40   19   20 am   BACKBONE|DICT|INTERRES
    41   19   79 1    
    42   20   21 2    
    43   20   22 1    
    44   22   23 1    
    45   22   24 1    
    46   22   80 1    
    47   23   81 1    
    48   23   82 1    
    49   23   83 1    
    50   24   25 am   BACKBONE|DICT|INTERRES
    51   24   84 1    
    52   25   26 2    
    53   27   28 2    
    54   27   29 am   BACKBONE|DICT|INTERRES
    55   29   30 1    
    56   29   85 1    
    57   30   31 1    
    58   30   32 1    
    59   30   86 1    
    60   31   87 1    
    61   31   88 1    
    62   31   89 1    
    63   32   33 2    
    64   32   34 am   BACKBONE|DICT|INTERRES
    65   34   35 1    
    66   34   90 1    
    67   35   36 1    
    68   35   37 1    
    69   35   91 1    
    70   36   92 1    
    71   36   93 1    
    72   36   94 1    
    73   37   38 2    
    74   37   39 am   BACKBONE|DICT|INTERRES
    75   39   40 1    
    76   39   95 1    
    77   40   41 1    
    78   40   42 1    
    79   40   96 1    
    80   41   97 1    
    81   41   98 1    
    82   41   99 1    
    83   42   43 2    
    84   42   44 am   BACKBONE|DICT|INTERRES
    85   44   45 1    
    86   44  100 1    
    87   45   46 1    
    88   45   47 1    
    89   45  101 1    
    90   46  102 1    
    91   46  103 1    
    92   46  104 1    
    93   47   48 2    
    94   47   49 am   BACKBONE|DICT|INTERRES
    95   49   50 1    
    96   49  105 1    
    97   50   51 1    
    98   50   52 1    
    99   50  106 1    
   100   51  107 1    
   101   51  108 1    
   102   51  109 1    
   103   52   53 2    
   104   52   54 am   BACKBONE|DICT|INTERRES
   105   54   55 1    
   106   54  110 1    
   107   55   56 1    
   108   55   59 1    
   109   55  111 1    
   110   56   57 am   BACKBONE|DICT|INTERRES
   111   56   58 2    
   112   57  112 1    
   113   57  113 1    
   114   59   60 1    
   115   59  114 1    
   116   59  115 1    
   117   60   61 1    
   118   61  116 1    
   119   61  117 1    
@<TRIPOS>SUBSTRUCTURE
     1 UNK         1 GROUP             0       ****    0 ROOT    
