@<TRIPOS>MOLECULE
3R8
117   119    1
SMALL
USER_CHARGES


@<TRIPOS>ATOM
      1 CA         20.4266  -26.6527  -48.8320 C.3       0 UNK        -0.2013 
      2 C          20.0795  -27.1027  -47.4215 C.2       0 UNK         0.4866 
      3 O          20.9154  -27.6993  -46.7445 O.2       0 UNK        -0.5176 
      4 N          18.8599  -26.8023  -46.9591 N.am      1 UNK        -0.4884 
      5 CA         18.2955  -27.1921  -45.6560 C.3       1 UNK         0.0853 
      6 C6         16.7439  -27.2019  -45.7079 C.3       10 UNK        -0.0849 
      7 S7         16.1181  -28.4241  -46.9137 S.3       10 UNK        -0.2776 
      8 C8         15.4693  -29.7409  -45.8314 C.3       10 UNK         0.0316 
      9 C9         16.5056  -30.2385  -44.8321 C.ar      10 UNK        -0.0863 
     10 C10        17.6040  -30.9890  -45.2641 C.ar      10 UNK        -0.1009 
     11 C11        18.5611  -31.4346  -44.3479 C.ar      10 UNK        -0.0712 
     12 C12        18.4035  -31.1382  -42.9910 C.ar      10 UNK        -0.0894 
     13 C13        17.3148  -30.3823  -42.5466 C.ar      10 UNK        -0.0745 
     14 C14        16.3674  -29.9390  -43.4727 C.ar      10 UNK        -0.0972 
     15 C15        17.1491  -30.0530  -41.0682 C.3       10 UNK         0.0209 
     16 S16        17.9098  -28.4560  -40.6256 S.3       10 UNK        -0.2568 
     17 C17        19.6661  -28.9361  -40.5331 C.3       10 UNK        -0.0983 
     18 CA         20.6727  -27.7659  -40.6192 C.3       3 UNK         0.0876 
     19 N          20.4048  -26.8540  -41.7407 N.am      3 UNK        -0.4424 
     20 C          21.3121  -26.0450  -42.3022 C.2       2 UNK         0.4918 
     21 O          22.4648  -25.9407  -41.8788 O.2       2 UNK        -0.4875 
     22 CA         20.8664  -25.2226  -43.5259 C.3       2 UNK         0.0481 
     23 CB         22.0541  -24.5410  -44.2305 C.3       2 UNK        -0.1831 
     24 N          20.1463  -26.0379  -44.5057 N.am      2 UNK        -0.4498 
     25 C          18.8424  -26.3387  -44.4844 C.2       1 UNK         0.5027 
     26 O          18.0925  -25.9689  -43.5795 O.2       1 UNK        -0.4969 
     27 C          20.9305  -27.0728  -39.2650 C.2       3 UNK         0.5005 
     28 O          21.3781  -27.7317  -38.3249 O.2       3 UNK        -0.5279 
     29 N          20.7175  -25.7518  -39.1977 N.am      4 UNK        -0.4463 
     30 CA         21.1916  -24.8940  -38.1109 C.3       4 UNK         0.0283 
     31 CB         20.4540  -23.5467  -38.1778 C.3       4 UNK        -0.1875 
     32 C          22.7187  -24.6705  -38.1401 C.2       4 UNK         0.4949 
     33 O          23.2792  -24.3020  -37.1075 O.2       4 UNK        -0.5039 
     34 N          23.3582  -24.8709  -39.3032 N.am      5 UNK        -0.4663 
     35 CA         24.7863  -24.6355  -39.5264 C.3       5 UNK         0.0242 
     36 CB         24.9544  -23.5554  -40.6092 C.3       5 UNK        -0.1982 
     37 C          25.5371  -25.9144  -39.9274 C.2       5 UNK         0.5017 
     38 O          26.6156  -26.1630  -39.3867 O.2       5 UNK        -0.5012 
     39 N          24.9848  -26.6887  -40.8709 N.am      6 UNK        -0.4439 
     40 CA         25.6161  -27.8726  -41.4548 C.3       6 UNK         0.0297 
     41 CB         26.6576  -27.4495  -42.5161 C.3       6 UNK        -0.2006 
     42 C          24.5255  -28.8208  -41.9757 C.2       6 UNK         0.4892 
     43 O          23.7733  -29.3560  -41.1627 O.2       6 UNK        -0.5089 
     44 N          24.4670  -29.0275  -43.3005 N.am      7 UNK        -0.4243 
     45 CA         23.4968  -29.8033  -44.0949 C.3       7 UNK         0.0196 
     46 CB         22.0852  -29.2027  -43.9787 C.3       7 UNK        -0.2007 
     47 C          23.4516  -31.3234  -43.8438 C.2       7 UNK         0.5020 
     48 O          23.2387  -32.0692  -44.7994 O.2       7 UNK        -0.5147 
     49 N          23.6431  -31.7557  -42.5921 N.am      8 UNK        -0.4734 
     50 CA         23.5242  -33.1275  -42.0876 C.3       8 UNK         0.0238 
     51 CB         24.5506  -34.0752  -42.7531 C.3       8 UNK        -0.1912 
     52 C          22.0623  -33.6146  -42.1337 C.2       8 UNK         0.5038 
     53 O          21.2259  -33.0154  -41.4552 O.2       8 UNK        -0.5046 
     54 N          21.7863  -34.6839  -42.8948 N.am      9 UNK        -0.4200 
     55 CA         20.5203  -35.4420  -42.9238 C.3       9 UNK         0.0839 
     56 C          20.2488  -36.2166  -41.5959 C.2       9 UNK         0.5513 
     57 N          19.1075  -36.8822  -41.4742 N.am      9 UNK        -0.7519 
     58 O          21.0756  -36.2666  -40.6866 O.2       9 UNK        -0.4960 
     59 C59        19.2935  -34.6047  -43.4011 C.3       10 UNK        -0.0876 
     60 S60        19.4686  -33.9644  -45.1017 S.3       10 UNK        -0.2414 
     61 C61        19.7895  -32.1947  -44.8264 C.3       10 UNK         0.0169 
     62 H62        20.6873  -27.5146  -49.4456 H         1 UNK         0.0903 
     63 H63        19.5965  -26.1340  -49.3111 H         1 UNK         0.0903 
     64 H64        21.2822  -25.9782  -48.8105 H         1 UNK         0.0903 
     65 H65        18.2250  -26.2948  -47.5593 H         1 UNK         0.3096 
     66 H66        18.6227  -28.2124  -45.4418 H         1 UNK         0.1121 
     67 H67        16.3658  -26.2160  -45.9842 H         1 UNK         0.0849 
     68 H68        16.3133  -27.4180  -44.7291 H         1 UNK         0.0849 
     69 H69        14.5809  -29.3712  -45.3168 H         1 UNK         0.0865 
     70 H70        15.1355  -30.5756  -46.4496 H         1 UNK         0.0865 
     71 H71        17.7222  -31.2117  -46.3159 H         1 UNK         0.1346 
     72 H72        19.1390  -31.4899  -42.2809 H         1 UNK         0.1412 
     73 H73        15.5240  -29.3537  -43.1318 H         1 UNK         0.1426 
     74 H74        16.0876  -30.0138  -40.8189 H         1 UNK         0.0716 
     75 H75        17.5740  -30.8460  -40.4507 H         1 UNK         0.0716 
     76 H76        19.8236  -29.5333  -39.6327 H         1 UNK         0.0695 
     77 H77        19.8802  -29.6075  -41.3608 H         1 UNK         0.0695 
     78 H78        21.6314  -28.2287  -40.8419 H         1 UNK         0.0983 
     79 H79        19.4619  -26.8630  -42.1124 H         1 UNK         0.3095 
     80 H80        20.2024  -24.4370  -43.1602 H         1 UNK         0.0454 
     81 H81        21.7223  -23.9430  -45.0792 H         1 UNK         0.0851 
     82 H82        22.5815  -23.8694  -43.5517 H         1 UNK         0.0851 
     83 H83        22.7781  -25.2705  -44.5962 H         1 UNK         0.0851 
     84 H84        20.6940  -26.4476  -45.2572 H         1 UNK         0.2976 
     85 H85        20.3202  -25.2934  -40.0047 H         1 UNK         0.3116 
     86 H86        20.9451  -25.3710  -37.1597 H         1 UNK         0.0646 
     87 H87        20.6609  -23.0170  -39.1086 H         1 UNK         0.0847 
     88 H88        19.3749  -23.6792  -38.0975 H         1 UNK         0.0847 
     89 H89        20.7596  -22.8944  -37.3585 H         1 UNK         0.0847 
     90 H90        22.8308  -25.2036  -40.1031 H         1 UNK         0.3040 
     91 H91        25.2575  -24.2654  -38.6129 H         1 UNK         0.1015 
     92 H92        24.4935  -23.8505  -41.5528 H         1 UNK         0.0786 
     93 H93        26.0094  -23.3604  -40.8071 H         1 UNK         0.0786 
     94 H94        24.5040  -22.6125  -40.2985 H         1 UNK         0.0786 
     95 H95        24.0744  -26.4377  -41.2551 H         1 UNK         0.3172 
     96 H96        26.1374  -28.4198  -40.6665 H         1 UNK         0.0595 
     97 H97        27.1300  -28.3168  -42.9796 H         1 UNK         0.0839 
     98 H98        27.4588  -26.8634  -42.0655 H         1 UNK         0.0839 
     99 H99        26.2145  -26.8403  -43.3051 H         1 UNK         0.0839 
    100 H100       25.1760  -28.5655  -43.8527 H         1 UNK         0.2998 
    101 H101       23.8132  -29.6779  -45.1319 H         1 UNK         0.0822 
    102 H102       21.3981  -29.6784  -44.6791 H         1 UNK         0.0787 
    103 H103       21.6707  -29.3307  -42.9802 H         1 UNK         0.0787 
    104 H104       22.0941  -28.1400  -44.2139 H         1 UNK         0.0787 
    105 H105       23.7354  -31.0303  -41.8826 H         1 UNK         0.3055 
    106 H106       23.7784  -33.0779  -41.0274 H         1 UNK         0.1106 
    107 H107       25.5654  -33.6977  -42.6280 H         1 UNK         0.0828 
    108 H108       24.5231  -35.0652  -42.2956 H         1 UNK         0.0828 
    109 H109       24.3785  -34.2004  -43.8222 H         1 UNK         0.0828 
    110 H110       22.5448  -35.0953  -43.4175 H         1 UNK         0.2931 
    111 H111       20.6876  -36.2237  -43.6657 H         1 UNK         0.0412 
    112 H112       18.9340  -37.3990  -40.6258 H         1 UNK         0.3472 
    113 H113       18.4245  -36.8974  -42.2151 H         1 UNK         0.3472 
    114 H114       19.0833  -33.7957  -42.7039 H         1 UNK         0.0970 
    115 H115       18.3903  -35.2153  -43.4094 H         1 UNK         0.0970 
    116 H116       20.6018  -32.0837  -44.1102 H         1 UNK         0.0612 
    117 H117       20.1479  -31.7554  -45.7585 H         1 UNK         0.0612 
@<TRIPOS>BOND
     1    1    2 1    
     2    1   62 1    
     3    1   63 1    
     4    1   64 1    
     5    2    3 2    
     6    2    4 am   BACKBONE|DICT|INTERRES
     7    4    5 1    
     8    4   65 1    
     9    5    6 1    
    10    5   25 1    
    11    5   66 1    
    12    6    7 1    
    13    6   67 1    
    14    6   68 1    
    15    7    8 1    
    16    8    9 1    
    17    8   69 1    
    18    8   70 1    
    19    9   10 ar   
    20    9   14 ar   
    21   10   11 ar   
    22   10   71 1    
    23   11   12 ar   
    24   11   61 1    
    25   12   13 ar   
    26   12   72 1    
    27   13   14 ar   
    28   13   15 1    
    29   14   73 1    
    30   15   16 1    
    31   15   74 1    
    32   15   75 1    
    33   16   17 1    
    34   17   18 1    
    35   17   76 1    
    36   17   77 1    
    37   18   19 1    
    38   18   27 1    
    39   18   78 1    
    40   19   20 am   BACKBONE|DICT|INTERRES
    41   19   79 1    
    42   20   21 2    
    43   20   22 1    
    44   22   23 1    
    45   22   24 1    
    46   22   80 1    
    47   23   81 1    
    48   23   82 1    
    49   23   83 1    
    50   24   25 am   BACKBONE|DICT|INTERRES
    51   24   84 1    
    52   25   26 2    
    53   27   28 2    
    54   27   29 am   BACKBONE|DICT|INTERRES
    55   29   30 1    
    56   29   85 1    
    57   30   31 1    
    58   30   32 1    
    59   30   86 1    
    60   31   87 1    
    61   31   88 1    
    62   31   89 1    
    63   32   33 2    
    64   32   34 am   BACKBONE|DICT|INTERRES
    65   34   35 1    
    66   34   90 1    
    67   35   36 1    
    68   35   37 1    
    69   35   91 1    
    70   36   92 1    
    71   36   93 1    
    72   36   94 1    
    73   37   38 2    
    74   37   39 am   BACKBONE|DICT|INTERRES
    75   39   40 1    
    76   39   95 1    
    77   40   41 1    
    78   40   42 1    
    79   40   96 1    
    80   41   97 1    
    81   41   98 1    
    82   41   99 1    
    83   42   43 2    
    84   42   44 am   BACKBONE|DICT|INTERRES
    85   44   45 1    
    86   44  100 1    
    87   45   46 1    
    88   45   47 1    
    89   45  101 1    
    90   46  102 1    
    91   46  103 1    
    92   46  104 1    
    93   47   48 2    
    94   47   49 am   BACKBONE|DICT|INTERRES
    95   49   50 1    
    96   49  105 1    
    97   50   51 1    
    98   50   52 1    
    99   50  106 1    
   100   51  107 1    
   101   51  108 1    
   102   51  109 1    
   103   52   53 2    
   104   52   54 am   BACKBONE|DICT|INTERRES
   105   54   55 1    
   106   54  110 1    
   107   55   56 1    
   108   55   59 1    
   109   55  111 1    
   110   56   57 am   BACKBONE|DICT|INTERRES
   111   56   58 2    
   112   57  112 1    
   113   57  113 1    
   114   59   60 1    
   115   59  114 1    
   116   59  115 1    
   117   60   61 1    
   118   61  116 1    
   119   61  117 1    
@<TRIPOS>SUBSTRUCTURE
     1 UNK         1 GROUP             0       ****    0 ROOT    
