@<TRIPOS>MOLECULE
3R8
117   119    1
SMALL
USER_CHARGES


@<TRIPOS>ATOM
      1 CA         16.5887  -27.9189  -41.3426 C.3       0 UNK        -0.2013 
      2 C          16.2647  -26.7423  -42.2484 C.2       0 UNK         0.4866 
      3 O          16.0872  -25.6268  -41.7592 O.2       0 UNK        -0.5176 
      4 N          16.1630  -26.9856  -43.5620 N.am      1 UNK        -0.4884 
      5 CA         15.7202  -25.9994  -44.5590 C.3       1 UNK         0.0853 
      6 C6         15.3352  -26.6530  -45.9104 C.3       10 UNK        -0.0849 
      7 S7         14.1689  -28.0436  -45.7124 S.3       10 UNK        -0.2776 
      8 C8         14.9242  -29.3283  -46.7634 C.3       10 UNK         0.0316 
      9 C9         16.3233  -29.7396  -46.3148 C.ar      10 UNK        -0.0863 
     10 C10        16.5250  -30.3234  -45.0577 C.ar      10 UNK        -0.1009 
     11 C11        17.7996  -30.7563  -44.6793 C.ar      10 UNK        -0.0712 
     12 C12        18.8590  -30.6415  -45.5792 C.ar      10 UNK        -0.0894 
     13 C13        18.6904  -30.0017  -46.8074 C.ar      10 UNK        -0.0745 
     14 C14        17.4152  -29.5601  -47.1747 C.ar      10 UNK        -0.0972 
     15 C15        19.8861  -29.8019  -47.7318 C.3       10 UNK         0.0209 
     16 S16        20.7494  -28.2182  -47.4344 S.3       10 UNK        -0.2568 
     17 C17        21.6069  -28.5193  -45.8430 C.3       10 UNK        -0.0983 
     18 CA         21.7388  -27.2809  -44.9117 C.3       3 UNK         0.0876 
     19 N          20.5451  -26.4255  -44.9514 N.am      3 UNK        -0.4424 
     20 C          20.5072  -25.1256  -44.6260 C.2       2 UNK         0.4918 
     21 O          21.4462  -24.5246  -44.1058 O.2       2 UNK        -0.4875 
     22 CA         19.2041  -24.3744  -44.9247 C.3       2 UNK         0.0481 
     23 CB         19.2520  -23.8200  -46.3641 C.3       2 UNK        -0.1831 
     24 N          18.0430  -25.2444  -44.7189 N.am      2 UNK        -0.4498 
     25 C          16.7557  -24.8827  -44.7952 C.2       1 UNK         0.5027 
     26 O          16.3690  -23.7398  -45.0438 O.2       1 UNK        -0.4969 
     27 C          22.1522  -27.7254  -43.4853 C.2       3 UNK         0.5005 
     28 O          23.0453  -28.5638  -43.3601 O.2       3 UNK        -0.5279 
     29 N          21.5048  -27.1886  -42.4380 N.am      4 UNK        -0.4463 
     30 CA         21.6364  -27.5739  -41.0254 C.3       4 UNK         0.0283 
     31 CB         20.7420  -26.6665  -40.1673 C.3       4 UNK        -0.1875 
     32 C          23.0709  -27.5865  -40.4691 C.2       4 UNK         0.4949 
     33 O          23.3565  -28.3721  -39.5654 O.2       4 UNK        -0.5039 
     34 N          23.9536  -26.7571  -41.0417 N.am      5 UNK        -0.4663 
     35 CA         25.3870  -26.7114  -40.7417 C.3       5 UNK         0.0242 
     36 CB         26.0181  -25.5289  -41.4940 C.3       5 UNK        -0.1982 
     37 C          26.1424  -28.0165  -41.0623 C.2       5 UNK         0.5017 
     38 O          27.1971  -28.2518  -40.4701 O.2       5 UNK        -0.5012 
     39 N          25.6027  -28.8523  -41.9631 N.am      6 UNK        -0.4439 
     40 CA         26.1390  -30.1686  -42.3111 C.3       6 UNK         0.0297 
     41 CB         25.6195  -30.5785  -43.7019 C.3       6 UNK        -0.2006 
     42 C          25.7990  -31.2093  -41.2278 C.2       6 UNK         0.4892 
     43 O          24.9667  -32.0870  -41.4584 O.2       6 UNK        -0.5089 
     44 N          26.4466  -31.0760  -40.0614 N.am      7 UNK        -0.4243 
     45 CA         26.3930  -31.9761  -38.9016 C.3       7 UNK         0.0196 
     46 CB         27.1341  -33.2924  -39.2205 C.3       7 UNK        -0.2007 
     47 C          24.9643  -32.2095  -38.3695 C.2       7 UNK         0.5020 
     48 O          24.5575  -33.3572  -38.1821 O.2       7 UNK        -0.5147 
     49 N          24.2342  -31.1074  -38.1418 N.am      8 UNK        -0.4734 
     50 CA         22.8388  -31.0536  -37.6835 C.3       8 UNK         0.0238 
     51 CB         22.6812  -31.6635  -36.2726 C.3       8 UNK        -0.1912 
     52 C          21.8598  -31.6421  -38.7178 C.2       8 UNK         0.5038 
     53 O          20.9880  -32.4391  -38.3652 O.2       8 UNK        -0.5046 
     54 N          22.0148  -31.2063  -39.9745 N.am      9 UNK        -0.4200 
     55 CA         21.1788  -31.5756  -41.1278 C.3       9 UNK         0.0839 
     56 C          21.3440  -33.0605  -41.5722 C.2       9 UNK         0.5513 
     57 N          22.5515  -33.6082  -41.5437 N.am      9 UNK        -0.7519 
     58 O          20.3863  -33.7274  -41.9554 O.2       9 UNK        -0.4960 
     59 C59        19.6927  -31.1157  -40.9576 C.3       10 UNK        -0.0876 
     60 S60        19.1163  -30.1288  -42.3733 S.3       10 UNK        -0.2414 
     61 C61        18.0762  -31.3078  -43.2907 C.3       10 UNK         0.0169 
     62 H62        17.6189  -27.8574  -40.9956 H         1 UNK         0.0903 
     63 H63        15.9354  -27.9139  -40.4706 H         1 UNK         0.0903 
     64 H64        16.4519  -28.8708  -41.8550 H         1 UNK         0.0903 
     65 H65        16.2956  -27.9250  -43.9116 H         1 UNK         0.3096 
     66 H66        14.8249  -25.5171  -44.1591 H         1 UNK         0.1121 
     67 H67        16.2276  -26.9952  -46.4370 H         1 UNK         0.0849 
     68 H68        14.8675  -25.9158  -46.5661 H         1 UNK         0.0849 
     69 H69        14.2810  -30.2094  -46.7542 H         1 UNK         0.0865 
     70 H70        14.9349  -28.9746  -47.7956 H         1 UNK         0.0865 
     71 H71        15.6913  -30.4370  -44.3779 H         1 UNK         0.1346 
     72 H72        19.8299  -31.0184  -45.2913 H         1 UNK         0.1412 
     73 H73        17.2734  -29.0882  -48.1377 H         1 UNK         0.1426 
     74 H74        20.5934  -30.6256  -47.6223 H         1 UNK         0.0716 
     75 H75        19.5532  -29.8270  -48.7705 H         1 UNK         0.0716 
     76 H76        22.5972  -28.9188  -46.0695 H         1 UNK         0.0695 
     77 H77        21.0941  -29.3132  -45.3101 H         1 UNK         0.0695 
     78 H78        22.5706  -26.6827  -45.2903 H         1 UNK         0.0983 
     79 H79        19.7602  -26.8288  -45.4413 H         1 UNK         0.3095 
     80 H80        19.1324  -23.5402  -44.2239 H         1 UNK         0.0454 
     81 H81        18.4194  -23.1484  -46.5707 H         1 UNK         0.0851 
     82 H82        19.2287  -24.6199  -47.1053 H         1 UNK         0.0851 
     83 H83        20.1651  -23.2471  -46.5323 H         1 UNK         0.0851 
     84 H84        18.2360  -26.1911  -44.4250 H         1 UNK         0.2976 
     85 H85        20.8160  -26.4807  -42.6436 H         1 UNK         0.3116 
     86 H86        21.2593  -28.5926  -40.9413 H         1 UNK         0.0646 
     87 H87        19.6982  -26.7298  -40.4729 H         1 UNK         0.0847 
     88 H88        20.7866  -26.9554  -39.1161 H         1 UNK         0.0847 
     89 H89        21.0484  -25.6217  -40.2314 H         1 UNK         0.0847 
     90 H90        23.6230  -26.1562  -41.7830 H         1 UNK         0.3040 
     91 H91        25.4946  -26.5356  -39.6691 H         1 UNK         0.1015 
     92 H92        25.9199  -25.6397  -42.5747 H         1 UNK         0.0786 
     93 H93        27.0828  -25.4467  -41.2701 H         1 UNK         0.0786 
     94 H94        25.5559  -24.5836  -41.2085 H         1 UNK         0.0786 
     95 H95        24.7073  -28.6114  -42.3835 H         1 UNK         0.3172 
     96 H96        27.2271  -30.1004  -42.3762 H         1 UNK         0.0595 
     97 H97        24.5360  -30.7032  -43.7113 H         1 UNK         0.0839 
     98 H98        26.0558  -31.5280  -44.0145 H         1 UNK         0.0839 
     99 H99        25.8770  -29.8372  -44.4582 H         1 UNK         0.0839 
    100 H100       27.0470  -30.2628  -39.9670 H         1 UNK         0.2998 
    101 H101       26.9387  -31.4786  -38.0982 H         1 UNK         0.0822 
    102 H102       27.1905  -33.9338  -38.3400 H         1 UNK         0.0787 
    103 H103       26.6306  -33.8591  -40.0048 H         1 UNK         0.0787 
    104 H104       28.1565  -33.1032  -39.5476 H         1 UNK         0.0787 
    105 H105       24.6439  -30.2107  -38.3713 H         1 UNK         0.3055 
    106 H106       22.5834  -29.9959  -37.6014 H         1 UNK         0.1106 
    107 H107       23.3773  -31.2134  -35.5652 H         1 UNK         0.0828 
    108 H108       21.6749  -31.4942  -35.8876 H         1 UNK         0.0828 
    109 H109       22.8484  -32.7408  -36.2703 H         1 UNK         0.0828 
    110 H110       22.7761  -30.5687  -40.1631 H         1 UNK         0.2931 
    111 H111       21.6174  -31.0059  -41.9484 H         1 UNK         0.0412 
    112 H112       23.3727  -33.0519  -41.3157 H         1 UNK         0.3472 
    113 H113       22.6630  -34.5679  -41.8274 H         1 UNK         0.3472 
    114 H114       19.5866  -30.4703  -40.0846 H         1 UNK         0.0970 
    115 H115       19.0124  -31.9479  -40.7688 H         1 UNK         0.0970 
    116 H116       18.5871  -32.2673  -43.3771 H         1 UNK         0.0612 
    117 H117       17.1505  -31.4844  -42.7412 H         1 UNK         0.0612 
@<TRIPOS>BOND
     1    1    2 1    
     2    1   62 1    
     3    1   63 1    
     4    1   64 1    
     5    2    3 2    
     6    2    4 am   BACKBONE|DICT|INTERRES
     7    4    5 1    
     8    4   65 1    
     9    5    6 1    
    10    5   25 1    
    11    5   66 1    
    12    6    7 1    
    13    6   67 1    
    14    6   68 1    
    15    7    8 1    
    16    8    9 1    
    17    8   69 1    
    18    8   70 1    
    19    9   10 ar   
    20    9   14 ar   
    21   10   11 ar   
    22   10   71 1    
    23   11   12 ar   
    24   11   61 1    
    25   12   13 ar   
    26   12   72 1    
    27   13   14 ar   
    28   13   15 1    
    29   14   73 1    
    30   15   16 1    
    31   15   74 1    
    32   15   75 1    
    33   16   17 1    
    34   17   18 1    
    35   17   76 1    
    36   17   77 1    
    37   18   19 1    
    38   18   27 1    
    39   18   78 1    
    40   19   20 am   BACKBONE|DICT|INTERRES
    41   19   79 1    
    42   20   21 2    
    43   20   22 1    
    44   22   23 1    
    45   22   24 1    
    46   22   80 1    
    47   23   81 1    
    48   23   82 1    
    49   23   83 1    
    50   24   25 am   BACKBONE|DICT|INTERRES
    51   24   84 1    
    52   25   26 2    
    53   27   28 2    
    54   27   29 am   BACKBONE|DICT|INTERRES
    55   29   30 1    
    56   29   85 1    
    57   30   31 1    
    58   30   32 1    
    59   30   86 1    
    60   31   87 1    
    61   31   88 1    
    62   31   89 1    
    63   32   33 2    
    64   32   34 am   BACKBONE|DICT|INTERRES
    65   34   35 1    
    66   34   90 1    
    67   35   36 1    
    68   35   37 1    
    69   35   91 1    
    70   36   92 1    
    71   36   93 1    
    72   36   94 1    
    73   37   38 2    
    74   37   39 am   BACKBONE|DICT|INTERRES
    75   39   40 1    
    76   39   95 1    
    77   40   41 1    
    78   40   42 1    
    79   40   96 1    
    80   41   97 1    
    81   41   98 1    
    82   41   99 1    
    83   42   43 2    
    84   42   44 am   BACKBONE|DICT|INTERRES
    85   44   45 1    
    86   44  100 1    
    87   45   46 1    
    88   45   47 1    
    89   45  101 1    
    90   46  102 1    
    91   46  103 1    
    92   46  104 1    
    93   47   48 2    
    94   47   49 am   BACKBONE|DICT|INTERRES
    95   49   50 1    
    96   49  105 1    
    97   50   51 1    
    98   50   52 1    
    99   50  106 1    
   100   51  107 1    
   101   51  108 1    
   102   51  109 1    
   103   52   53 2    
   104   52   54 am   BACKBONE|DICT|INTERRES
   105   54   55 1    
   106   54  110 1    
   107   55   56 1    
   108   55   59 1    
   109   55  111 1    
   110   56   57 am   BACKBONE|DICT|INTERRES
   111   56   58 2    
   112   57  112 1    
   113   57  113 1    
   114   59   60 1    
   115   59  114 1    
   116   59  115 1    
   117   60   61 1    
   118   61  116 1    
   119   61  117 1    
@<TRIPOS>SUBSTRUCTURE
     1 UNK         1 GROUP             0       ****    0 ROOT    
