@<TRIPOS>MOLECULE
3R8
117   119    1
SMALL
USER_CHARGES


@<TRIPOS>ATOM
      1 CA         15.6280  -24.9369  -42.2185 C.3       0 UNK        -0.2013 
      2 C          16.2867  -24.7763  -43.5800 C.2       0 UNK         0.4866 
      3 O          16.7052  -23.6716  -43.9256 O.2       0 UNK        -0.5176 
      4 N          16.3685  -25.8647  -44.3591 N.am      1 UNK        -0.4884 
      5 CA         16.9614  -25.8941  -45.7048 C.3       1 UNK         0.0853 
      6 C6         16.4626  -27.1281  -46.5271 C.3       10 UNK        -0.0849 
      7 S7         17.6771  -28.1177  -47.4778 S.3       10 UNK        -0.2776 
      8 C8         17.4555  -29.7813  -46.7690 C.3       10 UNK         0.0316 
      9 C9         18.1909  -29.9539  -45.4471 C.ar      10 UNK        -0.0863 
     10 C10        19.5386  -30.3222  -45.4467 C.ar      10 UNK        -0.1009 
     11 C11        20.2109  -30.5649  -44.2448 C.ar      10 UNK        -0.0712 
     12 C12        19.5334  -30.3994  -43.0343 C.ar      10 UNK        -0.0894 
     13 C13        18.1918  -30.0093  -43.0177 C.ar      10 UNK        -0.0745 
     14 C14        17.5222  -29.7989  -44.2286 C.ar      10 UNK        -0.0972 
     15 C15        17.4522  -29.8444  -41.6971 C.3       10 UNK         0.0209 
     16 S16        17.0547  -28.0999  -41.3678 S.3       10 UNK        -0.2568 
     17 C17        18.3978  -27.5571  -40.2524 C.3       10 UNK        -0.0983 
     18 CA         19.8131  -27.5226  -40.8848 C.3       3 UNK         0.0876 
     19 N          19.8175  -26.9267  -42.2190 N.am      3 UNK        -0.4424 
     20 C          20.8478  -26.9440  -43.0755 C.2       2 UNK         0.4918 
     21 O          21.9534  -27.4167  -42.8064 O.2       2 UNK        -0.4875 
     22 CA         20.5827  -26.3517  -44.4688 C.3       2 UNK         0.0481 
     23 CB         21.4657  -26.9786  -45.5644 C.3       2 UNK        -0.1831 
     24 N          19.1653  -26.4817  -44.8118 N.am      2 UNK        -0.4498 
     25 C          18.4900  -25.6747  -45.6380 C.2       1 UNK         0.5027 
     26 O          19.0073  -24.7604  -46.2827 O.2       1 UNK        -0.4969 
     27 C          20.8071  -26.7850  -39.9708 C.2       3 UNK         0.5005 
     28 O          20.7826  -25.5523  -39.9239 O.2       3 UNK        -0.5279 
     29 N          21.6884  -27.5420  -39.3051 N.am      4 UNK        -0.4463 
     30 CA         22.8205  -27.1113  -38.4729 C.3       4 UNK         0.0283 
     31 CB         22.3906  -26.1809  -37.3219 C.3       4 UNK        -0.1875 
     32 C          23.9795  -26.5098  -39.2868 C.2       4 UNK         0.4949 
     33 O          25.1301  -26.8594  -39.0254 O.2       4 UNK        -0.5039 
     34 N          23.6661  -25.6721  -40.2853 N.am      5 UNK        -0.4663 
     35 CA         24.6062  -25.0607  -41.2322 C.3       5 UNK         0.0242 
     36 CB         23.8349  -24.1380  -42.1898 C.3       5 UNK        -0.1982 
     37 C          25.4354  -26.0891  -42.0217 C.2       5 UNK         0.5017 
     38 O          26.6353  -25.8831  -42.2062 O.2       5 UNK        -0.5012 
     39 N          24.7899  -27.1893  -42.4255 N.am      6 UNK        -0.4439 
     40 CA         25.4130  -28.3786  -43.0030 C.3       6 UNK         0.0297 
     41 CB         25.0168  -28.4930  -44.4860 C.3       6 UNK        -0.2006 
     42 C          25.0291  -29.6193  -42.1762 C.2       6 UNK         0.4892 
     43 O          24.7996  -30.6872  -42.7452 O.2       6 UNK        -0.5089 
     44 N          24.9771  -29.4510  -40.8442 N.am      7 UNK        -0.4243 
     45 CA         24.6055  -30.4474  -39.8337 C.3       7 UNK         0.0196 
     46 CB         25.6767  -31.5596  -39.7455 C.3       7 UNK        -0.2007 
     47 C          23.1643  -30.9607  -40.0335 C.2       7 UNK         0.5020 
     48 O          22.2547  -30.1468  -40.2094 O.2       7 UNK        -0.5147 
     49 N          22.9714  -32.2817  -39.9796 N.am      8 UNK        -0.4734 
     50 CA         21.7118  -32.9597  -40.2663 C.3       8 UNK         0.0238 
     51 CB         21.2725  -33.7681  -39.0342 C.3       8 UNK        -0.1912 
     52 C          21.9441  -33.8776  -41.4703 C.2       8 UNK         0.5038 
     53 O          22.9084  -34.6469  -41.4641 O.2       8 UNK        -0.5046 
     54 N          21.0623  -33.7767  -42.4684 N.am      9 UNK        -0.4200 
     55 CA         21.1124  -34.5498  -43.7184 C.3       9 UNK         0.0839 
     56 C          20.2606  -35.8524  -43.6753 C.2       9 UNK         0.5513 
     57 N          19.5561  -36.1584  -42.5918 N.am      9 UNK        -0.7519 
     58 O          20.2504  -36.6116  -44.6405 O.2       9 UNK        -0.4960 
     59 C59        20.7355  -33.6572  -44.9302 C.3       10 UNK        -0.0876 
     60 S60        22.0220  -32.4226  -45.3412 S.3       10 UNK        -0.2414 
     61 C61        21.6686  -31.0066  -44.2407 C.3       10 UNK         0.0169 
     62 H62        15.0884  -25.8801  -42.1368 H         1 UNK         0.0903 
     63 H63        16.3798  -24.9025  -41.4306 H         1 UNK         0.0903 
     64 H64        14.9167  -24.1295  -42.0464 H         1 UNK         0.0903 
     65 H65        16.0077  -26.7416  -44.0110 H         1 UNK         0.3096 
     66 H66        16.5787  -25.0116  -46.2243 H         1 UNK         0.1121 
     67 H67        15.7141  -26.7862  -47.2438 H         1 UNK         0.0849 
     68 H68        15.9106  -27.8099  -45.8799 H         1 UNK         0.0849 
     69 H69        16.3933  -30.0021  -46.6535 H         1 UNK         0.0865 
     70 H70        17.8306  -30.5133  -47.4860 H         1 UNK         0.0865 
     71 H71        20.0602  -30.4469  -46.3858 H         1 UNK         0.1346 
     72 H72        20.0545  -30.5740  -42.1039 H         1 UNK         0.1412 
     73 H73        16.4762  -29.5255  -44.2174 H         1 UNK         0.1426 
     74 H74        18.0229  -30.2612  -40.8659 H         1 UNK         0.0716 
     75 H75        16.5214  -30.4115  -41.7413 H         1 UNK         0.0716 
     76 H76        18.3959  -28.1996  -39.3700 H         1 UNK         0.0695 
     77 H77        18.1179  -26.5630  -39.8976 H         1 UNK         0.0695 
     78 H78        20.1576  -28.5509  -40.9951 H         1 UNK         0.0983 
     79 H79        18.9646  -26.4638  -42.4910 H         1 UNK         0.3095 
     80 H80        20.8277  -25.2902  -44.3967 H         1 UNK         0.0454 
     81 H81        21.2547  -26.5496  -46.5437 H         1 UNK         0.0851 
     82 H82        21.3159  -28.0556  -45.6325 H         1 UNK         0.0851 
     83 H83        22.5220  -26.8036  -45.3598 H         1 UNK         0.0851 
     84 H84        18.6720  -27.2491  -44.3749 H         1 UNK         0.2976 
     85 H85        21.6955  -28.5393  -39.5211 H         1 UNK         0.3116 
     86 H86        23.2017  -28.0264  -38.0175 H         1 UNK         0.0646 
     87 H87        22.0524  -25.2085  -37.6802 H         1 UNK         0.0847 
     88 H88        23.2246  -25.9982  -36.6431 H         1 UNK         0.0847 
     89 H89        21.5854  -26.6216  -36.7345 H         1 UNK         0.0847 
     90 H90        22.6818  -25.4470  -40.3991 H         1 UNK         0.3040 
     91 H91        25.3045  -24.4528  -40.6531 H         1 UNK         0.1015 
     92 H92        23.0998  -24.6889  -42.7775 H         1 UNK         0.0786 
     93 H93        24.5127  -23.6486  -42.8907 H         1 UNK         0.0786 
     94 H94        23.3092  -23.3524  -41.6466 H         1 UNK         0.0786 
     95 H95        23.7831  -27.2506  -42.2811 H         1 UNK         0.3172 
     96 H96        26.5007  -28.3029  -42.9488 H         1 UNK         0.0595 
     97 H97        23.9391  -28.5938  -44.6020 H         1 UNK         0.0839 
     98 H98        25.4813  -29.3617  -44.9540 H         1 UNK         0.0839 
     99 H99        25.3326  -27.6143  -45.0482 H         1 UNK         0.0839 
    100 H100       25.1737  -28.5253  -40.4828 H         1 UNK         0.2998 
    101 H101       24.6043  -29.9214  -38.8783 H         1 UNK         0.0822 
    102 H102       26.6694  -31.1334  -39.5995 H         1 UNK         0.0787 
    103 H103       25.4927  -32.2233  -38.8997 H         1 UNK         0.0787 
    104 H104       25.7121  -32.1700  -40.6489 H         1 UNK         0.0787 
    105 H105       23.7787  -32.8852  -39.8983 H         1 UNK         0.3055 
    106 H106       20.9277  -32.2384  -40.5046 H         1 UNK         0.1106 
    107 H107       20.3321  -34.2875  -39.2221 H         1 UNK         0.0828 
    108 H108       22.0118  -34.5206  -38.7569 H         1 UNK         0.0828 
    109 H109       21.1175  -33.1193  -38.1721 H         1 UNK         0.0828 
    110 H110       20.2837  -33.1415  -42.3830 H         1 UNK         0.2931 
    111 H111       22.1370  -34.8909  -43.8788 H         1 UNK         0.0412 
    112 H112       19.5643  -35.5559  -41.7854 H         1 UNK         0.3472 
    113 H113       19.0158  -37.0096  -42.5797 H         1 UNK         0.3472 
    114 H114       19.7700  -33.1740  -44.7759 H         1 UNK         0.0970 
    115 H115       20.6122  -34.2665  -45.8276 H         1 UNK         0.0970 
    116 H116       22.2830  -30.1650  -44.5561 H         1 UNK         0.0612 
    117 H117       21.9994  -31.2547  -43.2315 H         1 UNK         0.0612 
@<TRIPOS>BOND
     1    1    2 1    
     2    1   62 1    
     3    1   63 1    
     4    1   64 1    
     5    2    3 2    
     6    2    4 am   BACKBONE|DICT|INTERRES
     7    4    5 1    
     8    4   65 1    
     9    5    6 1    
    10    5   25 1    
    11    5   66 1    
    12    6    7 1    
    13    6   67 1    
    14    6   68 1    
    15    7    8 1    
    16    8    9 1    
    17    8   69 1    
    18    8   70 1    
    19    9   10 ar   
    20    9   14 ar   
    21   10   11 ar   
    22   10   71 1    
    23   11   12 ar   
    24   11   61 1    
    25   12   13 ar   
    26   12   72 1    
    27   13   14 ar   
    28   13   15 1    
    29   14   73 1    
    30   15   16 1    
    31   15   74 1    
    32   15   75 1    
    33   16   17 1    
    34   17   18 1    
    35   17   76 1    
    36   17   77 1    
    37   18   19 1    
    38   18   27 1    
    39   18   78 1    
    40   19   20 am   BACKBONE|DICT|INTERRES
    41   19   79 1    
    42   20   21 2    
    43   20   22 1    
    44   22   23 1    
    45   22   24 1    
    46   22   80 1    
    47   23   81 1    
    48   23   82 1    
    49   23   83 1    
    50   24   25 am   BACKBONE|DICT|INTERRES
    51   24   84 1    
    52   25   26 2    
    53   27   28 2    
    54   27   29 am   BACKBONE|DICT|INTERRES
    55   29   30 1    
    56   29   85 1    
    57   30   31 1    
    58   30   32 1    
    59   30   86 1    
    60   31   87 1    
    61   31   88 1    
    62   31   89 1    
    63   32   33 2    
    64   32   34 am   BACKBONE|DICT|INTERRES
    65   34   35 1    
    66   34   90 1    
    67   35   36 1    
    68   35   37 1    
    69   35   91 1    
    70   36   92 1    
    71   36   93 1    
    72   36   94 1    
    73   37   38 2    
    74   37   39 am   BACKBONE|DICT|INTERRES
    75   39   40 1    
    76   39   95 1    
    77   40   41 1    
    78   40   42 1    
    79   40   96 1    
    80   41   97 1    
    81   41   98 1    
    82   41   99 1    
    83   42   43 2    
    84   42   44 am   BACKBONE|DICT|INTERRES
    85   44   45 1    
    86   44  100 1    
    87   45   46 1    
    88   45   47 1    
    89   45  101 1    
    90   46  102 1    
    91   46  103 1    
    92   46  104 1    
    93   47   48 2    
    94   47   49 am   BACKBONE|DICT|INTERRES
    95   49   50 1    
    96   49  105 1    
    97   50   51 1    
    98   50   52 1    
    99   50  106 1    
   100   51  107 1    
   101   51  108 1    
   102   51  109 1    
   103   52   53 2    
   104   52   54 am   BACKBONE|DICT|INTERRES
   105   54   55 1    
   106   54  110 1    
   107   55   56 1    
   108   55   59 1    
   109   55  111 1    
   110   56   57 am   BACKBONE|DICT|INTERRES
   111   56   58 2    
   112   57  112 1    
   113   57  113 1    
   114   59   60 1    
   115   59  114 1    
   116   59  115 1    
   117   60   61 1    
   118   61  116 1    
   119   61  117 1    
@<TRIPOS>SUBSTRUCTURE
     1 UNK         1 GROUP             0       ****    0 ROOT    
