@<TRIPOS>MOLECULE
3R8
117   119    1
SMALL
USER_CHARGES


@<TRIPOS>ATOM
      1 CA         18.4643  -25.2590  -39.7426 C.3       0 UNK        -0.2013 
      2 C          19.8495  -25.4513  -40.3514 C.2       0 UNK         0.4866 
      3 O          20.8433  -25.2935  -39.6459 O.2       0 UNK        -0.5176 
      4 N          19.9734  -25.7833  -41.6404 N.am      1 UNK        -0.4884 
      5 CA         18.9180  -25.9504  -42.6438 C.3       1 UNK         0.0853 
      6 C6         18.7597  -27.4406  -43.0469 C.3       10 UNK        -0.0849 
      7 S7         18.1692  -28.4958  -41.6819 S.3       10 UNK        -0.2776 
      8 C8         17.5271  -29.9366  -42.5965 C.3       10 UNK         0.0316 
      9 C9         18.5697  -30.5317  -43.5339 C.ar      10 UNK        -0.0863 
     10 C10        19.7243  -31.1214  -43.0136 C.ar      10 UNK        -0.1009 
     11 C11        20.6986  -31.6510  -43.8636 C.ar      10 UNK        -0.0712 
     12 C12        20.5143  -31.5821  -45.2474 C.ar      10 UNK        -0.0894 
     13 C13        19.3616  -30.9966  -45.7820 C.ar      10 UNK        -0.0745 
     14 C14        18.3893  -30.4798  -44.9198 C.ar      10 UNK        -0.0972 
     15 C15        19.1719  -30.9165  -47.2916 C.3       10 UNK         0.0209 
     16 S16        19.2164  -29.2024  -47.9122 S.3       10 UNK        -0.2568 
     17 C17        20.8857  -28.6730  -47.4004 C.3       10 UNK        -0.0983 
     18 CA         21.1045  -27.1440  -47.5187 C.3       3 UNK         0.0876 
     19 N          20.0587  -26.3772  -46.8318 N.am      3 UNK        -0.4424 
     20 C          19.8300  -25.0665  -46.9959 C.2       2 UNK         0.4918 
     21 O          20.4847  -24.3440  -47.7476 O.2       2 UNK        -0.4875 
     22 CA         18.6640  -24.4559  -46.1927 C.3       2 UNK         0.0481 
     23 CB         17.3727  -24.4805  -47.0261 C.3       2 UNK        -0.1831 
     24 N          18.4270  -25.1251  -44.9081 N.am      2 UNK        -0.4498 
     25 C          19.2753  -25.0820  -43.8701 C.2       1 UNK         0.5027 
     26 O          20.3039  -24.4001  -43.8758 O.2       1 UNK        -0.4969 
     27 C          22.5118  -26.7813  -47.0039 C.2       3 UNK         0.5005 
     28 O          23.4370  -26.6243  -47.8024 O.2       3 UNK        -0.5279 
     29 N          22.6392  -26.6658  -45.6776 N.am      4 UNK        -0.4463 
     30 CA         23.8545  -26.3644  -44.9316 C.3       4 UNK         0.0283 
     31 CB         24.8012  -27.5800  -44.9246 C.3       4 UNK        -0.1875 
     32 C          23.4315  -26.0065  -43.5048 C.2       4 UNK         0.4949 
     33 O          22.3838  -26.4698  -43.0475 O.2       4 UNK        -0.5039 
     34 N          24.2563  -25.2176  -42.8085 N.am      5 UNK        -0.4663 
     35 CA         24.0036  -24.7167  -41.4520 C.3       5 UNK         0.0242 
     36 CB         24.8473  -23.4463  -41.2314 C.3       5 UNK        -0.1982 
     37 C          24.2241  -25.7762  -40.3491 C.2       5 UNK         0.5017 
     38 O          24.9196  -25.5058  -39.3676 O.2       5 UNK        -0.5012 
     39 N          23.6322  -26.9612  -40.5238 N.am      6 UNK        -0.4439 
     40 CA         23.5963  -28.0497  -39.5573 C.3       6 UNK         0.0297 
     41 CB         24.8894  -28.8824  -39.6329 C.3       6 UNK        -0.2006 
     42 C          22.3678  -28.9117  -39.8576 C.2       6 UNK         0.4892 
     43 O          22.1590  -29.2871  -41.0116 O.2       6 UNK        -0.5089 
     44 N          21.6123  -29.2527  -38.8076 N.am      7 UNK        -0.4243 
     45 CA         20.4353  -30.1266  -38.8660 C.3       7 UNK         0.0196 
     46 CB         19.3807  -29.6043  -37.8742 C.3       7 UNK        -0.2007 
     47 C          20.7855  -31.6056  -38.6008 C.2       7 UNK         0.5020 
     48 O          19.8904  -32.4011  -38.3124 O.2       7 UNK        -0.5147 
     49 N          22.0774  -31.9560  -38.6954 N.am      8 UNK        -0.4734 
     50 CA         22.6607  -33.2655  -38.3717 C.3       8 UNK         0.0238 
     51 CB         24.1879  -33.1783  -38.5315 C.3       8 UNK        -0.1912 
     52 C          22.1062  -34.4573  -39.1747 C.2       8 UNK         0.5038 
     53 O          22.2444  -35.5958  -38.7250 O.2       8 UNK        -0.5046 
     54 N          21.4868  -34.1810  -40.3282 N.am      9 UNK        -0.4200 
     55 CA         20.7548  -35.1591  -41.1454 C.3       9 UNK         0.0839 
     56 C          19.4373  -35.6736  -40.4923 C.2       9 UNK         0.5513 
     57 N          18.8901  -35.0140  -39.4764 N.am      9 UNK        -0.7519 
     58 O          18.9034  -36.6943  -40.9185 O.2       9 UNK        -0.4960 
     59 C59        20.4703  -34.6227  -42.5716 C.3       10 UNK        -0.0876 
     60 S60        21.9711  -34.1014  -43.4763 S.3       10 UNK        -0.2414 
     61 C61        21.9533  -32.2874  -43.2825 C.3       10 UNK         0.0169 
     62 H62        17.8322  -26.1284  -39.9183 H         1 UNK         0.0903 
     63 H63        18.5378  -25.1195  -38.6643 H         1 UNK         0.0903 
     64 H64        17.9792  -24.3775  -40.1608 H         1 UNK         0.0903 
     65 H65        20.9048  -25.8805  -42.0390 H         1 UNK         0.3096 
     66 H66        17.9621  -25.5764  -42.2753 H         1 UNK         0.1121 
     67 H67        19.7116  -27.8438  -43.4004 H         1 UNK         0.0849 
     68 H68        18.0531  -27.5535  -43.8703 H         1 UNK         0.0849 
     69 H69        17.2089  -30.6975  -41.8825 H         1 UNK         0.0865 
     70 H70        16.6326  -29.6400  -43.1464 H         1 UNK         0.0865 
     71 H71        19.8683  -31.1558  -41.9434 H         1 UNK         0.1346 
     72 H72        21.2714  -31.9863  -45.9054 H         1 UNK         0.1412 
     73 H73        17.5012  -30.0219  -45.3340 H         1 UNK         0.1426 
     74 H74        18.2120  -31.3626  -47.5552 H         1 UNK         0.0716 
     75 H75        19.9335  -31.5003  -47.8109 H         1 UNK         0.0716 
     76 H76        21.6140  -29.2116  -48.0099 H         1 UNK         0.0695 
     77 H77        21.0522  -28.9920  -46.3703 H         1 UNK         0.0695 
     78 H78        21.0663  -26.8789  -48.5778 H         1 UNK         0.0983 
     79 H79        19.4433  -26.9048  -46.2324 H         1 UNK         0.3095 
     80 H80        18.9143  -23.4125  -45.9893 H         1 UNK         0.0454 
     81 H81        17.5129  -23.9635  -47.9765 H         1 UNK         0.0851 
     82 H82        16.5544  -23.9812  -46.5071 H         1 UNK         0.0851 
     83 H83        17.0560  -25.4990  -47.2545 H         1 UNK         0.0851 
     84 H84        17.5793  -25.6694  -44.8330 H         1 UNK         0.2976 
     85 H85        21.8245  -26.7686  -45.0845 H         1 UNK         0.3116 
     86 H86        24.3487  -25.5037  -45.3868 H         1 UNK         0.0646 
     87 H87        25.6989  -27.3751  -44.3401 H         1 UNK         0.0847 
     88 H88        24.3221  -28.4582  -44.4891 H         1 UNK         0.0847 
     89 H89        25.1271  -27.8415  -45.9312 H         1 UNK         0.0847 
     90 H90        25.1198  -24.9197  -43.2401 H         1 UNK         0.3040 
     91 H91        22.9528  -24.4238  -41.3876 H         1 UNK         0.1015 
     92 H92        24.6361  -22.9994  -40.2588 H         1 UNK         0.0786 
     93 H93        24.6291  -22.6887  -41.9843 H         1 UNK         0.0786 
     94 H94        25.9161  -23.6604  -41.2680 H         1 UNK         0.0786 
     95 H95        23.0604  -27.0988  -41.3556 H         1 UNK         0.3172 
     96 H96        23.4974  -27.6281  -38.5545 H         1 UNK         0.0595 
     97 H97        25.0319  -29.3132  -40.6250 H         1 UNK         0.0839 
     98 H98        24.8689  -29.7053  -38.9175 H         1 UNK         0.0839 
     99 H99        25.7665  -28.2774  -39.4029 H         1 UNK         0.0839 
    100 H100       21.8723  -28.9157  -37.8909 H         1 UNK         0.2998 
    101 H101       19.9988  -30.0787  -39.8647 H         1 UNK         0.0822 
    102 H102       18.4584  -30.1830  -37.9400 H         1 UNK         0.0787 
    103 H103       19.7311  -29.6618  -36.8430 H         1 UNK         0.0787 
    104 H104       19.1212  -28.5665  -38.0861 H         1 UNK         0.0787 
    105 H105       22.7290  -31.2325  -38.9604 H         1 UNK         0.3055 
    106 H106       22.4361  -33.4677  -37.3221 H         1 UNK         0.1106 
    107 H107       24.6147  -32.4169  -37.8784 H         1 UNK         0.0828 
    108 H108       24.6638  -34.1253  -38.2719 H         1 UNK         0.0828 
    109 H109       24.4731  -32.9418  -39.5575 H         1 UNK         0.0828 
    110 H110       21.4197  -33.2170  -40.6126 H         1 UNK         0.2931 
    111 H111       21.4026  -36.0316  -41.2509 H         1 UNK         0.0412 
    112 H112       18.0392  -35.3634  -39.0652 H         1 UNK         0.3472 
    113 H113       19.3109  -34.1646  -39.1145 H         1 UNK         0.3472 
    114 H114       19.9963  -35.4016  -43.1721 H         1 UNK         0.0970 
    115 H115       19.7466  -33.8090  -42.5337 H         1 UNK         0.0970 
    116 H116       22.0638  -32.0333  -42.2274 H         1 UNK         0.0612 
    117 H117       22.8285  -31.8727  -43.7845 H         1 UNK         0.0612 
@<TRIPOS>BOND
     1    1    2 1    
     2    1   62 1    
     3    1   63 1    
     4    1   64 1    
     5    2    3 2    
     6    2    4 am   BACKBONE|DICT|INTERRES
     7    4    5 1    
     8    4   65 1    
     9    5    6 1    
    10    5   25 1    
    11    5   66 1    
    12    6    7 1    
    13    6   67 1    
    14    6   68 1    
    15    7    8 1    
    16    8    9 1    
    17    8   69 1    
    18    8   70 1    
    19    9   10 ar   
    20    9   14 ar   
    21   10   11 ar   
    22   10   71 1    
    23   11   12 ar   
    24   11   61 1    
    25   12   13 ar   
    26   12   72 1    
    27   13   14 ar   
    28   13   15 1    
    29   14   73 1    
    30   15   16 1    
    31   15   74 1    
    32   15   75 1    
    33   16   17 1    
    34   17   18 1    
    35   17   76 1    
    36   17   77 1    
    37   18   19 1    
    38   18   27 1    
    39   18   78 1    
    40   19   20 am   BACKBONE|DICT|INTERRES
    41   19   79 1    
    42   20   21 2    
    43   20   22 1    
    44   22   23 1    
    45   22   24 1    
    46   22   80 1    
    47   23   81 1    
    48   23   82 1    
    49   23   83 1    
    50   24   25 am   BACKBONE|DICT|INTERRES
    51   24   84 1    
    52   25   26 2    
    53   27   28 2    
    54   27   29 am   BACKBONE|DICT|INTERRES
    55   29   30 1    
    56   29   85 1    
    57   30   31 1    
    58   30   32 1    
    59   30   86 1    
    60   31   87 1    
    61   31   88 1    
    62   31   89 1    
    63   32   33 2    
    64   32   34 am   BACKBONE|DICT|INTERRES
    65   34   35 1    
    66   34   90 1    
    67   35   36 1    
    68   35   37 1    
    69   35   91 1    
    70   36   92 1    
    71   36   93 1    
    72   36   94 1    
    73   37   38 2    
    74   37   39 am   BACKBONE|DICT|INTERRES
    75   39   40 1    
    76   39   95 1    
    77   40   41 1    
    78   40   42 1    
    79   40   96 1    
    80   41   97 1    
    81   41   98 1    
    82   41   99 1    
    83   42   43 2    
    84   42   44 am   BACKBONE|DICT|INTERRES
    85   44   45 1    
    86   44  100 1    
    87   45   46 1    
    88   45   47 1    
    89   45  101 1    
    90   46  102 1    
    91   46  103 1    
    92   46  104 1    
    93   47   48 2    
    94   47   49 am   BACKBONE|DICT|INTERRES
    95   49   50 1    
    96   49  105 1    
    97   50   51 1    
    98   50   52 1    
    99   50  106 1    
   100   51  107 1    
   101   51  108 1    
   102   51  109 1    
   103   52   53 2    
   104   52   54 am   BACKBONE|DICT|INTERRES
   105   54   55 1    
   106   54  110 1    
   107   55   56 1    
   108   55   59 1    
   109   55  111 1    
   110   56   57 am   BACKBONE|DICT|INTERRES
   111   56   58 2    
   112   57  112 1    
   113   57  113 1    
   114   59   60 1    
   115   59  114 1    
   116   59  115 1    
   117   60   61 1    
   118   61  116 1    
   119   61  117 1    
@<TRIPOS>SUBSTRUCTURE
     1 UNK         1 GROUP             0       ****    0 ROOT    
