@<TRIPOS>MOLECULE
3R8
117   119    1
SMALL
USER_CHARGES


@<TRIPOS>ATOM
      1 CA         12.3300  -25.1542  -43.6319 C.3       0 UNK        -0.2013 
      2 C          13.7006  -25.4154  -44.2386 C.2       0 UNK         0.4866 
      3 O          14.1379  -24.6633  -45.1105 O.2       0 UNK        -0.5176 
      4 N          14.3772  -26.4806  -43.7924 N.am      1 UNK        -0.4884 
      5 CA         15.7271  -26.8557  -44.2273 C.3       1 UNK         0.0853 
      6 C6         16.0876  -28.3019  -43.8091 C.3       10 UNK        -0.0849 
      7 S7         14.9864  -29.5597  -44.5372 S.3       10 UNK        -0.2776 
      8 C8         15.8574  -29.9757  -46.0857 C.3       10 UNK         0.0316 
      9 C9         17.2434  -30.5755  -45.8670 C.ar      10 UNK        -0.0863 
     10 C10        17.4091  -31.7240  -45.0847 C.ar      10 UNK        -0.1009 
     11 C11        18.6739  -32.2987  -44.9249 C.ar      10 UNK        -0.0712 
     12 C12        19.7797  -31.7135  -45.5494 C.ar      10 UNK        -0.0894 
     13 C13        19.6287  -30.5705  -46.3395 C.ar      10 UNK        -0.0745 
     14 C14        18.3581  -30.0060  -46.4924 C.ar      10 UNK        -0.0972 
     15 C15        20.8269  -29.9869  -47.0788 C.3       10 UNK         0.0209 
     16 S16        21.1986  -28.2747  -46.5884 S.3       10 UNK        -0.2568 
     17 C17        21.8505  -28.5161  -44.9020 C.3       10 UNK        -0.0983 
     18 CA         22.3464  -27.1833  -44.2692 C.3       3 UNK         0.0876 
     19 N          21.3211  -26.1251  -44.2834 N.am      3 UNK        -0.4424 
     20 C          20.1360  -26.1595  -43.6579 C.2       2 UNK         0.4918 
     21 O          19.8255  -27.0249  -42.8392 O.2       2 UNK        -0.4875 
     22 CA         19.1128  -25.0624  -44.0074 C.3       2 UNK         0.0481 
     23 CB         19.5689  -24.0952  -45.1199 C.3       2 UNK        -0.1831 
     24 N          17.8817  -25.7266  -44.4310 N.am      2 UNK        -0.4498 
     25 C          16.7883  -25.8817  -43.6751 C.2       1 UNK         0.5027 
     26 O          16.6196  -25.3403  -42.5782 O.2       1 UNK        -0.4969 
     27 C          23.0020  -27.4081  -42.8860 C.2       3 UNK         0.5005 
     28 O          23.6525  -28.4346  -42.6874 O.2       3 UNK        -0.5279 
     29 N          22.8412  -26.4482  -41.9620 N.am      4 UNK        -0.4463 
     30 CA         23.3619  -26.4837  -40.5937 C.3       4 UNK         0.0283 
     31 CB         22.8851  -25.2319  -39.8404 C.3       4 UNK        -0.1875 
     32 C          24.8946  -26.5877  -40.5478 C.2       4 UNK         0.4949 
     33 O          25.5737  -26.0407  -41.4198 O.2       4 UNK        -0.5039 
     34 N          25.4032  -27.3067  -39.5393 N.am      5 UNK        -0.4663 
     35 CA         26.8081  -27.6621  -39.2799 C.3       5 UNK         0.0242 
     36 CB         27.7068  -26.4172  -39.1409 C.3       5 UNK        -0.1982 
     37 C          27.3961  -28.6730  -40.2826 C.2       5 UNK         0.5017 
     38 O          28.1436  -29.5572  -39.8631 O.2       5 UNK        -0.5012 
     39 N          27.0331  -28.5589  -41.5675 N.am      6 UNK        -0.4439 
     40 CA         27.3209  -29.5443  -42.6126 C.3       6 UNK         0.0297 
     41 CB         27.0106  -28.9431  -43.9929 C.3       6 UNK        -0.2006 
     42 C          26.5407  -30.8528  -42.3938 C.2       6 UNK         0.4892 
     43 O          27.1021  -31.9321  -42.5865 O.2       6 UNK        -0.5089 
     44 N          25.2811  -30.7291  -41.9617 N.am      7 UNK        -0.4243 
     45 CA         24.4136  -31.8137  -41.5223 C.3       7 UNK         0.0196 
     46 CB         23.4557  -32.1877  -42.6663 C.3       7 UNK        -0.2007 
     47 C          23.6331  -31.3433  -40.2887 C.2       7 UNK         0.5020 
     48 O          23.4572  -30.1395  -40.0869 O.2       7 UNK        -0.5147 
     49 N          23.1417  -32.3010  -39.4930 N.am      8 UNK        -0.4734 
     50 CA         22.2862  -32.0320  -38.3293 C.3       8 UNK         0.0238 
     51 CB         22.2058  -33.2928  -37.4531 C.3       8 UNK        -0.1912 
     52 C          20.8745  -31.5551  -38.7198 C.2       8 UNK         0.5038 
     53 O          20.2454  -30.8276  -37.9508 O.2       8 UNK        -0.5046 
     54 N          20.4136  -31.9780  -39.9022 N.am      9 UNK        -0.4200 
     55 CA         19.1393  -31.5940  -40.5223 C.3       9 UNK         0.0839 
     56 C          19.1407  -30.2033  -41.2186 C.2       9 UNK         0.5513 
     57 N          20.2645  -29.5089  -41.3486 N.am      9 UNK        -0.7519 
     58 O          18.0820  -29.7334  -41.6215 O.2       9 UNK        -0.4960 
     59 C59        18.5978  -32.7193  -41.4469 C.3       10 UNK        -0.0876 
     60 S60        19.8346  -33.3621  -42.6295 S.3       10 UNK        -0.2414 
     61 C61        18.8429  -33.5895  -44.1366 C.3       10 UNK         0.0169 
     62 H62        12.0640  -25.9038  -42.8867 H         1 UNK         0.0903 
     63 H63        12.3133  -24.1768  -43.1504 H         1 UNK         0.0903 
     64 H64        11.5670  -25.1643  -44.4098 H         1 UNK         0.0903 
     65 H65        13.9764  -27.0616  -43.0700 H         1 UNK         0.3096 
     66 H66        15.7513  -26.7955  -45.3179 H         1 UNK         0.1121 
     67 H67        16.0304  -28.4015  -42.7235 H         1 UNK         0.0849 
     68 H68        17.1215  -28.5410  -44.0670 H         1 UNK         0.0849 
     69 H69        15.2531  -30.6924  -46.6434 H         1 UNK         0.0865 
     70 H70        15.9139  -29.0803  -46.7065 H         1 UNK         0.0865 
     71 H71        16.5473  -32.1778  -44.6147 H         1 UNK         0.1346 
     72 H72        20.7551  -32.1667  -45.4357 H         1 UNK         0.1412 
     73 H73        18.2406  -29.1303  -47.1162 H         1 UNK         0.1426 
     74 H74        20.6184  -30.0043  -48.1493 H         1 UNK         0.0716 
     75 H75        21.7170  -30.6008  -46.9322 H         1 UNK         0.0716 
     76 H76        22.6641  -29.2418  -44.9601 H         1 UNK         0.0695 
     77 H77        21.0746  -28.9747  -44.2858 H         1 UNK         0.0695 
     78 H78        23.1569  -26.8132  -44.8991 H         1 UNK         0.0983 
     79 H79        21.4940  -25.3690  -44.9300 H         1 UNK         0.3095 
     80 H80        18.9451  -24.4777  -43.1009 H         1 UNK         0.0454 
     81 H81        19.7821  -24.6131  -46.0562 H         1 UNK         0.0851 
     82 H82        20.4622  -23.5422  -44.8264 H         1 UNK         0.0851 
     83 H83        18.7972  -23.3536  -45.3274 H         1 UNK         0.0851 
     84 H84        17.9441  -26.2437  -45.2966 H         1 UNK         0.2976 
     85 H85        22.3153  -25.6291  -42.2256 H         1 UNK         0.3116 
     86 H86        22.9372  -27.3661  -40.1098 H         1 UNK         0.0646 
     87 H87        21.7968  -25.1732  -39.8145 H         1 UNK         0.0847 
     88 H88        23.2622  -24.3172  -40.2997 H         1 UNK         0.0847 
     89 H89        23.2312  -25.2424  -38.8059 H         1 UNK         0.0847 
     90 H90        24.7395  -27.7506  -38.9177 H         1 UNK         0.3040 
     91 H91        26.8032  -28.1649  -38.3110 H         1 UNK         0.1015 
     92 H92        27.8172  -25.8807  -40.0836 H         1 UNK         0.0786 
     93 H93        28.7086  -26.6993  -38.8144 H         1 UNK         0.0786 
     94 H94        27.3094  -25.7211  -38.4022 H         1 UNK         0.0786 
     95 H95        26.4329  -27.7765  -41.8113 H         1 UNK         0.3172 
     96 H96        28.3870  -29.7775  -42.5745 H         1 UNK         0.0595 
     97 H97        25.9582  -28.6750  -44.0921 H         1 UNK         0.0839 
     98 H98        27.2409  -29.6546  -44.7871 H         1 UNK         0.0839 
     99 H99        27.6036  -28.0475  -44.1783 H         1 UNK         0.0839 
    100 H100       24.8704  -29.8025  -41.8647 H         1 UNK         0.2998 
    101 H101       25.0142  -32.6822  -41.2433 H         1 UNK         0.0822 
    102 H102       24.0032  -32.4682  -43.5662 H         1 UNK         0.0787 
    103 H103       22.8311  -33.0376  -42.3916 H         1 UNK         0.0787 
    104 H104       22.7928  -31.3595  -42.9239 H         1 UNK         0.0787 
    105 H105       23.3305  -33.2698  -39.7104 H         1 UNK         0.3055 
    106 H106       22.7463  -31.2342  -37.7411 H         1 UNK         0.1106 
    107 H107       21.7615  -34.1321  -37.9896 H         1 UNK         0.0828 
    108 H108       21.5949  -33.1131  -36.5672 H         1 UNK         0.0828 
    109 H109       23.1928  -33.5990  -37.1060 H         1 UNK         0.0828 
    110 H110       21.0081  -32.5626  -40.4703 H         1 UNK         0.2931 
    111 H111       18.4135  -31.4938  -39.7128 H         1 UNK         0.0412 
    112 H112       21.1462  -29.8527  -41.0001 H         1 UNK         0.3472 
    113 H113       20.2081  -28.6079  -41.8131 H         1 UNK         0.3472 
    114 H114       17.7056  -32.3869  -41.9816 H         1 UNK         0.0970 
    115 H115       18.2695  -33.5593  -40.8332 H         1 UNK         0.0970 
    116 H116       19.3438  -34.3220  -44.7710 H         1 UNK         0.0612 
    117 H117       17.8768  -34.0248  -43.8762 H         1 UNK         0.0612 
@<TRIPOS>BOND
     1    1    2 1    
     2    1   62 1    
     3    1   63 1    
     4    1   64 1    
     5    2    3 2    
     6    2    4 am   BACKBONE|DICT|INTERRES
     7    4    5 1    
     8    4   65 1    
     9    5    6 1    
    10    5   25 1    
    11    5   66 1    
    12    6    7 1    
    13    6   67 1    
    14    6   68 1    
    15    7    8 1    
    16    8    9 1    
    17    8   69 1    
    18    8   70 1    
    19    9   10 ar   
    20    9   14 ar   
    21   10   11 ar   
    22   10   71 1    
    23   11   12 ar   
    24   11   61 1    
    25   12   13 ar   
    26   12   72 1    
    27   13   14 ar   
    28   13   15 1    
    29   14   73 1    
    30   15   16 1    
    31   15   74 1    
    32   15   75 1    
    33   16   17 1    
    34   17   18 1    
    35   17   76 1    
    36   17   77 1    
    37   18   19 1    
    38   18   27 1    
    39   18   78 1    
    40   19   20 am   BACKBONE|DICT|INTERRES
    41   19   79 1    
    42   20   21 2    
    43   20   22 1    
    44   22   23 1    
    45   22   24 1    
    46   22   80 1    
    47   23   81 1    
    48   23   82 1    
    49   23   83 1    
    50   24   25 am   BACKBONE|DICT|INTERRES
    51   24   84 1    
    52   25   26 2    
    53   27   28 2    
    54   27   29 am   BACKBONE|DICT|INTERRES
    55   29   30 1    
    56   29   85 1    
    57   30   31 1    
    58   30   32 1    
    59   30   86 1    
    60   31   87 1    
    61   31   88 1    
    62   31   89 1    
    63   32   33 2    
    64   32   34 am   BACKBONE|DICT|INTERRES
    65   34   35 1    
    66   34   90 1    
    67   35   36 1    
    68   35   37 1    
    69   35   91 1    
    70   36   92 1    
    71   36   93 1    
    72   36   94 1    
    73   37   38 2    
    74   37   39 am   BACKBONE|DICT|INTERRES
    75   39   40 1    
    76   39   95 1    
    77   40   41 1    
    78   40   42 1    
    79   40   96 1    
    80   41   97 1    
    81   41   98 1    
    82   41   99 1    
    83   42   43 2    
    84   42   44 am   BACKBONE|DICT|INTERRES
    85   44   45 1    
    86   44  100 1    
    87   45   46 1    
    88   45   47 1    
    89   45  101 1    
    90   46  102 1    
    91   46  103 1    
    92   46  104 1    
    93   47   48 2    
    94   47   49 am   BACKBONE|DICT|INTERRES
    95   49   50 1    
    96   49  105 1    
    97   50   51 1    
    98   50   52 1    
    99   50  106 1    
   100   51  107 1    
   101   51  108 1    
   102   51  109 1    
   103   52   53 2    
   104   52   54 am   BACKBONE|DICT|INTERRES
   105   54   55 1    
   106   54  110 1    
   107   55   56 1    
   108   55   59 1    
   109   55  111 1    
   110   56   57 am   BACKBONE|DICT|INTERRES
   111   56   58 2    
   112   57  112 1    
   113   57  113 1    
   114   59   60 1    
   115   59  114 1    
   116   59  115 1    
   117   60   61 1    
   118   61  116 1    
   119   61  117 1    
@<TRIPOS>SUBSTRUCTURE
     1 UNK         1 GROUP             0       ****    0 ROOT    
