@<TRIPOS>MOLECULE
3R8
117   119    1
SMALL
USER_CHARGES


@<TRIPOS>ATOM
      1 CA         16.6898  -31.9545  -43.3927 C.3       0 UNK        -0.2013 
      2 C          15.9197  -30.6573  -43.5916 C.2       0 UNK         0.4866 
      3 O          14.6940  -30.6579  -43.4676 O.2       0 UNK        -0.5176 
      4 N          16.6221  -29.5672  -43.9235 N.am      1 UNK        -0.4884 
      5 CA         16.0423  -28.2562  -44.2421 C.3       1 UNK         0.0853 
      6 C6         16.3977  -27.7838  -45.6821 C.3       10 UNK        -0.0849 
      7 S7         16.1319  -29.0919  -46.9431 S.3       10 UNK        -0.2776 
      8 C8         17.7495  -29.3232  -47.7682 C.3       10 UNK         0.0316 
      9 C9         18.9502  -29.1860  -46.8402 C.ar      10 UNK        -0.0863 
     10 C10        19.3244  -30.2199  -45.9753 C.ar      10 UNK        -0.1009 
     11 C11        20.4181  -30.0663  -45.1134 C.ar      10 UNK        -0.0712 
     12 C12        21.1275  -28.8573  -45.1227 C.ar      10 UNK        -0.0894 
     13 C13        20.7613  -27.8157  -45.9804 C.ar      10 UNK        -0.0745 
     14 C14        19.6908  -28.0026  -46.8563 C.ar      10 UNK        -0.0972 
     15 C15        21.5198  -26.4929  -45.9734 C.3       10 UNK         0.0209 
     16 S16        20.3938  -25.0645  -45.7961 S.3       10 UNK        -0.2568 
     17 C17        20.9879  -24.2443  -44.2740 C.3       10 UNK        -0.0983 
     18 CA         20.2894  -24.6923  -42.9595 C.3       3 UNK         0.0876 
     19 N          18.8353  -24.7879  -43.1107 N.am      3 UNK        -0.4424 
     20 C          17.9466  -24.6016  -42.1290 C.2       2 UNK         0.4918 
     21 O          18.2474  -24.2388  -40.9910 O.2       2 UNK        -0.4875 
     22 CA         16.4642  -24.8395  -42.4750 C.3       2 UNK         0.0481 
     23 CB         15.8309  -23.5500  -43.0222 C.3       2 UNK        -0.1831 
     24 N          16.2334  -25.9359  -43.4240 N.am      2 UNK        -0.4498 
     25 C          16.4331  -27.2347  -43.1488 C.2       1 UNK         0.5027 
     26 O          16.8655  -27.6301  -42.0635 O.2       1 UNK        -0.4969 
     27 C          20.8731  -26.0169  -42.4318 C.2       3 UNK         0.5005 
     28 O          20.2649  -27.0709  -42.6133 O.2       3 UNK        -0.5279 
     29 N          22.0634  -25.9337  -41.8249 N.am      4 UNK        -0.4463 
     30 CA         22.9111  -27.0782  -41.4854 C.3       4 UNK         0.0283 
     31 CB         23.6185  -26.7974  -40.1492 C.3       4 UNK        -0.1875 
     32 C          23.9414  -27.2977  -42.6048 C.2       4 UNK         0.4949 
     33 O          24.2114  -26.3760  -43.3796 O.2       4 UNK        -0.5039 
     34 N          24.5166  -28.5009  -42.6590 N.am      5 UNK        -0.4663 
     35 CA         25.5257  -28.8967  -43.6405 C.3       5 UNK         0.0242 
     36 CB         24.8366  -29.5491  -44.8593 C.3       5 UNK        -0.1982 
     37 C          26.5682  -29.7765  -42.9368 C.2       5 UNK         0.5017 
     38 O          27.1798  -29.3198  -41.9697 O.2       5 UNK        -0.5012 
     39 N          26.7451  -31.0208  -43.4050 N.am      6 UNK        -0.4439 
     40 CA         27.5934  -32.0426  -42.7763 C.3       6 UNK         0.0297 
     41 CB         27.7905  -33.2085  -43.7589 C.3       6 UNK        -0.2006 
     42 C          27.0331  -32.5572  -41.4343 C.2       6 UNK         0.4892 
     43 O          27.7869  -33.1165  -40.6370 O.2       6 UNK        -0.5089 
     44 N          25.7318  -32.3472  -41.2144 N.am      7 UNK        -0.4243 
     45 CA         25.0105  -32.5589  -39.9667 C.3       7 UNK         0.0196 
     46 CB         24.0603  -33.7573  -40.1422 C.3       7 UNK        -0.2007 
     47 C          24.2289  -31.2762  -39.6464 C.2       7 UNK         0.5020 
     48 O          24.1830  -30.3562  -40.4685 O.2       7 UNK        -0.5147 
     49 N          23.5999  -31.2455  -38.4649 N.am      8 UNK        -0.4734 
     50 CA         22.7383  -30.1442  -38.0164 C.3       8 UNK         0.0238 
     51 CB         22.4233  -30.3237  -36.5222 C.3       8 UNK        -0.1912 
     52 C          21.4362  -30.0016  -38.8287 C.2       8 UNK         0.5038 
     53 O          20.8667  -28.9108  -38.8491 O.2       8 UNK        -0.5046 
     54 N          20.9995  -31.0970  -39.4691 N.am      9 UNK        -0.4200 
     55 CA         19.8339  -31.1859  -40.3685 C.3       9 UNK         0.0839 
     56 C          18.4548  -30.9798  -39.6697 C.2       9 UNK         0.5513 
     57 N          18.3640  -31.0578  -38.3471 N.am      9 UNK        -0.7519 
     58 O          17.4397  -30.7940  -40.3327 O.2       9 UNK        -0.4960 
     59 C59        20.0018  -30.3228  -41.6535 C.3       10 UNK        -0.0876 
     60 S60        21.5085  -30.7571  -42.5937 S.3       10 UNK        -0.2414 
     61 C61        20.8522  -31.2361  -44.2287 C.3       10 UNK         0.0169 
     62 H62        17.7541  -31.8307  -43.5787 H         1 UNK         0.0903 
     63 H63        16.5599  -32.3179  -42.3739 H         1 UNK         0.0903 
     64 H64        16.3170  -32.7178  -44.0750 H         1 UNK         0.0903 
     65 H65        17.6304  -29.6050  -43.9685 H         1 UNK         0.3096 
     66 H66        14.9533  -28.3208  -44.1922 H         1 UNK         0.1121 
     67 H67        17.4164  -27.4044  -45.7174 H         1 UNK         0.0849 
     68 H68        15.7664  -26.9406  -45.9665 H         1 UNK         0.0849 
     69 H69        17.7656  -30.3080  -48.2372 H         1 UNK         0.0865 
     70 H70        17.8231  -28.6055  -48.5869 H         1 UNK         0.0865 
     71 H71        18.7647  -31.1454  -45.9810 H         1 UNK         0.1346 
     72 H72        21.9649  -28.7218  -44.4538 H         1 UNK         0.1412 
     73 H73        19.4087  -27.2031  -47.5280 H         1 UNK         0.1426 
     74 H74        22.0693  -26.3953  -46.9103 H         1 UNK         0.0716 
     75 H75        22.2647  -26.4839  -45.1785 H         1 UNK         0.0716 
     76 H76        20.8049  -23.1776  -44.4115 H         1 UNK         0.0695 
     77 H77        22.0738  -24.3351  -44.2057 H         1 UNK         0.0695 
     78 H78        20.5013  -23.9318  -42.2042 H         1 UNK         0.0983 
     79 H79        18.5169  -25.1345  -44.0031 H         1 UNK         0.3095 
     80 H80        15.9503  -25.0935  -41.5453 H         1 UNK         0.0454 
     81 H81        16.2780  -23.2490  -43.9705 H         1 UNK         0.0851 
     82 H82        15.9648  -22.7230  -42.3233 H         1 UNK         0.0851 
     83 H83        14.7584  -23.6677  -43.1774 H         1 UNK         0.0851 
     84 H84        15.8596  -25.6783  -44.3259 H         1 UNK         0.2976 
     85 H85        22.5173  -25.0324  -41.7778 H         1 UNK         0.3116 
     86 H86        22.3080  -27.9828  -41.3797 H         1 UNK         0.0646 
     87 H87        22.8971  -26.6662  -39.3425 H         1 UNK         0.0847 
     88 H88        24.2391  -25.9020  -40.1976 H         1 UNK         0.0847 
     89 H89        24.2678  -27.6278  -39.8691 H         1 UNK         0.0847 
     90 H90        24.3131  -29.1799  -41.9248 H         1 UNK         0.3040 
     91 H91        26.0705  -28.0158  -43.9878 H         1 UNK         0.1015 
     92 H92        24.2210  -30.4035  -44.5740 H         1 UNK         0.0786 
     93 H93        25.5634  -29.8829  -45.6009 H         1 UNK         0.0786 
     94 H94        24.1882  -28.8329  -45.3640 H         1 UNK         0.0786 
     95 H95        26.2112  -31.3073  -44.2134 H         1 UNK         0.3172 
     96 H96        28.5696  -31.5967  -42.5741 H         1 UNK         0.0595 
     97 H97        26.8455  -33.6937  -44.0068 H         1 UNK         0.0839 
     98 H98        28.4446  -33.9707  -43.3327 H         1 UNK         0.0839 
     99 H99        28.2518  -32.8729  -44.6880 H         1 UNK         0.0839 
    100 H100       25.2216  -31.8040  -41.8970 H         1 UNK         0.2998 
    101 H101       25.7073  -32.7512  -39.1479 H         1 UNK         0.0822 
    102 H102       24.6089  -34.6550  -40.4283 H         1 UNK         0.0787 
    103 H103       23.5322  -33.9869  -39.2162 H         1 UNK         0.0787 
    104 H104       23.3098  -33.5672  -40.9111 H         1 UNK         0.0787 
    105 H105       23.6942  -32.0337  -37.8397 H         1 UNK         0.3055 
    106 H106       23.2935  -29.2118  -38.1391 H         1 UNK         0.1106 
    107 H107       21.8857  -31.2529  -36.3295 H         1 UNK         0.0828 
    108 H108       21.8023  -29.5057  -36.1535 H         1 UNK         0.0828 
    109 H109       23.3335  -30.3304  -35.9224 H         1 UNK         0.0828 
    110 H110       21.5385  -31.9435  -39.3712 H         1 UNK         0.2931 
    111 H111       19.8106  -32.2268  -40.6933 H         1 UNK         0.0412 
    112 H112       19.1845  -31.2212  -37.7868 H         1 UNK         0.3472 
    113 H113       17.4649  -30.9383  -37.9075 H         1 UNK         0.3472 
    114 H114       20.0491  -29.2674  -41.3878 H         1 UNK         0.0970 
    115 H115       19.1354  -30.4192  -42.3064 H         1 UNK         0.0970 
    116 H116       20.0365  -31.9452  -44.0875 H         1 UNK         0.0612 
    117 H117       21.6367  -31.7784  -44.7575 H         1 UNK         0.0612 
@<TRIPOS>BOND
     1    1    2 1    
     2    1   62 1    
     3    1   63 1    
     4    1   64 1    
     5    2    3 2    
     6    2    4 am   BACKBONE|DICT|INTERRES
     7    4    5 1    
     8    4   65 1    
     9    5    6 1    
    10    5   25 1    
    11    5   66 1    
    12    6    7 1    
    13    6   67 1    
    14    6   68 1    
    15    7    8 1    
    16    8    9 1    
    17    8   69 1    
    18    8   70 1    
    19    9   10 ar   
    20    9   14 ar   
    21   10   11 ar   
    22   10   71 1    
    23   11   12 ar   
    24   11   61 1    
    25   12   13 ar   
    26   12   72 1    
    27   13   14 ar   
    28   13   15 1    
    29   14   73 1    
    30   15   16 1    
    31   15   74 1    
    32   15   75 1    
    33   16   17 1    
    34   17   18 1    
    35   17   76 1    
    36   17   77 1    
    37   18   19 1    
    38   18   27 1    
    39   18   78 1    
    40   19   20 am   BACKBONE|DICT|INTERRES
    41   19   79 1    
    42   20   21 2    
    43   20   22 1    
    44   22   23 1    
    45   22   24 1    
    46   22   80 1    
    47   23   81 1    
    48   23   82 1    
    49   23   83 1    
    50   24   25 am   BACKBONE|DICT|INTERRES
    51   24   84 1    
    52   25   26 2    
    53   27   28 2    
    54   27   29 am   BACKBONE|DICT|INTERRES
    55   29   30 1    
    56   29   85 1    
    57   30   31 1    
    58   30   32 1    
    59   30   86 1    
    60   31   87 1    
    61   31   88 1    
    62   31   89 1    
    63   32   33 2    
    64   32   34 am   BACKBONE|DICT|INTERRES
    65   34   35 1    
    66   34   90 1    
    67   35   36 1    
    68   35   37 1    
    69   35   91 1    
    70   36   92 1    
    71   36   93 1    
    72   36   94 1    
    73   37   38 2    
    74   37   39 am   BACKBONE|DICT|INTERRES
    75   39   40 1    
    76   39   95 1    
    77   40   41 1    
    78   40   42 1    
    79   40   96 1    
    80   41   97 1    
    81   41   98 1    
    82   41   99 1    
    83   42   43 2    
    84   42   44 am   BACKBONE|DICT|INTERRES
    85   44   45 1    
    86   44  100 1    
    87   45   46 1    
    88   45   47 1    
    89   45  101 1    
    90   46  102 1    
    91   46  103 1    
    92   46  104 1    
    93   47   48 2    
    94   47   49 am   BACKBONE|DICT|INTERRES
    95   49   50 1    
    96   49  105 1    
    97   50   51 1    
    98   50   52 1    
    99   50  106 1    
   100   51  107 1    
   101   51  108 1    
   102   51  109 1    
   103   52   53 2    
   104   52   54 am   BACKBONE|DICT|INTERRES
   105   54   55 1    
   106   54  110 1    
   107   55   56 1    
   108   55   59 1    
   109   55  111 1    
   110   56   57 am   BACKBONE|DICT|INTERRES
   111   56   58 2    
   112   57  112 1    
   113   57  113 1    
   114   59   60 1    
   115   59  114 1    
   116   59  115 1    
   117   60   61 1    
   118   61  116 1    
   119   61  117 1    
@<TRIPOS>SUBSTRUCTURE
     1 UNK         1 GROUP             0       ****    0 ROOT    
