@<TRIPOS>MOLECULE
3R8
117   119    1
SMALL
USER_CHARGES


@<TRIPOS>ATOM
      1 CA         16.0771  -22.6955  -45.7536 C.3       0 UNK        -0.2013 
      2 C          15.8096  -24.1050  -46.2768 C.2       0 UNK         0.4866 
      3 O          14.6694  -24.4123  -46.6195 O.2       0 UNK        -0.5176 
      4 N          16.8110  -24.9913  -46.3791 N.am      1 UNK        -0.4884 
      5 CA         18.2071  -24.8231  -45.9518 C.3       1 UNK         0.0853 
      6 C6         19.1268  -25.8912  -46.6240 C.3       10 UNK        -0.0849 
      7 S7         19.4531  -27.4468  -45.7120 S.3       10 UNK        -0.2776 
      8 C8         17.8278  -28.2541  -45.7602 C.3       10 UNK         0.0316 
      9 C9         17.8208  -29.5152  -44.9126 C.ar      10 UNK        -0.0863 
     10 C10        18.0895  -30.7573  -45.4953 C.ar      10 UNK        -0.1009 
     11 C11        18.0408  -31.9256  -44.7293 C.ar      10 UNK        -0.0712 
     12 C12        17.7273  -31.8410  -43.3688 C.ar      10 UNK        -0.0894 
     13 C13        17.4690  -30.6032  -42.7718 C.ar      10 UNK        -0.0745 
     14 C14        17.5174  -29.4421  -43.5489 C.ar      10 UNK        -0.0972 
     15 C15        17.0986  -30.5355  -41.2973 C.3       10 UNK         0.0209 
     16 S16        18.5518  -30.2370  -40.2416 S.3       10 UNK        -0.2568 
     17 C17        18.6419  -28.4149  -40.1971 C.3       10 UNK        -0.0983 
     18 CA         19.8411  -27.8381  -40.9897 C.3       3 UNK         0.0876 
     19 N          19.5754  -26.4525  -41.3986 N.am      3 UNK        -0.4424 
     20 C          20.3637  -25.7074  -42.1827 C.2       2 UNK         0.4918 
     21 O          21.4479  -26.0855  -42.6293 O.2       2 UNK        -0.4875 
     22 CA         19.8551  -24.2973  -42.5210 C.3       2 UNK         0.0481 
     23 CB         20.9228  -23.2279  -42.2373 C.3       2 UNK        -0.1831 
     24 N          19.4686  -24.2431  -43.9288 N.am      2 UNK        -0.4498 
     25 C          18.3379  -24.7737  -44.4112 C.2       1 UNK         0.5027 
     26 O          17.4433  -25.2360  -43.6966 O.2       1 UNK        -0.4969 
     27 C          21.1722  -27.9955  -40.2172 C.2       3 UNK         0.5005 
     28 O          21.8585  -29.0055  -40.3796 O.2       3 UNK        -0.5279 
     29 N          21.5379  -26.9743  -39.4267 N.am      4 UNK        -0.4463 
     30 CA         22.8115  -26.8929  -38.7076 C.3       4 UNK         0.0283 
     31 CB         22.7665  -25.7294  -37.7046 C.3       4 UNK        -0.1875 
     32 C          24.0216  -26.7507  -39.6470 C.2       4 UNK         0.4949 
     33 O          25.0443  -27.3919  -39.4096 O.2       4 UNK        -0.5039 
     34 N          23.8793  -25.9480  -40.7129 N.am      5 UNK        -0.4663 
     35 CA         24.9029  -25.7664  -41.7500 C.3       5 UNK         0.0242 
     36 CB         24.5806  -24.5235  -42.5935 C.3       5 UNK        -0.1982 
     37 C          25.0420  -27.0077  -42.6457 C.2       5 UNK         0.5017 
     38 O          26.1532  -27.3352  -43.0614 O.2       5 UNK        -0.5012 
     39 N          23.9190  -27.7016  -42.8782 N.am      6 UNK        -0.4439 
     40 CA         23.8505  -29.0085  -43.5369 C.3       6 UNK         0.0297 
     41 CB         22.3996  -29.2730  -43.9728 C.3       6 UNK        -0.2006 
     42 C          24.3714  -30.1717  -42.6673 C.2       6 UNK         0.4892 
     43 O          24.4360  -31.2934  -43.1692 O.2       6 UNK        -0.5089 
     44 N          24.7053  -29.9033  -41.3938 N.am      7 UNK        -0.4243 
     45 CA         25.1928  -30.8397  -40.3749 C.3       7 UNK         0.0196 
     46 CB         26.6041  -31.3503  -40.7349 C.3       7 UNK        -0.2007 
     47 C          24.1904  -31.9746  -40.1008 C.2       7 UNK         0.5020 
     48 O          24.5650  -33.1487  -40.1107 O.2       7 UNK        -0.5147 
     49 N          22.9157  -31.5992  -39.9139 N.am      8 UNK        -0.4734 
     50 CA         21.7531  -32.4807  -39.7345 C.3       8 UNK         0.0238 
     51 CB         21.8466  -33.2588  -38.4046 C.3       8 UNK        -0.1912 
     52 C          21.4983  -33.3959  -40.9496 C.2       8 UNK         0.5038 
     53 O          20.9744  -34.4998  -40.7903 O.2       8 UNK        -0.5046 
     54 N          21.8878  -32.9163  -42.1384 N.am      9 UNK        -0.4200 
     55 CA         21.8946  -33.6358  -43.4193 C.3       9 UNK         0.0839 
     56 C          23.0045  -34.7255  -43.5400 C.2       9 UNK         0.5513 
     57 N          23.9718  -34.8030  -42.6322 N.am      9 UNK        -0.7519 
     58 O          23.0060  -35.5069  -44.4879 O.2       9 UNK        -0.4960 
     59 C59        20.4813  -34.1452  -43.8391 C.3       10 UNK        -0.0876 
     60 S60        20.0477  -33.6790  -45.5488 S.3       10 UNK        -0.2414 
     61 C61        18.2783  -33.2793  -45.3864 C.3       10 UNK         0.0169 
     62 H62        16.2851  -22.7111  -44.6843 H         1 UNK         0.0903 
     63 H63        16.9122  -22.2268  -46.2723 H         1 UNK         0.0903 
     64 H64        15.2034  -22.0626  -45.9088 H         1 UNK         0.0903 
     65 H65        16.5826  -25.9102  -46.7268 H         1 UNK         0.3096 
     66 H66        18.5339  -23.8512  -46.3268 H         1 UNK         0.1121 
     67 H67        20.1065  -25.4407  -46.7920 H         1 UNK         0.0849 
     68 H68        18.7661  -26.1390  -47.6240 H         1 UNK         0.0849 
     69 H69        17.0642  -27.5706  -45.3881 H         1 UNK         0.0865 
     70 H70        17.5641  -28.4851  -46.7935 H         1 UNK         0.0865 
     71 H71        18.3238  -30.8180  -46.5495 H         1 UNK         0.1346 
     72 H72        17.6696  -32.7414  -42.7731 H         1 UNK         0.1412 
     73 H73        17.3097  -28.4815  -43.0967 H         1 UNK         0.1426 
     74 H74        16.3367  -29.7734  -41.1283 H         1 UNK         0.0716 
     75 H75        16.6431  -31.4783  -40.9906 H         1 UNK         0.0716 
     76 H76        18.6680  -28.0921  -39.1544 H         1 UNK         0.0695 
     77 H77        17.7070  -28.0191  -40.5958 H         1 UNK         0.0695 
     78 H78        19.9411  -28.4081  -41.9158 H         1 UNK         0.0983 
     79 H79        18.6914  -26.0626  -41.1042 H         1 UNK         0.3095 
     80 H80        18.9861  -24.0703  -41.8993 H         1 UNK         0.0454 
     81 H81        20.5213  -22.2247  -42.3805 H         1 UNK         0.0851 
     82 H82        21.7887  -23.3325  -42.8901 H         1 UNK         0.0851 
     83 H83        21.2778  -23.2890  -41.2079 H         1 UNK         0.0851 
     84 H84        20.1782  -23.9275  -44.5746 H         1 UNK         0.2976 
     85 H85        20.9107  -26.1877  -39.3413 H         1 UNK         0.3116 
     86 H86        22.9374  -27.8207  -38.1449 H         1 UNK         0.0646 
     87 H87        21.9639  -25.8612  -36.9789 H         1 UNK         0.0847 
     88 H88        23.6996  -25.6640  -37.1430 H         1 UNK         0.0847 
     89 H89        22.6181  -24.7693  -38.2003 H         1 UNK         0.0847 
     90 H90        22.9881  -25.5004  -40.8708 H         1 UNK         0.3040 
     91 H91        25.8633  -25.6034  -41.2551 H         1 UNK         0.1015 
     92 H92        23.6809  -24.6650  -43.1922 H         1 UNK         0.0786 
     93 H93        25.3951  -24.3060  -43.2857 H         1 UNK         0.0786 
     94 H94        24.4404  -23.6402  -41.9702 H         1 UNK         0.0786 
     95 H95        23.0406  -27.3031  -42.5595 H         1 UNK         0.3172 
     96 H96        24.4728  -28.9693  -44.4331 H         1 UNK         0.0595 
     97 H97        21.7340  -29.3870  -43.1179 H         1 UNK         0.0839 
     98 H98        22.3259  -30.1870  -44.5637 H         1 UNK         0.0839 
     99 H99        22.0180  -28.4596  -44.5892 H         1 UNK         0.0839 
    100 H100       24.5796  -28.9523  -41.0723 H         1 UNK         0.2998 
    101 H101       25.2733  -30.2712  -39.4470 H         1 UNK         0.0822 
    102 H102       27.0141  -31.9629  -39.9311 H         1 UNK         0.0787 
    103 H103       26.5962  -31.9620  -41.6378 H         1 UNK         0.0787 
    104 H104       27.2948  -30.5226  -40.8965 H         1 UNK         0.0787 
    105 H105       22.6884  -30.6072  -39.9943 H         1 UNK         0.3055 
    106 H106       20.8861  -31.8242  -39.6681 H         1 UNK         0.1106 
    107 H107       22.0208  -32.5876  -37.5638 H         1 UNK         0.0828 
    108 H108       20.9196  -33.7961  -38.2010 H         1 UNK         0.0828 
    109 H109       22.6506  -33.9951  -38.4202 H         1 UNK         0.0828 
    110 H110       22.3637  -32.0253  -42.1504 H         1 UNK         0.2931 
    111 H111       22.2027  -32.8666  -44.1283 H         1 UNK         0.0412 
    112 H112       24.0123  -34.1585  -41.8511 H         1 UNK         0.3472 
    113 H113       24.6844  -35.5076  -42.7347 H         1 UNK         0.3472 
    114 H114       19.7221  -33.7385  -43.1742 H         1 UNK         0.0970 
    115 H115       20.3919  -35.2278  -43.7314 H         1 UNK         0.0970 
    116 H116       17.7756  -34.0721  -44.8300 H         1 UNK         0.0612 
    117 H117       17.8307  -33.2802  -46.3814 H         1 UNK         0.0612 
@<TRIPOS>BOND
     1    1    2 1    
     2    1   62 1    
     3    1   63 1    
     4    1   64 1    
     5    2    3 2    
     6    2    4 am   BACKBONE|DICT|INTERRES
     7    4    5 1    
     8    4   65 1    
     9    5    6 1    
    10    5   25 1    
    11    5   66 1    
    12    6    7 1    
    13    6   67 1    
    14    6   68 1    
    15    7    8 1    
    16    8    9 1    
    17    8   69 1    
    18    8   70 1    
    19    9   10 ar   
    20    9   14 ar   
    21   10   11 ar   
    22   10   71 1    
    23   11   12 ar   
    24   11   61 1    
    25   12   13 ar   
    26   12   72 1    
    27   13   14 ar   
    28   13   15 1    
    29   14   73 1    
    30   15   16 1    
    31   15   74 1    
    32   15   75 1    
    33   16   17 1    
    34   17   18 1    
    35   17   76 1    
    36   17   77 1    
    37   18   19 1    
    38   18   27 1    
    39   18   78 1    
    40   19   20 am   BACKBONE|DICT|INTERRES
    41   19   79 1    
    42   20   21 2    
    43   20   22 1    
    44   22   23 1    
    45   22   24 1    
    46   22   80 1    
    47   23   81 1    
    48   23   82 1    
    49   23   83 1    
    50   24   25 am   BACKBONE|DICT|INTERRES
    51   24   84 1    
    52   25   26 2    
    53   27   28 2    
    54   27   29 am   BACKBONE|DICT|INTERRES
    55   29   30 1    
    56   29   85 1    
    57   30   31 1    
    58   30   32 1    
    59   30   86 1    
    60   31   87 1    
    61   31   88 1    
    62   31   89 1    
    63   32   33 2    
    64   32   34 am   BACKBONE|DICT|INTERRES
    65   34   35 1    
    66   34   90 1    
    67   35   36 1    
    68   35   37 1    
    69   35   91 1    
    70   36   92 1    
    71   36   93 1    
    72   36   94 1    
    73   37   38 2    
    74   37   39 am   BACKBONE|DICT|INTERRES
    75   39   40 1    
    76   39   95 1    
    77   40   41 1    
    78   40   42 1    
    79   40   96 1    
    80   41   97 1    
    81   41   98 1    
    82   41   99 1    
    83   42   43 2    
    84   42   44 am   BACKBONE|DICT|INTERRES
    85   44   45 1    
    86   44  100 1    
    87   45   46 1    
    88   45   47 1    
    89   45  101 1    
    90   46  102 1    
    91   46  103 1    
    92   46  104 1    
    93   47   48 2    
    94   47   49 am   BACKBONE|DICT|INTERRES
    95   49   50 1    
    96   49  105 1    
    97   50   51 1    
    98   50   52 1    
    99   50  106 1    
   100   51  107 1    
   101   51  108 1    
   102   51  109 1    
   103   52   53 2    
   104   52   54 am   BACKBONE|DICT|INTERRES
   105   54   55 1    
   106   54  110 1    
   107   55   56 1    
   108   55   59 1    
   109   55  111 1    
   110   56   57 am   BACKBONE|DICT|INTERRES
   111   56   58 2    
   112   57  112 1    
   113   57  113 1    
   114   59   60 1    
   115   59  114 1    
   116   59  115 1    
   117   60   61 1    
   118   61  116 1    
   119   61  117 1    
@<TRIPOS>SUBSTRUCTURE
     1 UNK         1 GROUP             0       ****    0 ROOT    
