@<TRIPOS>MOLECULE
3R8
117   119    1
SMALL
USER_CHARGES


@<TRIPOS>ATOM
      1 CA         19.9297  -22.6048  -49.5000 C.3       0 UNK        -0.2013 
      2 C          20.3428  -23.2543  -48.1878 C.2       0 UNK         0.4866 
      3 O          21.0374  -22.6276  -47.3876 O.2       0 UNK        -0.5176 
      4 N          19.9227  -24.5070  -47.9618 N.am      1 UNK        -0.4884 
      5 CA         20.2091  -25.2796  -46.7442 C.3       1 UNK         0.0853 
      6 C6         19.9168  -26.7891  -46.9602 C.3       10 UNK        -0.0849 
      7 S7         20.9926  -27.8639  -45.9569 S.3       10 UNK        -0.2776 
      8 C8         20.1869  -29.4845  -46.1727 C.3       10 UNK         0.0316 
      9 C9         19.4752  -29.9216  -44.9011 C.ar      10 UNK        -0.0863 
     10 C10        20.2229  -30.4486  -43.8446 C.ar      10 UNK        -0.1009 
     11 C11        19.5997  -30.8500  -42.6616 C.ar      10 UNK        -0.0712 
     12 C12        18.2116  -30.7357  -42.5458 C.ar      10 UNK        -0.0894 
     13 C13        17.4462  -30.2173  -43.5967 C.ar      10 UNK        -0.0745 
     14 C14        18.0854  -29.8129  -44.7760 C.ar      10 UNK        -0.0972 
     15 C15        15.9321  -30.0935  -43.4510 C.3       10 UNK         0.0209 
     16 S16        15.4424  -29.1008  -41.9967 S.3       10 UNK        -0.2568 
     17 C17        15.5700  -27.3845  -42.6073 C.3       10 UNK        -0.0983 
     18 CA         17.0297  -26.8754  -42.7363 C.3       3 UNK         0.0876 
     19 N          17.1787  -25.8355  -43.7534 N.am      3 UNK        -0.4424 
     20 C          16.8035  -24.5531  -43.6675 C.2       2 UNK         0.4918 
     21 O          16.1098  -24.1030  -42.7550 O.2       2 UNK        -0.4875 
     22 CA         17.2999  -23.6040  -44.7814 C.3       2 UNK         0.0481 
     23 CB         17.9000  -22.3128  -44.1880 C.3       2 UNK        -0.1831 
     24 N          18.2385  -24.2042  -45.7468 N.am      2 UNK        -0.4498 
     25 C          19.4537  -24.7327  -45.5130 C.2       1 UNK         0.5027 
     26 O          19.9564  -24.8278  -44.3918 O.2       1 UNK        -0.4969 
     27 C          17.7379  -26.5073  -41.4122 C.2       3 UNK         0.5005 
     28 O          17.2084  -26.7368  -40.3223 O.2       3 UNK        -0.5279 
     29 N          18.9445  -25.9361  -41.5445 N.am      4 UNK        -0.4463 
     30 CA         19.8943  -25.7262  -40.4535 C.3       4 UNK         0.0283 
     31 CB         20.9726  -24.7391  -40.9309 C.3       4 UNK        -0.1875 
     32 C          20.5356  -27.0574  -40.0234 C.2       4 UNK         0.4949 
     33 O          20.5008  -28.0341  -40.7761 O.2       4 UNK        -0.5039 
     34 N          21.1621  -27.0671  -38.8402 N.am      5 UNK        -0.4663 
     35 CA         21.8921  -28.2104  -38.2758 C.3       5 UNK         0.0242 
     36 CB         22.0373  -28.0057  -36.7560 C.3       5 UNK        -0.1982 
     37 C          23.2479  -28.4516  -38.9763 C.2       5 UNK         0.5017 
     38 O          24.2977  -28.4167  -38.3309 O.2       5 UNK        -0.5012 
     39 N          23.1958  -28.6593  -40.2962 N.am      6 UNK        -0.4439 
     40 CA         24.3308  -28.9391  -41.1716 C.3       6 UNK         0.0297 
     41 CB         23.8731  -28.7819  -42.6314 C.3       6 UNK        -0.2006 
     42 C          24.9046  -30.3456  -40.9399 C.2       6 UNK         0.4892 
     43 O          24.1875  -31.2428  -40.4876 O.2       6 UNK        -0.5089 
     44 N          26.1774  -30.5211  -41.3238 N.am      7 UNK        -0.4243 
     45 CA         26.9508  -31.7651  -41.2077 C.3       7 UNK         0.0196 
     46 CB         28.3852  -31.5147  -41.7004 C.3       7 UNK        -0.2007 
     47 C          26.3401  -32.9788  -41.9329 C.2       7 UNK         0.5020 
     48 O          26.6240  -34.1125  -41.5464 O.2       7 UNK        -0.5147 
     49 N          25.4778  -32.7302  -42.9294 N.am      8 UNK        -0.4734 
     50 CA         24.6625  -33.7353  -43.6202 C.3       8 UNK         0.0238 
     51 CB         23.8643  -33.0484  -44.7410 C.3       8 UNK        -0.1912 
     52 C          23.7111  -34.5157  -42.6906 C.2       8 UNK         0.5038 
     53 O          23.3843  -35.6618  -43.0022 O.2       8 UNK        -0.5046 
     54 N          23.3070  -33.8964  -41.5735 N.am      9 UNK        -0.4200 
     55 CA         22.5127  -34.5152  -40.5021 C.3       9 UNK         0.0839 
     56 C          23.3823  -35.0658  -39.3335 C.2       9 UNK         0.5513 
     57 N          24.7083  -35.0628  -39.4153 N.am      9 UNK        -0.7519 
     58 O          22.8423  -35.5280  -38.3316 O.2       9 UNK        -0.4960 
     59 C59        21.3994  -33.5594  -39.9978 C.3       10 UNK        -0.0876 
     60 S60        20.1874  -33.1805  -41.3083 S.3       10 UNK        -0.2414 
     61 C61        20.4260  -31.3905  -41.5045 C.3       10 UNK         0.0169 
     62 H62        20.8127  -22.3252  -50.0742 H         1 UNK         0.0903 
     63 H63        19.3238  -23.2712  -50.1136 H         1 UNK         0.0903 
     64 H64        19.3503  -21.7026  -49.3057 H         1 UNK         0.0903 
     65 H65        19.3672  -24.9748  -48.6648 H         1 UNK         0.3096 
     66 H66        21.2756  -25.1577  -46.5387 H         1 UNK         0.1121 
     67 H67        20.1028  -27.0615  -48.0007 H         1 UNK         0.0849 
     68 H68        18.8681  -27.0310  -46.7748 H         1 UNK         0.0849 
     69 H69        19.4957  -29.4624  -47.0167 H         1 UNK         0.0865 
     70 H70        20.9487  -30.2218  -46.4311 H         1 UNK         0.0865 
     71 H71        21.2953  -30.5358  -43.9439 H         1 UNK         0.1346 
     72 H72        17.7266  -31.0460  -41.6303 H         1 UNK         0.1412 
     73 H73        17.5032  -29.4095  -45.5933 H         1 UNK         0.1426 
     74 H74        15.5149  -31.0954  -43.3421 H         1 UNK         0.0716 
     75 H75        15.4806  -29.6708  -44.3498 H         1 UNK         0.0716 
     76 H76        14.9904  -26.7298  -41.9542 H         1 UNK         0.0695 
     77 H77        15.0719  -27.3474  -43.5774 H         1 UNK         0.0695 
     78 H78        17.6348  -27.6896  -43.1238 H         1 UNK         0.0983 
     79 H79        17.7465  -26.0876  -44.5479 H         1 UNK         0.3095 
     80 H80        16.4155  -23.3253  -45.3558 H         1 UNK         0.0454 
     81 H81        18.2279  -21.6304  -44.9720 H         1 UNK         0.0851 
     82 H82        18.7567  -22.5221  -43.5463 H         1 UNK         0.0851 
     83 H83        17.1660  -21.7789  -43.5833 H         1 UNK         0.0851 
     84 H84        17.9268  -24.1932  -46.7084 H         1 UNK         0.2976 
     85 H85        19.2997  -25.7713  -42.4793 H         1 UNK         0.3116 
     86 H86        19.3656  -25.2963  -39.6002 H         1 UNK         0.0646 
     87 H87        21.5384  -25.1381  -41.7743 H         1 UNK         0.0847 
     88 H88        20.5324  -23.7924  -41.2448 H         1 UNK         0.0847 
     89 H89        21.6856  -24.5156  -40.1365 H         1 UNK         0.0847 
     90 H90        21.1800  -26.2153  -38.2972 H         1 UNK         0.3040 
     91 H91        21.2943  -29.1118  -38.4309 H         1 UNK         0.1015 
     92 H92        22.5389  -28.8568  -36.2931 H         1 UNK         0.0786 
     93 H93        21.0645  -27.9061  -36.2740 H         1 UNK         0.0786 
     94 H94        22.6218  -27.1151  -36.5217 H         1 UNK         0.0786 
     95 H95        22.2727  -28.6420  -40.7238 H         1 UNK         0.3172 
     96 H96        25.1100  -28.2029  -40.9634 H         1 UNK         0.0595 
     97 H97        24.7032  -28.9201  -43.3251 H         1 UNK         0.0839 
     98 H98        23.4630  -27.7884  -42.8157 H         1 UNK         0.0839 
     99 H99        23.1058  -29.5105  -42.8916 H         1 UNK         0.0839 
    100 H100       26.6732  -29.7268  -41.7032 H         1 UNK         0.2998 
    101 H101       26.9924  -32.0197  -40.1465 H         1 UNK         0.0822 
    102 H102       28.9957  -32.4135  -41.6000 H         1 UNK         0.0787 
    103 H103       28.8734  -30.7296  -41.1226 H         1 UNK         0.0787 
    104 H104       28.4058  -31.2229  -42.7513 H         1 UNK         0.0787 
    105 H105       25.3149  -31.7657  -43.1780 H         1 UNK         0.3055 
    106 H106       25.3427  -34.4617  -44.0704 H         1 UNK         0.1106 
    107 H107       24.5236  -32.5602  -45.4589 H         1 UNK         0.0828 
    108 H108       23.2667  -33.7739  -45.2949 H         1 UNK         0.0828 
    109 H109       23.1787  -32.2974  -44.3464 H         1 UNK         0.0828 
    110 H110       23.6521  -32.9631  -41.3728 H         1 UNK         0.2931 
    111 H111       22.0085  -35.3953  -40.9054 H         1 UNK         0.0412 
    112 H112       25.1867  -34.7192  -40.2397 H         1 UNK         0.3472 
    113 H113       25.2448  -35.4329  -38.6469 H         1 UNK         0.3472 
    114 H114       21.8347  -32.6394  -39.6028 H         1 UNK         0.0970 
    115 H115       20.8462  -34.0106  -39.1721 H         1 UNK         0.0970 
    116 H116       21.4863  -31.1830  -41.6590 H         1 UNK         0.0612 
    117 H117       20.1403  -30.8817  -40.5827 H         1 UNK         0.0612 
@<TRIPOS>BOND
     1    1    2 1    
     2    1   62 1    
     3    1   63 1    
     4    1   64 1    
     5    2    3 2    
     6    2    4 am   BACKBONE|DICT|INTERRES
     7    4    5 1    
     8    4   65 1    
     9    5    6 1    
    10    5   25 1    
    11    5   66 1    
    12    6    7 1    
    13    6   67 1    
    14    6   68 1    
    15    7    8 1    
    16    8    9 1    
    17    8   69 1    
    18    8   70 1    
    19    9   10 ar   
    20    9   14 ar   
    21   10   11 ar   
    22   10   71 1    
    23   11   12 ar   
    24   11   61 1    
    25   12   13 ar   
    26   12   72 1    
    27   13   14 ar   
    28   13   15 1    
    29   14   73 1    
    30   15   16 1    
    31   15   74 1    
    32   15   75 1    
    33   16   17 1    
    34   17   18 1    
    35   17   76 1    
    36   17   77 1    
    37   18   19 1    
    38   18   27 1    
    39   18   78 1    
    40   19   20 am   BACKBONE|DICT|INTERRES
    41   19   79 1    
    42   20   21 2    
    43   20   22 1    
    44   22   23 1    
    45   22   24 1    
    46   22   80 1    
    47   23   81 1    
    48   23   82 1    
    49   23   83 1    
    50   24   25 am   BACKBONE|DICT|INTERRES
    51   24   84 1    
    52   25   26 2    
    53   27   28 2    
    54   27   29 am   BACKBONE|DICT|INTERRES
    55   29   30 1    
    56   29   85 1    
    57   30   31 1    
    58   30   32 1    
    59   30   86 1    
    60   31   87 1    
    61   31   88 1    
    62   31   89 1    
    63   32   33 2    
    64   32   34 am   BACKBONE|DICT|INTERRES
    65   34   35 1    
    66   34   90 1    
    67   35   36 1    
    68   35   37 1    
    69   35   91 1    
    70   36   92 1    
    71   36   93 1    
    72   36   94 1    
    73   37   38 2    
    74   37   39 am   BACKBONE|DICT|INTERRES
    75   39   40 1    
    76   39   95 1    
    77   40   41 1    
    78   40   42 1    
    79   40   96 1    
    80   41   97 1    
    81   41   98 1    
    82   41   99 1    
    83   42   43 2    
    84   42   44 am   BACKBONE|DICT|INTERRES
    85   44   45 1    
    86   44  100 1    
    87   45   46 1    
    88   45   47 1    
    89   45  101 1    
    90   46  102 1    
    91   46  103 1    
    92   46  104 1    
    93   47   48 2    
    94   47   49 am   BACKBONE|DICT|INTERRES
    95   49   50 1    
    96   49  105 1    
    97   50   51 1    
    98   50   52 1    
    99   50  106 1    
   100   51  107 1    
   101   51  108 1    
   102   51  109 1    
   103   52   53 2    
   104   52   54 am   BACKBONE|DICT|INTERRES
   105   54   55 1    
   106   54  110 1    
   107   55   56 1    
   108   55   59 1    
   109   55  111 1    
   110   56   57 am   BACKBONE|DICT|INTERRES
   111   56   58 2    
   112   57  112 1    
   113   57  113 1    
   114   59   60 1    
   115   59  114 1    
   116   59  115 1    
   117   60   61 1    
   118   61  116 1    
   119   61  117 1    
@<TRIPOS>SUBSTRUCTURE
     1 UNK         1 GROUP             0       ****    0 ROOT    
