@<TRIPOS>MOLECULE
3R8
117   119    1
SMALL
USER_CHARGES


@<TRIPOS>ATOM
      1 CA         17.0268  -23.9639  -39.4334 C.3       0 UNK        -0.2013 
      2 C          17.1059  -24.1696  -40.9389 C.2       0 UNK         0.4866 
      3 O          16.7398  -23.2735  -41.7005 O.2       0 UNK        -0.5176 
      4 N          17.5715  -25.3471  -41.3725 N.am      1 UNK        -0.4884 
      5 CA         17.7579  -25.7110  -42.7812 C.3       1 UNK         0.0853 
      6 C6         17.9626  -27.2348  -42.9583 C.3       10 UNK        -0.0849 
      7 S7         16.5574  -28.2138  -42.3188 S.3       10 UNK        -0.2776 
      8 C8         16.1692  -29.3227  -43.7136 C.3       10 UNK         0.0316 
      9 C9         17.3779  -30.1364  -44.1580 C.ar      10 UNK        -0.0863 
     10 C10        17.9372  -31.0997  -43.3126 C.ar      10 UNK        -0.1009 
     11 C11        19.0706  -31.8238  -43.6976 C.ar      10 UNK        -0.0712 
     12 C12        19.6389  -31.5692  -44.9552 C.ar      10 UNK        -0.0894 
     13 C13        19.0828  -30.6181  -45.8153 C.ar      10 UNK        -0.0745 
     14 C14        17.9455  -29.9134  -45.4148 C.ar      10 UNK        -0.0972 
     15 C15        19.7067  -30.3617  -47.1818 C.3       10 UNK         0.0209 
     16 S16        20.1903  -28.6211  -47.4203 S.3       10 UNK        -0.2568 
     17 C17        21.5097  -28.4293  -46.1761 C.3       10 UNK        -0.0983 
     18 CA         22.0418  -26.9760  -46.1314 C.3       3 UNK         0.0876 
     19 N          20.9840  -26.0241  -45.7791 N.am      3 UNK        -0.4424 
     20 C          21.0839  -24.6901  -45.8460 C.2       2 UNK         0.4918 
     21 O          22.0928  -24.0996  -46.2345 O.2       2 UNK        -0.4875 
     22 CA         19.8443  -23.8638  -45.4500 C.3       2 UNK         0.0481 
     23 CB         19.1813  -23.2677  -46.7030 C.3       2 UNK        -0.1831 
     24 N          18.8360  -24.6138  -44.6918 N.am      2 UNK        -0.4498 
     25 C          18.9440  -24.9381  -43.3959 C.2       1 UNK         0.5027 
     26 O          19.9317  -24.6776  -42.7042 O.2       1 UNK        -0.4969 
     27 C          23.2390  -26.8632  -45.1663 C.2       3 UNK         0.5005 
     28 O          23.0394  -26.7007  -43.9603 O.2       3 UNK        -0.5279 
     29 N          24.4605  -26.9891  -45.7067 N.am      4 UNK        -0.4463 
     30 CA         25.7320  -26.8321  -44.9846 C.3       4 UNK         0.0283 
     31 CB         26.8951  -26.9050  -45.9874 C.3       4 UNK        -0.1875 
     32 C          25.9552  -27.8333  -43.8352 C.2       4 UNK         0.4949 
     33 O          26.7123  -27.5323  -42.9126 O.2       4 UNK        -0.5039 
     34 N          25.2833  -28.9902  -43.8976 N.am      5 UNK        -0.4663 
     35 CA         25.2710  -30.0104  -42.8461 C.3       5 UNK         0.0242 
     36 CB         24.8433  -31.3493  -43.4707 C.3       5 UNK        -0.1982 
     37 C          24.3660  -29.6529  -41.6477 C.2       5 UNK         0.5017 
     38 O          24.4075  -30.3722  -40.6473 O.2       5 UNK        -0.5012 
     39 N          23.5689  -28.5769  -41.7696 N.am      6 UNK        -0.4439 
     40 CA         22.5362  -28.0990  -40.8416 C.3       6 UNK         0.0297 
     41 CB         23.1307  -27.7997  -39.4474 C.3       6 UNK        -0.2006 
     42 C          21.3253  -29.0475  -40.7673 C.2       6 UNK         0.4892 
     43 O          21.3192  -30.1064  -41.3959 O.2       6 UNK        -0.5089 
     44 N          20.3108  -28.6532  -39.9841 N.am      7 UNK        -0.4243 
     45 CA         19.0739  -29.4176  -39.7723 C.3       7 UNK         0.0196 
     46 CB         18.0923  -28.5765  -38.9402 C.3       7 UNK        -0.2007 
     47 C          19.2890  -30.7929  -39.1149 C.2       7 UNK         0.5020 
     48 O          18.4840  -31.6994  -39.3271 O.2       7 UNK        -0.5147 
     49 N          20.3760  -30.9271  -38.3438 N.am      8 UNK        -0.4734 
     50 CA         20.8134  -32.1809  -37.7295 C.3       8 UNK         0.0238 
     51 CB         21.7990  -31.8593  -36.5936 C.3       8 UNK        -0.1912 
     52 C          21.4533  -33.1650  -38.7268 C.2       8 UNK         0.5038 
     53 O          21.5324  -34.3518  -38.4073 O.2       8 UNK        -0.5046 
     54 N          21.9031  -32.6709  -39.8911 N.am      9 UNK        -0.4200 
     55 CA         22.6466  -33.4135  -40.9193 C.3       9 UNK         0.0839 
     56 C          23.9816  -33.9958  -40.3705 C.2       9 UNK         0.5513 
     57 N          24.8846  -33.1357  -39.9185 N.am      9 UNK        -0.7519 
     58 O          24.2057  -35.2037  -40.3431 O.2       9 UNK        -0.4960 
     59 C59        21.7514  -34.4308  -41.6946 C.3       10 UNK        -0.0876 
     60 S60        21.1443  -33.7247  -43.2604 S.3       10 UNK        -0.2414 
     61 C61        19.6425  -32.8448  -42.7087 C.3       10 UNK         0.0169 
     62 H62        17.3741  -24.8379  -38.8826 H         1 UNK         0.0903 
     63 H63        17.6393  -23.1121  -39.1388 H         1 UNK         0.0903 
     64 H64        15.9979  -23.7630  -39.1359 H         1 UNK         0.0903 
     65 H65        17.8609  -26.0453  -40.7050 H         1 UNK         0.3096 
     66 H66        16.8507  -25.4224  -43.3177 H         1 UNK         0.1121 
     67 H67        18.8694  -27.5685  -42.4497 H         1 UNK         0.0849 
     68 H68        18.1083  -27.4669  -44.0140 H         1 UNK         0.0849 
     69 H69        15.7725  -28.7291  -44.5388 H         1 UNK         0.0865 
     70 H70        15.3696  -30.0020  -43.4149 H         1 UNK         0.0865 
     71 H71        17.4979  -31.2722  -42.3390 H         1 UNK         0.1346 
     72 H72        20.5185  -32.1045  -45.2801 H         1 UNK         0.1412 
     73 H73        17.5169  -29.1753  -46.0791 H         1 UNK         0.1426 
     74 H74        18.9854  -30.6341  -47.9533 H         1 UNK         0.0716 
     75 H75        20.5805  -30.9956  -47.3407 H         1 UNK         0.0716 
     76 H76        22.3101  -29.1291  -46.4243 H         1 UNK         0.0695 
     77 H77        21.1262  -28.7287  -45.1981 H         1 UNK         0.0695 
     78 H78        22.3909  -26.7084  -47.1314 H         1 UNK         0.0983 
     79 H79        20.1198  -26.4253  -45.4524 H         1 UNK         0.3095 
     80 H80        20.1932  -23.0358  -44.8291 H         1 UNK         0.0454 
     81 H81        18.3489  -22.6146  -46.4405 H         1 UNK         0.0851 
     82 H82        18.8043  -24.0441  -47.3698 H         1 UNK         0.0851 
     83 H83        19.8916  -22.6672  -47.2733 H         1 UNK         0.0851 
     84 H84        17.9956  -24.8659  -45.1932 H         1 UNK         0.2976 
     85 H85        24.5336  -27.1411  -46.7032 H         1 UNK         0.3116 
     86 H86        25.7294  -25.8345  -44.5404 H         1 UNK         0.0646 
     87 H87        27.8533  -26.7615  -45.4856 H         1 UNK         0.0847 
     88 H88        26.8143  -26.1297  -46.7495 H         1 UNK         0.0847 
     89 H89        26.9345  -27.8716  -46.4914 H         1 UNK         0.0847 
     90 H90        24.6918  -29.1546  -44.6989 H         1 UNK         0.3040 
     91 H91        26.2870  -30.1223  -42.4606 H         1 UNK         0.1015 
     92 H92        25.4442  -31.5925  -44.3471 H         1 UNK         0.0786 
     93 H93        23.7942  -31.3398  -43.7712 H         1 UNK         0.0786 
     94 H94        24.9751  -32.1662  -42.7613 H         1 UNK         0.0786 
     95 H95        23.5983  -28.0649  -42.6469 H         1 UNK         0.3172 
     96 H96        22.1735  -27.1604  -41.2638 H         1 UNK         0.0595 
     97 H97        23.3836  -28.7113  -38.9052 H         1 UNK         0.0839 
     98 H98        22.4311  -27.2389  -38.8274 H         1 UNK         0.0839 
     99 H99        24.0362  -27.1979  -39.5259 H         1 UNK         0.0839 
    100 H100       20.3873  -27.7722  -39.4970 H         1 UNK         0.2998 
    101 H101       18.6319  -29.6019  -40.7527 H         1 UNK         0.0822 
    102 H102       17.8535  -27.6361  -39.4345 H         1 UNK         0.0787 
    103 H103       17.1507  -29.1087  -38.7966 H         1 UNK         0.0787 
    104 H104       18.4920  -28.3475  -37.9516 H         1 UNK         0.0787 
    105 H105       20.9740  -30.1234  -38.2197 H         1 UNK         0.3055 
    106 H106       19.9411  -32.6781  -37.2987 H         1 UNK         0.1106 
    107 H107       22.1216  -32.7703  -36.0874 H         1 UNK         0.0828 
    108 H108       22.6949  -31.3598  -36.9651 H         1 UNK         0.0828 
    109 H109       21.3423  -31.2175  -35.8399 H         1 UNK         0.0828 
    110 H110       21.7713  -31.6864  -40.0928 H         1 UNK         0.2931 
    111 H111       22.9647  -32.6483  -41.6269 H         1 UNK         0.0412 
    112 H112       24.7151  -32.1355  -39.9921 H         1 UNK         0.3472 
    113 H113       25.7579  -33.4761  -39.5492 H         1 UNK         0.3472 
    114 H114       22.3026  -35.3312  -41.9691 H         1 UNK         0.0970 
    115 H115       20.9120  -34.7797  -41.0917 H         1 UNK         0.0970 
    116 H116       18.8753  -33.5838  -42.4741 H         1 UNK         0.0612 
    117 H117       19.8666  -32.3249  -41.7779 H         1 UNK         0.0612 
@<TRIPOS>BOND
     1    1    2 1    
     2    1   62 1    
     3    1   63 1    
     4    1   64 1    
     5    2    3 2    
     6    2    4 am   BACKBONE|DICT|INTERRES
     7    4    5 1    
     8    4   65 1    
     9    5    6 1    
    10    5   25 1    
    11    5   66 1    
    12    6    7 1    
    13    6   67 1    
    14    6   68 1    
    15    7    8 1    
    16    8    9 1    
    17    8   69 1    
    18    8   70 1    
    19    9   10 ar   
    20    9   14 ar   
    21   10   11 ar   
    22   10   71 1    
    23   11   12 ar   
    24   11   61 1    
    25   12   13 ar   
    26   12   72 1    
    27   13   14 ar   
    28   13   15 1    
    29   14   73 1    
    30   15   16 1    
    31   15   74 1    
    32   15   75 1    
    33   16   17 1    
    34   17   18 1    
    35   17   76 1    
    36   17   77 1    
    37   18   19 1    
    38   18   27 1    
    39   18   78 1    
    40   19   20 am   BACKBONE|DICT|INTERRES
    41   19   79 1    
    42   20   21 2    
    43   20   22 1    
    44   22   23 1    
    45   22   24 1    
    46   22   80 1    
    47   23   81 1    
    48   23   82 1    
    49   23   83 1    
    50   24   25 am   BACKBONE|DICT|INTERRES
    51   24   84 1    
    52   25   26 2    
    53   27   28 2    
    54   27   29 am   BACKBONE|DICT|INTERRES
    55   29   30 1    
    56   29   85 1    
    57   30   31 1    
    58   30   32 1    
    59   30   86 1    
    60   31   87 1    
    61   31   88 1    
    62   31   89 1    
    63   32   33 2    
    64   32   34 am   BACKBONE|DICT|INTERRES
    65   34   35 1    
    66   34   90 1    
    67   35   36 1    
    68   35   37 1    
    69   35   91 1    
    70   36   92 1    
    71   36   93 1    
    72   36   94 1    
    73   37   38 2    
    74   37   39 am   BACKBONE|DICT|INTERRES
    75   39   40 1    
    76   39   95 1    
    77   40   41 1    
    78   40   42 1    
    79   40   96 1    
    80   41   97 1    
    81   41   98 1    
    82   41   99 1    
    83   42   43 2    
    84   42   44 am   BACKBONE|DICT|INTERRES
    85   44   45 1    
    86   44  100 1    
    87   45   46 1    
    88   45   47 1    
    89   45  101 1    
    90   46  102 1    
    91   46  103 1    
    92   46  104 1    
    93   47   48 2    
    94   47   49 am   BACKBONE|DICT|INTERRES
    95   49   50 1    
    96   49  105 1    
    97   50   51 1    
    98   50   52 1    
    99   50  106 1    
   100   51  107 1    
   101   51  108 1    
   102   51  109 1    
   103   52   53 2    
   104   52   54 am   BACKBONE|DICT|INTERRES
   105   54   55 1    
   106   54  110 1    
   107   55   56 1    
   108   55   59 1    
   109   55  111 1    
   110   56   57 am   BACKBONE|DICT|INTERRES
   111   56   58 2    
   112   57  112 1    
   113   57  113 1    
   114   59   60 1    
   115   59  114 1    
   116   59  115 1    
   117   60   61 1    
   118   61  116 1    
   119   61  117 1    
@<TRIPOS>SUBSTRUCTURE
     1 UNK         1 GROUP             0       ****    0 ROOT    
