@<TRIPOS>MOLECULE
3R8
117   119    1
SMALL
USER_CHARGES


@<TRIPOS>ATOM
      1 CA         18.3186  -29.4400  -41.8481 C.3       0 UNK        -0.2013 
      2 C          17.1913  -28.5415  -42.3259 C.2       0 UNK         0.4866 
      3 O          16.5608  -27.8751  -41.5057 O.2       0 UNK        -0.5176 
      4 N          16.9282  -28.5104  -43.6410 N.am      1 UNK        -0.4884 
      5 CA         15.8761  -27.6788  -44.2436 C.3       1 UNK         0.0853 
      6 C6         15.4987  -28.1528  -45.6711 C.3       10 UNK        -0.0849 
      7 S7         16.7697  -27.8639  -46.9556 S.3       10 UNK        -0.2776 
      8 C8         17.3435  -29.5464  -47.3462 C.3       10 UNK         0.0316 
      9 C9         18.3685  -30.0646  -46.3463 C.ar      10 UNK        -0.0863 
     10 C10        18.1274  -31.2433  -45.6339 C.ar      10 UNK        -0.1009 
     11 C11        19.1065  -31.7718  -44.7877 C.ar      10 UNK        -0.0712 
     12 C12        20.3250  -31.1005  -44.6406 C.ar      10 UNK        -0.0894 
     13 C13        20.5754  -29.9127  -45.3333 C.ar      10 UNK        -0.0745 
     14 C14        19.5933  -29.4058  -46.1910 C.ar      10 UNK        -0.0972 
     15 C15        21.9384  -29.2350  -45.2209 C.3       10 UNK         0.0209 
     16 S16        21.8370  -27.4496  -44.8683 S.3       10 UNK        -0.2568 
     17 C17        21.5760  -27.4421  -43.0672 C.3       10 UNK        -0.0983 
     18 CA         21.2102  -26.0302  -42.5406 C.3       3 UNK         0.0876 
     19 N          19.8739  -25.6334  -42.9744 N.am      3 UNK        -0.4424 
     20 C          19.5832  -24.6676  -43.8534 C.2       2 UNK         0.4918 
     21 O          20.4260  -23.9428  -44.3836 O.2       2 UNK        -0.4875 
     22 CA         18.0972  -24.5233  -44.2238 C.3       2 UNK         0.0481 
     23 CB         17.8720  -23.7359  -45.5301 C.3       2 UNK        -0.1831 
     24 N          17.5033  -25.8543  -44.3244 N.am      2 UNK        -0.4498 
     25 C          16.2112  -26.1708  -44.1818 C.2       1 UNK         0.5027 
     26 O          15.3153  -25.3483  -43.9847 O.2       1 UNK        -0.4969 
     27 C          21.1868  -26.0165  -41.0006 C.2       3 UNK         0.5005 
     28 O          20.3273  -26.6957  -40.4398 O.2       3 UNK        -0.5279 
     29 N          22.0665  -25.3012  -40.2802 N.am      4 UNK        -0.4463 
     30 CA         23.1153  -24.3517  -40.6845 C.3       4 UNK         0.0283 
     31 CB         22.5165  -23.0735  -41.3123 C.3       4 UNK        -0.1875 
     32 C          24.2763  -24.9593  -41.4966 C.2       4 UNK         0.4949 
     33 O          24.8929  -24.2580  -42.2987 O.2       4 UNK        -0.5039 
     34 N          24.5659  -26.2431  -41.2631 N.am      5 UNK        -0.4663 
     35 CA         25.6965  -26.9810  -41.8233 C.3       5 UNK         0.0242 
     36 CB         25.4173  -27.3837  -43.2861 C.3       5 UNK        -0.1982 
     37 C          25.9294  -28.2228  -40.9568 C.2       5 UNK         0.5017 
     38 O          25.0291  -28.6249  -40.2163 O.2       5 UNK        -0.5012 
     39 N          27.1045  -28.8490  -41.1011 N.am      6 UNK        -0.4439 
     40 CA         27.4564  -30.1098  -40.4319 C.3       6 UNK         0.0297 
     41 CB         28.9521  -30.3963  -40.6429 C.3       6 UNK        -0.2006 
     42 C          26.6080  -31.3130  -40.8926 C.2       6 UNK         0.4892 
     43 O          26.4823  -32.2858  -40.1490 O.2       6 UNK        -0.5089 
     44 N          26.0362  -31.2167  -42.1003 N.am      7 UNK        -0.4243 
     45 CA         25.1514  -32.2096  -42.7100 C.3       7 UNK         0.0196 
     46 CB         25.2625  -32.0787  -44.2400 C.3       7 UNK        -0.2007 
     47 C          23.6799  -32.0917  -42.2641 C.2       7 UNK         0.5020 
     48 O          22.8585  -32.8629  -42.7600 O.2       7 UNK        -0.5147 
     49 N          23.3495  -31.1268  -41.3896 N.am      8 UNK        -0.4734 
     50 CA         21.9899  -30.8408  -40.9184 C.3       8 UNK         0.0238 
     51 CB         22.0194  -29.6569  -39.9392 C.3       8 UNK        -0.1912 
     52 C          21.3003  -32.0508  -40.2623 C.2       8 UNK         0.5038 
     53 O          21.8105  -32.5888  -39.2776 O.2       8 UNK        -0.5046 
     54 N          20.1422  -32.4241  -40.8139 N.am      9 UNK        -0.4200 
     55 CA         19.2403  -33.4753  -40.3209 C.3       9 UNK         0.0839 
     56 C          18.3095  -33.0354  -39.1516 C.2       9 UNK         0.5513 
     57 N          18.3360  -31.7847  -38.7060 N.am      9 UNK        -0.7519 
     58 O          17.5591  -33.8528  -38.6247 O.2       9 UNK        -0.4960 
     59 C59        18.4538  -34.1344  -41.4910 C.3       10 UNK        -0.0876 
     60 S60        17.7350  -32.9290  -42.6682 S.3       10 UNK        -0.2414 
     61 C61        18.8755  -33.0978  -44.0784 C.3       10 UNK         0.0169 
     62 H62        18.8900  -29.8434  -42.6799 H         1 UNK         0.0903 
     63 H63        18.9975  -28.8827  -41.2043 H         1 UNK         0.0903 
     64 H64        17.9080  -30.2681  -41.2723 H         1 UNK         0.0903 
     65 H65        17.4647  -29.0798  -44.2835 H         1 UNK         0.3096 
     66 H66        14.9829  -27.8095  -43.6275 H         1 UNK         0.1121 
     67 H67        14.5900  -27.6408  -45.9931 H         1 UNK         0.0849 
     68 H68        15.2354  -29.2113  -45.6473 H         1 UNK         0.0849 
     69 H69        16.4882  -30.2191  -47.4268 H         1 UNK         0.0865 
     70 H70        17.8058  -29.5315  -48.3342 H         1 UNK         0.0865 
     71 H71        17.1925  -31.7726  -45.7609 H         1 UNK         0.1346 
     72 H72        21.0932  -31.5224  -44.0099 H         1 UNK         0.1412 
     73 H73        19.7917  -28.5063  -46.7585 H         1 UNK         0.1426 
     74 H74        22.4647  -29.3692  -46.1666 H         1 UNK         0.0716 
     75 H75        22.5548  -29.7138  -44.4582 H         1 UNK         0.0716 
     76 H76        22.4904  -27.8039  -42.5977 H         1 UNK         0.0695 
     77 H77        20.7977  -28.1655  -42.8216 H         1 UNK         0.0695 
     78 H78        21.9512  -25.3306  -42.9198 H         1 UNK         0.0983 
     79 H79        19.1176  -26.1136  -42.5065 H         1 UNK         0.3095 
     80 H80        17.6184  -23.9848  -43.4036 H         1 UNK         0.0454 
     81 H81        18.2924  -22.7319  -45.4614 H         1 UNK         0.0851 
     82 H82        16.8108  -23.6244  -45.7519 H         1 UNK         0.0851 
     83 H83        18.3413  -24.2315  -46.3807 H         1 UNK         0.0851 
     84 H84        18.1508  -26.6083  -44.5115 H         1 UNK         0.2976 
     85 H85        21.9779  -25.3931  -39.2776 H         1 UNK         0.3116 
     86 H86        23.5771  -24.0392  -39.7466 H         1 UNK         0.0646 
     87 H87        22.1063  -23.2349  -42.3072 H         1 UNK         0.0847 
     88 H88        21.7241  -22.6597  -40.6888 H         1 UNK         0.0847 
     89 H89        23.2787  -22.2993  -41.4099 H         1 UNK         0.0847 
     90 H90        24.0557  -26.7558  -40.5530 H         1 UNK         0.3040 
     91 H91        26.5864  -26.3491  -41.7753 H         1 UNK         0.1015 
     92 H92        26.3069  -27.8108  -43.7499 H         1 UNK         0.0786 
     93 H93        25.1232  -26.5277  -43.8937 H         1 UNK         0.0786 
     94 H94        24.6270  -28.1304  -43.3604 H         1 UNK         0.0786 
     95 H95        27.7953  -28.4576  -41.7266 H         1 UNK         0.3172 
     96 H96        27.2822  -29.9806  -39.3615 H         1 UNK         0.0595 
     97 H97        29.1961  -30.5203  -41.6988 H         1 UNK         0.0839 
     98 H98        29.2493  -31.3129  -40.1311 H         1 UNK         0.0839 
     99 H99        29.5716  -29.5920  -40.2455 H         1 UNK         0.0839 
    100 H100       26.2064  -30.3786  -42.6356 H         1 UNK         0.2998 
    101 H101       25.4926  -33.2078  -42.4271 H         1 UNK         0.0822 
    102 H102       24.6654  -32.8394  -44.7451 H         1 UNK         0.0787 
    103 H103       26.2918  -32.2064  -44.5758 H         1 UNK         0.0787 
    104 H104       24.9126  -31.1062  -44.5890 H         1 UNK         0.0787 
    105 H105       24.0855  -30.5456  -41.0086 H         1 UNK         0.3055 
    106 H106       21.4101  -30.5346  -41.7905 H         1 UNK         0.1106 
    107 H107       22.6434  -29.8686  -39.0698 H         1 UNK         0.0828 
    108 H108       22.4057  -28.7570  -40.4131 H         1 UNK         0.0828 
    109 H109       21.0196  -29.4194  -39.5738 H         1 UNK         0.0828 
    110 H110       19.8020  -31.9393  -41.6300 H         1 UNK         0.2931 
    111 H111       19.8666  -34.2596  -39.8913 H         1 UNK         0.0412 
    112 H112       18.9640  -31.1087  -39.1055 H         1 UNK         0.3472 
    113 H113       17.7308  -31.5231  -37.9434 H         1 UNK         0.3472 
    114 H114       19.1167  -34.8128  -42.0293 H         1 UNK         0.0970 
    115 H115       17.6521  -34.7751  -41.1186 H         1 UNK         0.0970 
    116 H116       18.4679  -33.8267  -44.7802 H         1 UNK         0.0612 
    117 H117       19.8324  -33.5012  -43.7428 H         1 UNK         0.0612 
@<TRIPOS>BOND
     1    1    2 1    
     2    1   62 1    
     3    1   63 1    
     4    1   64 1    
     5    2    3 2    
     6    2    4 am   BACKBONE|DICT|INTERRES
     7    4    5 1    
     8    4   65 1    
     9    5    6 1    
    10    5   25 1    
    11    5   66 1    
    12    6    7 1    
    13    6   67 1    
    14    6   68 1    
    15    7    8 1    
    16    8    9 1    
    17    8   69 1    
    18    8   70 1    
    19    9   10 ar   
    20    9   14 ar   
    21   10   11 ar   
    22   10   71 1    
    23   11   12 ar   
    24   11   61 1    
    25   12   13 ar   
    26   12   72 1    
    27   13   14 ar   
    28   13   15 1    
    29   14   73 1    
    30   15   16 1    
    31   15   74 1    
    32   15   75 1    
    33   16   17 1    
    34   17   18 1    
    35   17   76 1    
    36   17   77 1    
    37   18   19 1    
    38   18   27 1    
    39   18   78 1    
    40   19   20 am   BACKBONE|DICT|INTERRES
    41   19   79 1    
    42   20   21 2    
    43   20   22 1    
    44   22   23 1    
    45   22   24 1    
    46   22   80 1    
    47   23   81 1    
    48   23   82 1    
    49   23   83 1    
    50   24   25 am   BACKBONE|DICT|INTERRES
    51   24   84 1    
    52   25   26 2    
    53   27   28 2    
    54   27   29 am   BACKBONE|DICT|INTERRES
    55   29   30 1    
    56   29   85 1    
    57   30   31 1    
    58   30   32 1    
    59   30   86 1    
    60   31   87 1    
    61   31   88 1    
    62   31   89 1    
    63   32   33 2    
    64   32   34 am   BACKBONE|DICT|INTERRES
    65   34   35 1    
    66   34   90 1    
    67   35   36 1    
    68   35   37 1    
    69   35   91 1    
    70   36   92 1    
    71   36   93 1    
    72   36   94 1    
    73   37   38 2    
    74   37   39 am   BACKBONE|DICT|INTERRES
    75   39   40 1    
    76   39   95 1    
    77   40   41 1    
    78   40   42 1    
    79   40   96 1    
    80   41   97 1    
    81   41   98 1    
    82   41   99 1    
    83   42   43 2    
    84   42   44 am   BACKBONE|DICT|INTERRES
    85   44   45 1    
    86   44  100 1    
    87   45   46 1    
    88   45   47 1    
    89   45  101 1    
    90   46  102 1    
    91   46  103 1    
    92   46  104 1    
    93   47   48 2    
    94   47   49 am   BACKBONE|DICT|INTERRES
    95   49   50 1    
    96   49  105 1    
    97   50   51 1    
    98   50   52 1    
    99   50  106 1    
   100   51  107 1    
   101   51  108 1    
   102   51  109 1    
   103   52   53 2    
   104   52   54 am   BACKBONE|DICT|INTERRES
   105   54   55 1    
   106   54  110 1    
   107   55   56 1    
   108   55   59 1    
   109   55  111 1    
   110   56   57 am   BACKBONE|DICT|INTERRES
   111   56   58 2    
   112   57  112 1    
   113   57  113 1    
   114   59   60 1    
   115   59  114 1    
   116   59  115 1    
   117   60   61 1    
   118   61  116 1    
   119   61  117 1    
@<TRIPOS>SUBSTRUCTURE
     1 UNK         1 GROUP             0       ****    0 ROOT    
