@<TRIPOS>MOLECULE
3R8
117   119    1
SMALL
USER_CHARGES


@<TRIPOS>ATOM
      1 CA         18.1582  -24.7093  -49.6221 C.3       0 UNK        -0.2013 
      2 C          19.1170  -25.1958  -48.5455 C.2       0 UNK         0.4866 
      3 O          20.2727  -24.7709  -48.5170 O.2       0 UNK        -0.5176 
      4 N          18.6508  -26.0904  -47.6659 N.am      1 UNK        -0.4884 
      5 CA         19.4175  -26.6293  -46.5386 C.3       1 UNK         0.0853 
      6 C6         18.7021  -27.8313  -45.8766 C.3       10 UNK        -0.0849 
      7 S7         18.5815  -29.2973  -46.9484 S.3       10 UNK        -0.2776 
      8 C8         16.9952  -30.0118  -46.3952 C.3       10 UNK         0.0316 
      9 C9         16.8979  -30.1344  -44.8771 C.ar      10 UNK        -0.0863 
     10 C10        17.7356  -31.0115  -44.1817 C.ar      10 UNK        -0.1009 
     11 C11        17.6466  -31.1245  -42.7910 C.ar      10 UNK        -0.0712 
     12 C12        16.6999  -30.3669  -42.0962 C.ar      10 UNK        -0.0894 
     13 C13        15.8708  -29.4685  -42.7761 C.ar      10 UNK        -0.0745 
     14 C14        15.9718  -29.3624  -44.1669 C.ar      10 UNK        -0.0972 
     15 C15        14.8491  -28.6264  -42.0195 C.3       10 UNK         0.0209 
     16 S16        15.5673  -27.7176  -40.6105 S.3       10 UNK        -0.2568 
     17 C17        16.6949  -26.5328  -41.4274 C.3       10 UNK        -0.0983 
     18 CA         18.1837  -26.9667  -41.4150 C.3       3 UNK         0.0876 
     19 N          19.0134  -26.0357  -42.1853 N.am      3 UNK        -0.4424 
     20 C          20.3236  -26.1854  -42.4194 C.2       2 UNK         0.4918 
     21 O          20.9938  -27.1245  -41.9904 O.2       2 UNK        -0.4875 
     22 CA         20.9624  -25.1779  -43.3899 C.3       2 UNK         0.0481 
     23 CB         22.4661  -24.9828  -43.1266 C.3       2 UNK        -0.1831 
     24 N          20.7757  -25.7066  -44.7381 N.am      2 UNK        -0.4498 
     25 C          19.6502  -25.5671  -45.4486 C.2       1 UNK         0.5027 
     26 O          18.7704  -24.7410  -45.1899 O.2       1 UNK        -0.4969 
     27 C          18.7371  -27.1689  -39.9864 C.2       3 UNK         0.5005 
     28 O          18.9483  -26.1885  -39.2680 O.2       3 UNK        -0.5279 
     29 N          18.9678  -28.4408  -39.6324 N.am      4 UNK        -0.4463 
     30 CA         19.5187  -28.9497  -38.3724 C.3       4 UNK         0.0283 
     31 CB         18.6647  -28.5143  -37.1625 C.3       4 UNK        -0.1875 
     32 C          21.0213  -28.6714  -38.1637 C.2       4 UNK         0.4949 
     33 O          21.5257  -28.9620  -37.0777 O.2       4 UNK        -0.5039 
     34 N          21.7291  -28.1606  -39.1818 N.am      5 UNK        -0.4663 
     35 CA         23.1847  -28.0159  -39.1645 C.3       5 UNK         0.0242 
     36 CB         23.5926  -26.7669  -39.9615 C.3       5 UNK        -0.1982 
     37 C          23.8182  -29.2668  -39.7827 C.2       5 UNK         0.5017 
     38 O          23.3566  -29.7284  -40.8295 O.2       5 UNK        -0.5012 
     39 N          24.8996  -29.7621  -39.1659 N.am      6 UNK        -0.4439 
     40 CA         25.6457  -30.9524  -39.5975 C.3       6 UNK         0.0297 
     41 CB         26.7335  -31.2747  -38.5608 C.3       6 UNK        -0.2006 
     42 C          26.2614  -30.8452  -41.0058 C.2       6 UNK         0.4892 
     43 O          26.4844  -31.8743  -41.6427 O.2       6 UNK        -0.5089 
     44 N          26.4880  -29.6118  -41.4802 N.am      7 UNK        -0.4243 
     45 CA         26.9324  -29.2994  -42.8401 C.3       7 UNK         0.0196 
     46 CB         27.2353  -27.7951  -42.9351 C.3       7 UNK        -0.2007 
     47 C          25.9254  -29.7116  -43.9312 C.2       7 UNK         0.5020 
     48 O          26.3485  -29.9906  -45.0535 O.2       7 UNK        -0.5147 
     49 N          24.6290  -29.7449  -43.5924 N.am      8 UNK        -0.4734 
     50 CA         23.5534  -30.1882  -44.4805 C.3       8 UNK         0.0238 
     51 CB         22.4275  -29.1404  -44.4820 C.3       8 UNK        -0.1912 
     52 C          23.0075  -31.5542  -44.0457 C.2       8 UNK         0.5038 
     53 O          22.8118  -32.4225  -44.8969 O.2       8 UNK        -0.5046 
     54 N          22.7527  -31.7102  -42.7413 N.am      9 UNK        -0.4200 
     55 CA         22.0588  -32.8670  -42.1570 C.3       9 UNK         0.0839 
     56 C          22.9826  -34.0585  -41.7817 C.2       9 UNK         0.5513 
     57 N          24.3020  -33.9415  -41.8589 N.am      9 UNK        -0.7519 
     58 O          22.4873  -35.1236  -41.4230 O.2       9 UNK        -0.4960 
     59 C59        21.1617  -32.4456  -40.9623 C.3       10 UNK        -0.0876 
     60 S60        20.0070  -31.1024  -41.4016 S.3       10 UNK        -0.2414 
     61 C61        18.5908  -32.0448  -42.0371 C.3       10 UNK         0.0169 
     62 H62        17.1774  -25.1768  -49.5367 H         1 UNK         0.0903 
     63 H63        18.0270  -23.6302  -49.5472 H         1 UNK         0.0903 
     64 H64        18.5569  -24.9367  -50.6104 H         1 UNK         0.0903 
     65 H65        17.6921  -26.4009  -47.7303 H         1 UNK         0.3096 
     66 H66        20.3884  -26.9579  -46.9173 H         1 UNK         0.1121 
     67 H67        19.2228  -28.1526  -44.9710 H         1 UNK         0.0849 
     68 H68        17.7022  -27.5319  -45.5561 H         1 UNK         0.0849 
     69 H69        16.1800  -29.4010  -46.7861 H         1 UNK         0.0865 
     70 H70        16.8756  -30.9991  -46.8436 H         1 UNK         0.0865 
     71 H71        18.4683  -31.5937  -44.7241 H         1 UNK         0.1346 
     72 H72        16.6240  -30.4594  -41.0212 H         1 UNK         0.1412 
     73 H73        15.3259  -28.6772  -44.6992 H         1 UNK         0.1426 
     74 H74        14.0655  -29.2862  -41.6451 H         1 UNK         0.0716 
     75 H75        14.3581  -27.9136  -42.6840 H         1 UNK         0.0716 
     76 H76        16.5810  -25.5661  -40.9334 H         1 UNK         0.0695 
     77 H77        16.3593  -26.3847  -42.4553 H         1 UNK         0.0695 
     78 H78        18.2501  -27.9210  -41.9421 H         1 UNK         0.0983 
     79 H79        18.5376  -25.2473  -42.6005 H         1 UNK         0.3095 
     80 H80        20.4669  -24.2104  -43.2835 H         1 UNK         0.0454 
     81 H81        23.0281  -25.9093  -43.2503 H         1 UNK         0.0851 
     82 H82        22.6388  -24.6281  -42.1099 H         1 UNK         0.0851 
     83 H83        22.8921  -24.2430  -43.8042 H         1 UNK         0.0851 
     84 H84        21.4324  -26.4207  -45.0164 H         1 UNK         0.2976 
     85 H85        18.8131  -29.1555  -40.3323 H         1 UNK         0.3116 
     86 H86        19.4363  -30.0350  -38.4451 H         1 UNK         0.0646 
     87 H87        18.7649  -27.4486  -36.9560 H         1 UNK         0.0847 
     88 H88        18.9669  -29.0456  -36.2593 H         1 UNK         0.0847 
     89 H89        17.6081  -28.7282  -37.3236 H         1 UNK         0.0847 
     90 H90        21.2762  -27.9906  -40.0741 H         1 UNK         0.3040 
     91 H91        23.5354  -27.8933  -38.1373 H         1 UNK         0.1015 
     92 H92        23.0486  -25.8838  -39.6260 H         1 UNK         0.0786 
     93 H93        23.4069  -26.8911  -41.0280 H         1 UNK         0.0786 
     94 H94        24.6565  -26.5593  -39.8424 H         1 UNK         0.0786 
     95 H95        25.2226  -29.3133  -38.3201 H         1 UNK         0.3172 
     96 H96        24.9404  -31.7861  -39.6207 H         1 UNK         0.0595 
     97 H97        27.4575  -30.4640  -38.4682 H         1 UNK         0.0839 
     98 H98        27.2857  -32.1730  -38.8414 H         1 UNK         0.0839 
     99 H99        26.3037  -31.4580  -37.5758 H         1 UNK         0.0839 
    100 H100       26.2827  -28.8287  -40.8778 H         1 UNK         0.2998 
    101 H101       27.8571  -29.8511  -43.0229 H         1 UNK         0.0822 
    102 H102       28.0081  -27.4991  -42.2254 H         1 UNK         0.0787 
    103 H103       27.5950  -27.5320  -43.9310 H         1 UNK         0.0787 
    104 H104       26.3480  -27.1912  -42.7394 H         1 UNK         0.0787 
    105 H105       24.3679  -29.5345  -42.6353 H         1 UNK         0.3055 
    106 H106       23.9178  -30.2906  -45.5053 H         1 UNK         0.1106 
    107 H107       21.6206  -29.4346  -45.1549 H         1 UNK         0.0828 
    108 H108       21.9934  -29.0159  -43.4893 H         1 UNK         0.0828 
    109 H109       22.7948  -28.1698  -44.8131 H         1 UNK         0.0828 
    110 H110       22.9375  -30.9440  -42.0979 H         1 UNK         0.2931 
    111 H111       21.3862  -33.2636  -42.9200 H         1 UNK         0.0412 
    112 H112       24.8768  -34.7329  -41.6172 H         1 UNK         0.3472 
    113 H113       24.7425  -33.0703  -42.1219 H         1 UNK         0.3472 
    114 H114       20.5904  -33.2947  -40.5825 H         1 UNK         0.0970 
    115 H115       21.7797  -32.0984  -40.1320 H         1 UNK         0.0970 
    116 H116       18.0713  -32.5281  -41.2083 H         1 UNK         0.0612 
    117 H117       18.9434  -32.8412  -42.6941 H         1 UNK         0.0612 
@<TRIPOS>BOND
     1    1    2 1    
     2    1   62 1    
     3    1   63 1    
     4    1   64 1    
     5    2    3 2    
     6    2    4 am   BACKBONE|DICT|INTERRES
     7    4    5 1    
     8    4   65 1    
     9    5    6 1    
    10    5   25 1    
    11    5   66 1    
    12    6    7 1    
    13    6   67 1    
    14    6   68 1    
    15    7    8 1    
    16    8    9 1    
    17    8   69 1    
    18    8   70 1    
    19    9   10 ar   
    20    9   14 ar   
    21   10   11 ar   
    22   10   71 1    
    23   11   12 ar   
    24   11   61 1    
    25   12   13 ar   
    26   12   72 1    
    27   13   14 ar   
    28   13   15 1    
    29   14   73 1    
    30   15   16 1    
    31   15   74 1    
    32   15   75 1    
    33   16   17 1    
    34   17   18 1    
    35   17   76 1    
    36   17   77 1    
    37   18   19 1    
    38   18   27 1    
    39   18   78 1    
    40   19   20 am   BACKBONE|DICT|INTERRES
    41   19   79 1    
    42   20   21 2    
    43   20   22 1    
    44   22   23 1    
    45   22   24 1    
    46   22   80 1    
    47   23   81 1    
    48   23   82 1    
    49   23   83 1    
    50   24   25 am   BACKBONE|DICT|INTERRES
    51   24   84 1    
    52   25   26 2    
    53   27   28 2    
    54   27   29 am   BACKBONE|DICT|INTERRES
    55   29   30 1    
    56   29   85 1    
    57   30   31 1    
    58   30   32 1    
    59   30   86 1    
    60   31   87 1    
    61   31   88 1    
    62   31   89 1    
    63   32   33 2    
    64   32   34 am   BACKBONE|DICT|INTERRES
    65   34   35 1    
    66   34   90 1    
    67   35   36 1    
    68   35   37 1    
    69   35   91 1    
    70   36   92 1    
    71   36   93 1    
    72   36   94 1    
    73   37   38 2    
    74   37   39 am   BACKBONE|DICT|INTERRES
    75   39   40 1    
    76   39   95 1    
    77   40   41 1    
    78   40   42 1    
    79   40   96 1    
    80   41   97 1    
    81   41   98 1    
    82   41   99 1    
    83   42   43 2    
    84   42   44 am   BACKBONE|DICT|INTERRES
    85   44   45 1    
    86   44  100 1    
    87   45   46 1    
    88   45   47 1    
    89   45  101 1    
    90   46  102 1    
    91   46  103 1    
    92   46  104 1    
    93   47   48 2    
    94   47   49 am   BACKBONE|DICT|INTERRES
    95   49   50 1    
    96   49  105 1    
    97   50   51 1    
    98   50   52 1    
    99   50  106 1    
   100   51  107 1    
   101   51  108 1    
   102   51  109 1    
   103   52   53 2    
   104   52   54 am   BACKBONE|DICT|INTERRES
   105   54   55 1    
   106   54  110 1    
   107   55   56 1    
   108   55   59 1    
   109   55  111 1    
   110   56   57 am   BACKBONE|DICT|INTERRES
   111   56   58 2    
   112   57  112 1    
   113   57  113 1    
   114   59   60 1    
   115   59  114 1    
   116   59  115 1    
   117   60   61 1    
   118   61  116 1    
   119   61  117 1    
@<TRIPOS>SUBSTRUCTURE
     1 UNK         1 GROUP             0       ****    0 ROOT    
