@<TRIPOS>MOLECULE
3R8
117   119    1
SMALL
USER_CHARGES


@<TRIPOS>ATOM
      1 CA         14.7952  -22.3659  -42.4856 C.3       0 UNK        -0.2013 
      2 C          15.5664  -23.2517  -43.4524 C.2       0 UNK         0.4866 
      3 O          15.7476  -22.8807  -44.6129 O.2       0 UNK        -0.5176 
      4 N          16.0170  -24.4236  -42.9884 N.am      1 UNK        -0.4884 
      5 CA         16.8047  -25.3836  -43.7643 C.3       1 UNK         0.0853 
      6 C6         16.7912  -26.7987  -43.1296 C.3       10 UNK        -0.0849 
      7 S7         15.1331  -27.5514  -43.0253 S.3       10 UNK        -0.2776 
      8 C8         15.1009  -28.6648  -44.4742 C.3       10 UNK         0.0316 
      9 C9         16.2458  -29.6759  -44.5163 C.ar      10 UNK        -0.0863 
     10 C10        16.5601  -30.4652  -43.4033 C.ar      10 UNK        -0.1009 
     11 C11        17.6090  -31.3893  -43.4611 C.ar      10 UNK        -0.0712 
     12 C12        18.3444  -31.5254  -44.6422 C.ar      10 UNK        -0.0894 
     13 C13        18.0363  -30.7511  -45.7635 C.ar      10 UNK        -0.0745 
     14 C14        16.9826  -29.8340  -45.6947 C.ar      10 UNK        -0.0972 
     15 C15        18.8249  -30.9252  -47.0562 C.3       10 UNK         0.0209 
     16 S16        20.4671  -30.1349  -46.9927 S.3       10 UNK        -0.2568 
     17 C17        20.0244  -28.3626  -46.9242 C.3       10 UNK        -0.0983 
     18 CA         20.9825  -27.4143  -46.1492 C.3       3 UNK         0.0876 
     19 N          20.3323  -26.1116  -45.9982 N.am      3 UNK        -0.4424 
     20 C          20.8999  -24.9636  -45.6082 C.2       2 UNK         0.4918 
     21 O          22.1052  -24.8224  -45.4051 O.2       2 UNK        -0.4875 
     22 CA         19.9350  -23.7802  -45.3799 C.3       2 UNK         0.0481 
     23 CB         19.8850  -22.8799  -46.6241 C.3       2 UNK        -0.1831 
     24 N          18.5694  -24.2024  -45.0259 N.am      2 UNK        -0.4498 
     25 C          18.2551  -24.8800  -43.9119 C.2       1 UNK         0.5027 
     26 O          19.0771  -25.1455  -43.0342 O.2       1 UNK        -0.4969 
     27 C          21.4768  -27.9871  -44.7962 C.2       3 UNK         0.5005 
     28 O          22.4860  -28.6946  -44.7772 O.2       3 UNK        -0.5279 
     29 N          20.8039  -27.6534  -43.6828 N.am      4 UNK        -0.4463 
     30 CA         21.0936  -28.1551  -42.3342 C.3       4 UNK         0.0283 
     31 CB         19.8150  -28.0749  -41.4807 C.3       4 UNK        -0.1875 
     32 C          22.2869  -27.4382  -41.6695 C.2       4 UNK         0.4949 
     33 O          22.1880  -27.0031  -40.5207 O.2       4 UNK        -0.5039 
     34 N          23.3989  -27.3227  -42.4020 N.am      5 UNK        -0.4663 
     35 CA         24.6722  -26.7969  -41.9148 C.3       5 UNK         0.0242 
     36 CB         25.5393  -26.4038  -43.1212 C.3       5 UNK        -0.1982 
     37 C          25.3911  -27.8465  -41.0540 C.2       5 UNK         0.5017 
     38 O          25.2788  -29.0415  -41.3396 O.2       5 UNK        -0.5012 
     39 N          26.1380  -27.3821  -40.0412 N.am      6 UNK        -0.4439 
     40 CA         26.9135  -28.1814  -39.0834 C.3       6 UNK         0.0297 
     41 CB         28.1641  -28.7819  -39.7666 C.3       6 UNK        -0.2006 
     42 C          26.0315  -29.2238  -38.3668 C.2       6 UNK         0.4892 
     43 O          25.2775  -28.8515  -37.4667 O.2       6 UNK        -0.5089 
     44 N          26.1210  -30.4875  -38.7962 N.am      7 UNK        -0.4243 
     45 CA         25.2845  -31.5983  -38.3484 C.3       7 UNK         0.0196 
     46 CB         26.0175  -32.3849  -37.2442 C.3       7 UNK        -0.2007 
     47 C          24.8751  -32.4775  -39.5432 C.2       7 UNK         0.5020 
     48 O          24.7705  -33.6955  -39.3918 O.2       7 UNK        -0.5147 
     49 N          24.6478  -31.8612  -40.7161 N.am      8 UNK        -0.4734 
     50 CA         24.3054  -32.5372  -41.9785 C.3       8 UNK         0.0238 
     51 CB         24.1905  -31.4948  -43.1035 C.3       8 UNK        -0.1912 
     52 C          23.0342  -33.4065  -41.9335 C.2       8 UNK         0.5038 
     53 O          22.9459  -34.3768  -42.6874 O.2       8 UNK        -0.5046 
     54 N          22.0910  -33.0570  -41.0507 N.am      9 UNK        -0.4200 
     55 CA         20.8699  -33.8306  -40.7768 C.3       9 UNK         0.0839 
     56 C          21.0952  -35.0901  -39.8887 C.2       9 UNK         0.5513 
     57 N          22.2777  -35.3224  -39.3297 N.am      9 UNK        -0.7519 
     58 O          20.1732  -35.8816  -39.7090 O.2       9 UNK        -0.4960 
     59 C59        19.7371  -32.9373  -40.2057 C.3       10 UNK        -0.0876 
     60 S60        19.3284  -31.5480  -41.3130 S.3       10 UNK        -0.2414 
     61 C61        17.9473  -32.2545  -42.2577 C.3       10 UNK         0.0169 
     62 H62        13.7926  -22.1773  -42.8683 H         1 UNK         0.0903 
     63 H63        14.7016  -22.8220  -41.5002 H         1 UNK         0.0903 
     64 H64        15.3016  -21.4081  -42.3694 H         1 UNK         0.0903 
     65 H65        15.8432  -24.6801  -42.0267 H         1 UNK         0.3096 
     66 H66        16.3689  -25.4655  -44.7628 H         1 UNK         0.1121 
     67 H67        17.1837  -26.7596  -42.1119 H         1 UNK         0.0849 
     68 H68        17.4577  -27.4677  -43.6760 H         1 UNK         0.0849 
     69 H69        14.1562  -29.2100  -44.4740 H         1 UNK         0.0865 
     70 H70        15.0962  -28.0500  -45.3756 H         1 UNK         0.0865 
     71 H71        15.9905  -30.3563  -42.4904 H         1 UNK         0.1346 
     72 H72        19.1588  -32.2357  -44.6889 H         1 UNK         0.1412 
     73 H73        16.7366  -29.2408  -46.5651 H         1 UNK         0.1426 
     74 H74        18.2682  -30.5263  -47.9057 H         1 UNK         0.0716 
     75 H75        18.9572  -31.9897  -47.2549 H         1 UNK         0.0716 
     76 H76        19.0295  -28.2822  -46.4895 H         1 UNK         0.0695 
     77 H77        19.9208  -28.0109  -47.9519 H         1 UNK         0.0695 
     78 H78        21.8744  -27.2665  -46.7621 H         1 UNK         0.0983 
     79 H79        19.3394  -26.0950  -46.1740 H         1 UNK         0.3095 
     80 H80        20.3290  -23.1915  -44.5488 H         1 UNK         0.0454 
     81 H81        19.2704  -21.9965  -46.4504 H         1 UNK         0.0851 
     82 H82        19.4813  -23.4061  -47.4899 H         1 UNK         0.0851 
     83 H83        20.8829  -22.5297  -46.8922 H         1 UNK         0.0851 
     84 H84        17.8290  -23.9536  -45.6689 H         1 UNK         0.2976 
     85 H85        20.0693  -26.9609  -43.7448 H         1 UNK         0.3116 
     86 H86        21.3631  -29.2105  -42.4134 H         1 UNK         0.0646 
     87 H87        19.5193  -27.0441  -41.2875 H         1 UNK         0.0847 
     88 H88        19.9652  -28.5530  -40.5120 H         1 UNK         0.0847 
     89 H89        18.9816  -28.5857  -41.9630 H         1 UNK         0.0847 
     90 H90        23.3985  -27.7654  -43.3164 H         1 UNK         0.3040 
     91 H91        24.4779  -25.9070  -41.3118 H         1 UNK         0.1015 
     92 H92        25.7627  -27.2645  -43.7536 H         1 UNK         0.0786 
     93 H93        26.4910  -25.9795  -42.7986 H         1 UNK         0.0786 
     94 H94        25.0423  -25.6549  -43.7388 H         1 UNK         0.0786 
     95 H95        26.1461  -26.3849  -39.8756 H         1 UNK         0.3172 
     96 H96        27.2621  -27.4933  -38.3116 H         1 UNK         0.0595 
     97 H97        27.9143  -29.4142  -40.6191 H         1 UNK         0.0839 
     98 H98        28.7458  -29.3823  -39.0655 H         1 UNK         0.0839 
     99 H99        28.8227  -27.9933  -40.1308 H         1 UNK         0.0839 
    100 H100       26.7417  -30.6847  -39.5695 H         1 UNK         0.2998 
    101 H101       24.3529  -31.2103  -37.9310 H         1 UNK         0.0822 
    102 H102       25.3941  -33.1907  -36.8544 H         1 UNK         0.0787 
    103 H103       26.9396  -32.8330  -37.6160 H         1 UNK         0.0787 
    104 H104       26.2730  -31.7408  -36.4026 H         1 UNK         0.0787 
    105 H105       24.7741  -30.8528  -40.7742 H         1 UNK         0.3055 
    106 H106       25.1332  -33.2075  -42.2192 H         1 UNK         0.1106 
    107 H107       23.4276  -30.7463  -42.8849 H         1 UNK         0.0828 
    108 H108       25.1344  -30.9727  -43.2596 H         1 UNK         0.0828 
    109 H109       23.9232  -31.9632  -44.0518 H         1 UNK         0.0828 
    110 H110       22.2479  -32.2441  -40.4752 H         1 UNK         0.2931 
    111 H111       20.5124  -34.2160  -41.7338 H         1 UNK         0.0412 
    112 H112       23.0620  -34.6931  -39.4676 H         1 UNK         0.3472 
    113 H113       22.3970  -36.1472  -38.7634 H         1 UNK         0.3472 
    114 H114       20.0286  -32.5284  -39.2367 H         1 UNK         0.0970 
    115 H115       18.8325  -33.5214  -40.0246 H         1 UNK         0.0970 
    116 H116       17.0796  -32.3616  -41.6049 H         1 UNK         0.0612 
    117 H117       18.2113  -33.2588  -42.5928 H         1 UNK         0.0612 
@<TRIPOS>BOND
     1    1    2 1    
     2    1   62 1    
     3    1   63 1    
     4    1   64 1    
     5    2    3 2    
     6    2    4 am   BACKBONE|DICT|INTERRES
     7    4    5 1    
     8    4   65 1    
     9    5    6 1    
    10    5   25 1    
    11    5   66 1    
    12    6    7 1    
    13    6   67 1    
    14    6   68 1    
    15    7    8 1    
    16    8    9 1    
    17    8   69 1    
    18    8   70 1    
    19    9   10 ar   
    20    9   14 ar   
    21   10   11 ar   
    22   10   71 1    
    23   11   12 ar   
    24   11   61 1    
    25   12   13 ar   
    26   12   72 1    
    27   13   14 ar   
    28   13   15 1    
    29   14   73 1    
    30   15   16 1    
    31   15   74 1    
    32   15   75 1    
    33   16   17 1    
    34   17   18 1    
    35   17   76 1    
    36   17   77 1    
    37   18   19 1    
    38   18   27 1    
    39   18   78 1    
    40   19   20 am   BACKBONE|DICT|INTERRES
    41   19   79 1    
    42   20   21 2    
    43   20   22 1    
    44   22   23 1    
    45   22   24 1    
    46   22   80 1    
    47   23   81 1    
    48   23   82 1    
    49   23   83 1    
    50   24   25 am   BACKBONE|DICT|INTERRES
    51   24   84 1    
    52   25   26 2    
    53   27   28 2    
    54   27   29 am   BACKBONE|DICT|INTERRES
    55   29   30 1    
    56   29   85 1    
    57   30   31 1    
    58   30   32 1    
    59   30   86 1    
    60   31   87 1    
    61   31   88 1    
    62   31   89 1    
    63   32   33 2    
    64   32   34 am   BACKBONE|DICT|INTERRES
    65   34   35 1    
    66   34   90 1    
    67   35   36 1    
    68   35   37 1    
    69   35   91 1    
    70   36   92 1    
    71   36   93 1    
    72   36   94 1    
    73   37   38 2    
    74   37   39 am   BACKBONE|DICT|INTERRES
    75   39   40 1    
    76   39   95 1    
    77   40   41 1    
    78   40   42 1    
    79   40   96 1    
    80   41   97 1    
    81   41   98 1    
    82   41   99 1    
    83   42   43 2    
    84   42   44 am   BACKBONE|DICT|INTERRES
    85   44   45 1    
    86   44  100 1    
    87   45   46 1    
    88   45   47 1    
    89   45  101 1    
    90   46  102 1    
    91   46  103 1    
    92   46  104 1    
    93   47   48 2    
    94   47   49 am   BACKBONE|DICT|INTERRES
    95   49   50 1    
    96   49  105 1    
    97   50   51 1    
    98   50   52 1    
    99   50  106 1    
   100   51  107 1    
   101   51  108 1    
   102   51  109 1    
   103   52   53 2    
   104   52   54 am   BACKBONE|DICT|INTERRES
   105   54   55 1    
   106   54  110 1    
   107   55   56 1    
   108   55   59 1    
   109   55  111 1    
   110   56   57 am   BACKBONE|DICT|INTERRES
   111   56   58 2    
   112   57  112 1    
   113   57  113 1    
   114   59   60 1    
   115   59  114 1    
   116   59  115 1    
   117   60   61 1    
   118   61  116 1    
   119   61  117 1    
@<TRIPOS>SUBSTRUCTURE
     1 UNK         1 GROUP             0       ****    0 ROOT    
