@<TRIPOS>MOLECULE
3R8
117   119    1
SMALL
USER_CHARGES


@<TRIPOS>ATOM
      1 CA         15.8313  -22.9336  -41.5976 C.3       0 UNK        -0.2013 
      2 C          16.3994  -23.5365  -42.8738 C.2       0 UNK         0.4866 
      3 O          16.6749  -22.8064  -43.8267 O.2       0 UNK        -0.5176 
      4 N          16.5674  -24.8641  -42.9034 N.am      1 UNK        -0.4884 
      5 CA         17.1494  -25.6125  -44.0226 C.3       1 UNK         0.0853 
      6 C6         16.9398  -27.1387  -43.8618 C.3       10 UNK        -0.0849 
      7 S7         15.1803  -27.6172  -43.7619 S.3       10 UNK        -0.2776 
      8 C8         15.0139  -28.7911  -45.1495 C.3       10 UNK         0.0316 
      9 C9         15.9662  -29.9755  -45.0285 C.ar      10 UNK        -0.0863 
     10 C10        15.8726  -30.8524  -43.9429 C.ar      10 UNK        -0.1009 
     11 C11        16.7612  -31.9249  -43.8142 C.ar      10 UNK        -0.0712 
     12 C12        17.7388  -32.1259  -44.7927 C.ar      10 UNK        -0.0894 
     13 C13        17.8564  -31.2444  -45.8717 C.ar      10 UNK        -0.0745 
     14 C14        16.9559  -30.1824  -45.9943 C.ar      10 UNK        -0.0972 
     15 C15        18.9930  -31.4074  -46.8727 C.3       10 UNK         0.0209 
     16 S16        20.1760  -30.0167  -46.8099 S.3       10 UNK        -0.2568 
     17 C17        20.6052  -29.9684  -45.0347 C.3       10 UNK        -0.0983 
     18 CA         21.4253  -28.7239  -44.6105 C.3       3 UNK         0.0876 
     19 N          20.8407  -27.4803  -45.1187 N.am      3 UNK        -0.4424 
     20 C          21.4491  -26.2880  -45.1628 C.2       2 UNK         0.4918 
     21 O          22.5988  -26.0907  -44.7718 O.2       2 UNK        -0.4875 
     22 CA         20.6024  -25.1081  -45.6787 C.3       2 UNK         0.0481 
     23 CB         20.8020  -24.9274  -47.1914 C.3       2 UNK        -0.1831 
     24 N          19.1688  -25.2503  -45.3845 N.am      2 UNK        -0.4498 
     25 C          18.6577  -25.3214  -44.1462 C.2       1 UNK         0.5027 
     26 O          19.3463  -25.2514  -43.1256 O.2       1 UNK        -0.4969 
     27 C          21.6099  -28.7315  -43.0749 C.2       3 UNK         0.5005 
     28 O          22.2375  -29.6594  -42.5660 O.2       3 UNK        -0.5279 
     29 N          21.0435  -27.7513  -42.3513 N.am      4 UNK        -0.4463 
     30 CA         21.1647  -27.6247  -40.8953 C.3       4 UNK         0.0283 
     31 CB         19.9365  -26.8838  -40.3425 C.3       4 UNK        -0.1875 
     32 C          22.4593  -26.9153  -40.4561 C.2       4 UNK         0.4949 
     33 O          22.7849  -26.9531  -39.2686 O.2       4 UNK        -0.5039 
     34 N          23.1686  -26.2661  -41.3914 N.am      5 UNK        -0.4663 
     35 CA         24.3855  -25.4828  -41.1533 C.3       5 UNK         0.0242 
     36 CB         24.5869  -24.5186  -42.3377 C.3       5 UNK        -0.1982 
     37 C          25.6201  -26.3722  -40.8954 C.2       5 UNK         0.5017 
     38 O          26.5344  -26.4033  -41.7214 O.2       5 UNK        -0.5012 
     39 N          25.6028  -27.0652  -39.7470 N.am      6 UNK        -0.4439 
     40 CA         26.5460  -28.0755  -39.2458 C.3       6 UNK         0.0297 
     41 CB         28.0062  -27.5799  -39.2569 C.3       6 UNK        -0.2006 
     42 C          26.3956  -29.4214  -39.9763 C.2       6 UNK         0.4892 
     43 O          26.1739  -29.4473  -41.1879 O.2       6 UNK        -0.5089 
     44 N          26.5094  -30.5175  -39.2069 N.am      7 UNK        -0.4243 
     45 CA         26.2310  -31.9074  -39.6071 C.3       7 UNK         0.0196 
     46 CB         27.2899  -32.4199  -40.6071 C.3       7 UNK        -0.2007 
     47 C          24.7853  -32.0496  -40.1240 C.2       7 UNK         0.5020 
     48 O          24.5700  -32.4462  -41.2708 O.2       7 UNK        -0.5147 
     49 N          23.8375  -31.6355  -39.2687 N.am      8 UNK        -0.4734 
     50 CA         22.4289  -31.3804  -39.5813 C.3       8 UNK         0.0238 
     51 CB         21.6698  -31.0317  -38.2904 C.3       8 UNK        -0.1912 
     52 C          21.7253  -32.5155  -40.3441 C.2       8 UNK         0.5038 
     53 O          21.6448  -33.6332  -39.8296 O.2       8 UNK        -0.5046 
     54 N          21.2414  -32.1865  -41.5475 N.am      9 UNK        -0.4200 
     55 CA         20.5808  -33.0818  -42.5117 C.3       9 UNK         0.0839 
     56 C          21.5320  -34.0996  -43.2114 C.2       9 UNK         0.5513 
     57 N          22.8462  -34.0308  -43.0375 N.am      9 UNK        -0.7519 
     58 O          21.0702  -34.9522  -43.9654 O.2       9 UNK        -0.4960 
     59 C59        19.2883  -33.7590  -41.9661 C.3       10 UNK        -0.0876 
     60 S60        18.0133  -32.5694  -41.4153 S.3       10 UNK        -0.2414 
     61 C61        16.6662  -32.8562  -42.6134 C.3       10 UNK         0.0169 
     62 H62        16.5380  -22.2213  -41.1728 H         1 UNK         0.0903 
     63 H63        15.6225  -23.6939  -40.8450 H         1 UNK         0.0903 
     64 H64        14.9025  -22.4058  -41.8128 H         1 UNK         0.0903 
     65 H65        16.3260  -25.4161  -42.0929 H         1 UNK         0.3096 
     66 H66        16.6548  -25.2842  -44.9398 H         1 UNK         0.1121 
     67 H67        17.4354  -27.5054  -42.9602 H         1 UNK         0.0849 
     68 H68        17.4080  -27.6676  -44.6932 H         1 UNK         0.0849 
     69 H69        13.9882  -29.1613  -45.1789 H         1 UNK         0.0865 
     70 H70        15.1718  -28.2560  -46.0873 H         1 UNK         0.0865 
     71 H71        15.1157  -30.6857  -43.1885 H         1 UNK         0.1346 
     72 H72        18.4282  -32.9525  -44.6971 H         1 UNK         0.1412 
     73 H73        17.0511  -29.4998  -46.8280 H         1 UNK         0.1426 
     74 H74        19.5355  -32.3376  -46.6959 H         1 UNK         0.0716 
     75 H75        18.5797  -31.4783  -47.8797 H         1 UNK         0.0716 
     76 H76        21.1623  -30.8788  -44.8082 H         1 UNK         0.0695 
     77 H77        19.6855  -30.0123  -44.4492 H         1 UNK         0.0695 
     78 H78        22.4233  -28.8150  -45.0450 H         1 UNK         0.0983 
     79 H79        19.9075  -27.5570  -45.4935 H         1 UNK         0.3095 
     80 H80        20.9568  -24.2050  -45.1773 H         1 UNK         0.0454 
     81 H81        20.2765  -24.0462  -47.5597 H         1 UNK         0.0851 
     82 H82        20.4468  -25.7918  -47.7541 H         1 UNK         0.0851 
     83 H83        21.8580  -24.7951  -47.4316 H         1 UNK         0.0851 
     84 H84        18.5480  -25.3145  -46.1792 H         1 UNK         0.2976 
     85 H85        20.5343  -27.0128  -42.8241 H         1 UNK         0.3116 
     86 H86        21.1656  -28.6205  -40.4517 H         1 UNK         0.0646 
     87 H87        19.0065  -27.3501  -40.6681 H         1 UNK         0.0847 
     88 H88        19.9379  -26.8926  -39.2517 H         1 UNK         0.0847 
     89 H89        19.9181  -25.8392  -40.6540 H         1 UNK         0.0847 
     90 H90        22.8526  -26.3158  -42.3510 H         1 UNK         0.3040 
     91 H91        24.2347  -24.8739  -40.2587 H         1 UNK         0.1015 
     92 H92        23.7297  -23.8564  -42.4615 H         1 UNK         0.0786 
     93 H93        24.7316  -25.0559  -43.2759 H         1 UNK         0.0786 
     94 H94        25.4634  -23.8877  -42.1838 H         1 UNK         0.0786 
     95 H95        24.7349  -26.9975  -39.2210 H         1 UNK         0.3172 
     96 H96        26.2621  -28.2312  -38.2037 H         1 UNK         0.0595 
     97 H97        28.1027  -26.6111  -38.7669 H         1 UNK         0.0839 
     98 H98        28.3994  -27.4866  -40.2696 H         1 UNK         0.0839 
     99 H99        28.6556  -28.2778  -38.7271 H         1 UNK         0.0839 
    100 H100       26.7135  -30.3842  -38.2256 H         1 UNK         0.2998 
    101 H101       26.3046  -32.5203  -38.7071 H         1 UNK         0.0822 
    102 H102       28.2967  -32.3285  -40.1998 H         1 UNK         0.0787 
    103 H103       27.1269  -33.4733  -40.8383 H         1 UNK         0.0787 
    104 H104       27.2594  -31.8739  -41.5505 H         1 UNK         0.0787 
    105 H105       24.1365  -31.3537  -38.3467 H         1 UNK         0.3055 
    106 H106       22.4296  -30.4917  -40.2094 H         1 UNK         0.1106 
    107 H107       22.0830  -30.1436  -37.8116 H         1 UNK         0.0828 
    108 H108       20.6195  -30.8239  -38.5004 H         1 UNK         0.0828 
    109 H109       21.7018  -31.8511  -37.5711 H         1 UNK         0.0828 
    110 H110       21.4558  -31.2580  -41.9024 H         1 UNK         0.2931 
    111 H111       20.2675  -32.4188  -43.3159 H         1 UNK         0.0412 
    112 H112       23.2669  -33.3471  -42.4143 H         1 UNK         0.3472 
    113 H113       23.4367  -34.6923  -43.5155 H         1 UNK         0.3472 
    114 H114       18.8537  -34.4116  -42.7241 H         1 UNK         0.0970 
    115 H115       19.5253  -34.4169  -41.1292 H         1 UNK         0.0970 
    116 H116       15.7181  -32.7011  -42.0963 H         1 UNK         0.0612 
    117 H117       16.6549  -33.8953  -42.9443 H         1 UNK         0.0612 
@<TRIPOS>BOND
     1    1    2 1    
     2    1   62 1    
     3    1   63 1    
     4    1   64 1    
     5    2    3 2    
     6    2    4 am   BACKBONE|DICT|INTERRES
     7    4    5 1    
     8    4   65 1    
     9    5    6 1    
    10    5   25 1    
    11    5   66 1    
    12    6    7 1    
    13    6   67 1    
    14    6   68 1    
    15    7    8 1    
    16    8    9 1    
    17    8   69 1    
    18    8   70 1    
    19    9   10 ar   
    20    9   14 ar   
    21   10   11 ar   
    22   10   71 1    
    23   11   12 ar   
    24   11   61 1    
    25   12   13 ar   
    26   12   72 1    
    27   13   14 ar   
    28   13   15 1    
    29   14   73 1    
    30   15   16 1    
    31   15   74 1    
    32   15   75 1    
    33   16   17 1    
    34   17   18 1    
    35   17   76 1    
    36   17   77 1    
    37   18   19 1    
    38   18   27 1    
    39   18   78 1    
    40   19   20 am   BACKBONE|DICT|INTERRES
    41   19   79 1    
    42   20   21 2    
    43   20   22 1    
    44   22   23 1    
    45   22   24 1    
    46   22   80 1    
    47   23   81 1    
    48   23   82 1    
    49   23   83 1    
    50   24   25 am   BACKBONE|DICT|INTERRES
    51   24   84 1    
    52   25   26 2    
    53   27   28 2    
    54   27   29 am   BACKBONE|DICT|INTERRES
    55   29   30 1    
    56   29   85 1    
    57   30   31 1    
    58   30   32 1    
    59   30   86 1    
    60   31   87 1    
    61   31   88 1    
    62   31   89 1    
    63   32   33 2    
    64   32   34 am   BACKBONE|DICT|INTERRES
    65   34   35 1    
    66   34   90 1    
    67   35   36 1    
    68   35   37 1    
    69   35   91 1    
    70   36   92 1    
    71   36   93 1    
    72   36   94 1    
    73   37   38 2    
    74   37   39 am   BACKBONE|DICT|INTERRES
    75   39   40 1    
    76   39   95 1    
    77   40   41 1    
    78   40   42 1    
    79   40   96 1    
    80   41   97 1    
    81   41   98 1    
    82   41   99 1    
    83   42   43 2    
    84   42   44 am   BACKBONE|DICT|INTERRES
    85   44   45 1    
    86   44  100 1    
    87   45   46 1    
    88   45   47 1    
    89   45  101 1    
    90   46  102 1    
    91   46  103 1    
    92   46  104 1    
    93   47   48 2    
    94   47   49 am   BACKBONE|DICT|INTERRES
    95   49   50 1    
    96   49  105 1    
    97   50   51 1    
    98   50   52 1    
    99   50  106 1    
   100   51  107 1    
   101   51  108 1    
   102   51  109 1    
   103   52   53 2    
   104   52   54 am   BACKBONE|DICT|INTERRES
   105   54   55 1    
   106   54  110 1    
   107   55   56 1    
   108   55   59 1    
   109   55  111 1    
   110   56   57 am   BACKBONE|DICT|INTERRES
   111   56   58 2    
   112   57  112 1    
   113   57  113 1    
   114   59   60 1    
   115   59  114 1    
   116   59  115 1    
   117   60   61 1    
   118   61  116 1    
   119   61  117 1    
@<TRIPOS>SUBSTRUCTURE
     1 UNK         1 GROUP             0       ****    0 ROOT    
