@<TRIPOS>MOLECULE
3R8
117   119    1
SMALL
USER_CHARGES


@<TRIPOS>ATOM
      1 CA         14.4293  -24.2934  -40.0828 C.3       0 UNK        -0.2013 
      2 C          14.5985  -25.2505  -41.2540 C.2       0 UNK         0.4866 
      3 O          13.8822  -26.2487  -41.3249 O.2       0 UNK        -0.5176 
      4 N          15.5278  -24.9328  -42.1671 N.am      1 UNK        -0.4884 
      5 CA         15.9406  -25.7121  -43.3418 C.3       1 UNK         0.0853 
      6 C6         14.7691  -26.1236  -44.2731 C.3       10 UNK        -0.0849 
      7 S7         15.2957  -26.3170  -46.0101 S.3       10 UNK        -0.2776 
      8 C8         15.0997  -28.1081  -46.2963 C.3       10 UNK         0.0316 
      9 C9         16.4101  -28.8751  -46.1635 C.ar      10 UNK        -0.0863 
     10 C10        16.5849  -29.8280  -45.1535 C.ar      10 UNK        -0.1009 
     11 C11        17.7558  -30.5935  -45.0901 C.ar      10 UNK        -0.0712 
     12 C12        18.7495  -30.4027  -46.0552 C.ar      10 UNK        -0.0894 
     13 C13        18.6048  -29.4285  -47.0448 C.ar      10 UNK        -0.0745 
     14 C14        17.4307  -28.6727  -47.0976 C.ar      10 UNK        -0.0972 
     15 C15        19.7069  -29.2021  -48.0677 C.3       10 UNK         0.0209 
     16 S16        20.9555  -28.0235  -47.4607 S.3       10 UNK        -0.2568 
     17 C17        22.0691  -29.0959  -46.4893 C.3       10 UNK        -0.0983 
     18 CA         22.2737  -28.6167  -45.0223 C.3       3 UNK         0.0876 
     19 N          21.0398  -28.6463  -44.2350 N.am      3 UNK        -0.4424 
     20 C          20.3216  -27.5795  -43.8754 C.2       2 UNK         0.4918 
     21 O          20.5875  -26.4168  -44.1927 O.2       2 UNK        -0.4875 
     22 CA         19.1097  -27.8552  -42.9796 C.3       2 UNK         0.0481 
     23 CB         19.5133  -27.9241  -41.4981 C.3       2 UNK        -0.1831 
     24 N          18.1219  -26.8051  -43.1920 N.am      2 UNK        -0.4498 
     25 C          16.8155  -26.9118  -42.9282 C.2       1 UNK         0.5027 
     26 O          16.3051  -27.8943  -42.3858 O.2       1 UNK        -0.4969 
     27 C          23.3553  -29.4115  -44.2564 C.2       3 UNK         0.5005 
     28 O          23.3114  -29.4724  -43.0245 O.2       3 UNK        -0.5279 
     29 N          24.3274  -29.9825  -44.9857 N.am      4 UNK        -0.4463 
     30 CA         25.4931  -30.7293  -44.4881 C.3       4 UNK         0.0283 
     31 CB         25.0606  -31.9967  -43.7187 C.3       4 UNK        -0.1875 
     32 C          26.4843  -29.8572  -43.6903 C.2       4 UNK         0.4949 
     33 O          27.1819  -30.3714  -42.8148 O.2       4 UNK        -0.5039 
     34 N          26.5236  -28.5521  -44.0057 N.am      5 UNK        -0.4663 
     35 CA         27.3599  -27.4730  -43.4513 C.3       5 UNK         0.0242 
     36 CB         28.8560  -27.7371  -43.7113 C.3       5 UNK        -0.1982 
     37 C          27.1101  -27.1491  -41.9664 C.2       5 UNK         0.5017 
     38 O          26.9748  -25.9767  -41.6172 O.2       5 UNK        -0.5012 
     39 N          27.0462  -28.1855  -41.1260 N.am      6 UNK        -0.4439 
     40 CA         26.8445  -28.1146  -39.6784 C.3       6 UNK         0.0297 
     41 CB         27.4799  -29.3637  -39.0424 C.3       6 UNK        -0.2006 
     42 C          25.3669  -27.9885  -39.2600 C.2       6 UNK         0.4892 
     43 O          25.1050  -27.9209  -38.0585 O.2       6 UNK        -0.5089 
     44 N          24.4363  -27.9943  -40.2303 N.am      7 UNK        -0.4243 
     45 CA         22.9761  -28.0442  -40.0562 C.3       7 UNK         0.0196 
     46 CB         22.4501  -26.7912  -39.3210 C.3       7 UNK        -0.2007 
     47 C          22.5185  -29.3665  -39.4063 C.2       7 UNK         0.5020 
     48 O          21.5722  -29.3766  -38.6177 O.2       7 UNK        -0.5147 
     49 N          23.2170  -30.4620  -39.7403 N.am      8 UNK        -0.4734 
     50 CA         23.1114  -31.7710  -39.0868 C.3       8 UNK         0.0238 
     51 CB         24.2113  -32.6985  -39.6288 C.3       8 UNK        -0.1912 
     52 C          21.7337  -32.4415  -39.2083 C.2       8 UNK         0.5038 
     53 O          21.3401  -33.1659  -38.2931 O.2       8 UNK        -0.5046 
     54 N          21.0322  -32.1867  -40.3192 N.am      9 UNK        -0.4200 
     55 CA         19.6605  -32.6556  -40.5626 C.3       9 UNK         0.0839 
     56 C          18.5499  -31.7457  -39.9578 C.2       9 UNK         0.5513 
     57 N          18.8735  -30.6560  -39.2697 N.am      9 UNK        -0.7519 
     58 O          17.3681  -32.0500  -40.0961 O.2       9 UNK        -0.4960 
     59 C59        19.4328  -33.0001  -42.0571 C.3       10 UNK        -0.0876 
     60 S60        19.5662  -31.5739  -43.1885 S.3       10 UNK        -0.2414 
     61 C61        17.9301  -31.6437  -43.9979 C.3       10 UNK         0.0169 
     62 H62        13.4102  -23.9084  -40.0572 H         1 UNK         0.0903 
     63 H63        14.6205  -24.8129  -39.1441 H         1 UNK         0.0903 
     64 H64        15.1101  -23.4445  -40.1444 H         1 UNK         0.0903 
     65 H65        16.0695  -24.0920  -42.0171 H         1 UNK         0.3096 
     66 H66        16.5712  -25.0239  -43.9079 H         1 UNK         0.1121 
     67 H67        14.2639  -27.0211  -43.9122 H         1 UNK         0.0849 
     68 H68        14.0074  -25.3424  -44.2688 H         1 UNK         0.0849 
     69 H69        14.3342  -28.5203  -45.6376 H         1 UNK         0.0865 
     70 H70        14.7208  -28.2510  -47.3094 H         1 UNK         0.0865 
     71 H71        15.8031  -29.9830  -44.4222 H         1 UNK         0.1346 
     72 H72        19.6454  -31.0058  -46.0244 H         1 UNK         0.1412 
     73 H73        17.3036  -27.9311  -47.8749 H         1 UNK         0.1426 
     74 H74        20.1799  -30.1470  -48.3394 H         1 UNK         0.0716 
     75 H75        19.2781  -28.8067  -48.9898 H         1 UNK         0.0716 
     76 H76        21.7141  -30.1267  -46.5077 H         1 UNK         0.0695 
     77 H77        23.0125  -29.0928  -47.0367 H         1 UNK         0.0695 
     78 H78        22.6531  -27.5932  -45.0579 H         1 UNK         0.0983 
     79 H79        20.7745  -29.5553  -43.8797 H         1 UNK         0.3095 
     80 H80        18.6696  -28.8061  -43.2733 H         1 UNK         0.0454 
     81 H81        19.9746  -26.9935  -41.1689 H         1 UNK         0.0851 
     82 H82        18.6538  -28.1187  -40.8569 H         1 UNK         0.0851 
     83 H83        20.2240  -28.7325  -41.3284 H         1 UNK         0.0851 
     84 H84        18.4883  -25.9862  -43.6621 H         1 UNK         0.2976 
     85 H85        24.2814  -29.8820  -45.9907 H         1 UNK         0.3116 
     86 H86        26.0386  -31.0594  -45.3734 H         1 UNK         0.0646 
     87 H87        25.9197  -32.6281  -43.4891 H         1 UNK         0.0847 
     88 H88        24.3650  -32.5990  -44.3027 H         1 UNK         0.0847 
     89 H89        24.5793  -31.7519  -42.7723 H         1 UNK         0.0847 
     90 H90        25.8839  -28.2529  -44.7283 H         1 UNK         0.3040 
     91 H91        27.0888  -26.5744  -44.0088 H         1 UNK         0.1015 
     92 H92        29.0546  -27.8753  -44.7741 H         1 UNK         0.0786 
     93 H93        29.2139  -28.6231  -43.1861 H         1 UNK         0.0786 
     94 H94        29.4636  -26.8955  -43.3757 H         1 UNK         0.0786 
     95 H95        27.1585  -29.1116  -41.5383 H         1 UNK         0.3172 
     96 H96        27.3650  -27.2349  -39.2944 H         1 UNK         0.0595 
     97 H97        26.9937  -30.2798  -39.3805 H         1 UNK         0.0839 
     98 H98        27.4026  -29.3359  -37.9545 H         1 UNK         0.0839 
     99 H99        28.5400  -29.4375  -39.2859 H         1 UNK         0.0839 
    100 H100       24.7600  -28.0673  -41.1850 H         1 UNK         0.2998 
    101 H101       22.5461  -28.0301  -41.0572 H         1 UNK         0.0822 
    102 H102       22.7629  -25.8765  -39.8244 H         1 UNK         0.0787 
    103 H103       21.3609  -26.7847  -39.2835 H         1 UNK         0.0787 
    104 H104       22.7996  -26.7439  -38.2897 H         1 UNK         0.0787 
    105 H105       23.9393  -30.3593  -40.4389 H         1 UNK         0.3055 
    106 H106       23.2938  -31.6131  -38.0214 H         1 UNK         0.1106 
    107 H107       24.1966  -33.6607  -39.1147 H         1 UNK         0.0828 
    108 H108       24.0835  -32.8987  -40.6928 H         1 UNK         0.0828 
    109 H109       25.2034  -32.2713  -39.4818 H         1 UNK         0.0828 
    110 H110       21.4233  -31.5650  -41.0115 H         1 UNK         0.2931 
    111 H111       19.5457  -33.6028  -40.0321 H         1 UNK         0.0412 
    112 H112       18.1365  -30.0916  -38.8790 H         1 UNK         0.3472 
    113 H113       19.8401  -30.3953  -39.1137 H         1 UNK         0.3472 
    114 H114       20.1649  -33.7446  -42.3735 H         1 UNK         0.0970 
    115 H115       18.4627  -33.4846  -42.1817 H         1 UNK         0.0970 
    116 H116       17.7899  -32.6306  -44.4406 H         1 UNK         0.0612 
    117 H117       17.1617  -31.5278  -43.2314 H         1 UNK         0.0612 
@<TRIPOS>BOND
     1    1    2 1    
     2    1   62 1    
     3    1   63 1    
     4    1   64 1    
     5    2    3 2    
     6    2    4 am   BACKBONE|DICT|INTERRES
     7    4    5 1    
     8    4   65 1    
     9    5    6 1    
    10    5   25 1    
    11    5   66 1    
    12    6    7 1    
    13    6   67 1    
    14    6   68 1    
    15    7    8 1    
    16    8    9 1    
    17    8   69 1    
    18    8   70 1    
    19    9   10 ar   
    20    9   14 ar   
    21   10   11 ar   
    22   10   71 1    
    23   11   12 ar   
    24   11   61 1    
    25   12   13 ar   
    26   12   72 1    
    27   13   14 ar   
    28   13   15 1    
    29   14   73 1    
    30   15   16 1    
    31   15   74 1    
    32   15   75 1    
    33   16   17 1    
    34   17   18 1    
    35   17   76 1    
    36   17   77 1    
    37   18   19 1    
    38   18   27 1    
    39   18   78 1    
    40   19   20 am   BACKBONE|DICT|INTERRES
    41   19   79 1    
    42   20   21 2    
    43   20   22 1    
    44   22   23 1    
    45   22   24 1    
    46   22   80 1    
    47   23   81 1    
    48   23   82 1    
    49   23   83 1    
    50   24   25 am   BACKBONE|DICT|INTERRES
    51   24   84 1    
    52   25   26 2    
    53   27   28 2    
    54   27   29 am   BACKBONE|DICT|INTERRES
    55   29   30 1    
    56   29   85 1    
    57   30   31 1    
    58   30   32 1    
    59   30   86 1    
    60   31   87 1    
    61   31   88 1    
    62   31   89 1    
    63   32   33 2    
    64   32   34 am   BACKBONE|DICT|INTERRES
    65   34   35 1    
    66   34   90 1    
    67   35   36 1    
    68   35   37 1    
    69   35   91 1    
    70   36   92 1    
    71   36   93 1    
    72   36   94 1    
    73   37   38 2    
    74   37   39 am   BACKBONE|DICT|INTERRES
    75   39   40 1    
    76   39   95 1    
    77   40   41 1    
    78   40   42 1    
    79   40   96 1    
    80   41   97 1    
    81   41   98 1    
    82   41   99 1    
    83   42   43 2    
    84   42   44 am   BACKBONE|DICT|INTERRES
    85   44   45 1    
    86   44  100 1    
    87   45   46 1    
    88   45   47 1    
    89   45  101 1    
    90   46  102 1    
    91   46  103 1    
    92   46  104 1    
    93   47   48 2    
    94   47   49 am   BACKBONE|DICT|INTERRES
    95   49   50 1    
    96   49  105 1    
    97   50   51 1    
    98   50   52 1    
    99   50  106 1    
   100   51  107 1    
   101   51  108 1    
   102   51  109 1    
   103   52   53 2    
   104   52   54 am   BACKBONE|DICT|INTERRES
   105   54   55 1    
   106   54  110 1    
   107   55   56 1    
   108   55   59 1    
   109   55  111 1    
   110   56   57 am   BACKBONE|DICT|INTERRES
   111   56   58 2    
   112   57  112 1    
   113   57  113 1    
   114   59   60 1    
   115   59  114 1    
   116   59  115 1    
   117   60   61 1    
   118   61  116 1    
   119   61  117 1    
@<TRIPOS>SUBSTRUCTURE
     1 UNK         1 GROUP             0       ****    0 ROOT    
