@<TRIPOS>MOLECULE
3R8
117   119    1
SMALL
USER_CHARGES


@<TRIPOS>ATOM
      1 CA         20.4271  -28.8666  -49.3290 C.3       0 UNK        -0.2013 
      2 C          19.5725  -28.5074  -48.1235 C.2       0 UNK         0.4866 
      3 O          19.9582  -28.7933  -46.9899 O.2       0 UNK        -0.5176 
      4 N          18.4191  -27.8646  -48.3499 N.am      1 UNK        -0.4884 
      5 CA         17.4509  -27.4472  -47.3263 C.3       1 UNK         0.0853 
      6 C6         16.0274  -27.3505  -47.9348 C.3       10 UNK        -0.0849 
      7 S7         14.6751  -27.2708  -46.7093 S.3       10 UNK        -0.2776 
      8 C8         14.4939  -29.0088  -46.1939 C.3       10 UNK         0.0316 
      9 C9         15.2932  -29.3089  -44.9328 C.ar      10 UNK        -0.0863 
     10 C10        16.4070  -30.1534  -44.9742 C.ar      10 UNK        -0.1009 
     11 C11        17.1154  -30.4513  -43.8056 C.ar      10 UNK        -0.0712 
     12 C12        16.6841  -29.9187  -42.5874 C.ar      10 UNK        -0.0894 
     13 C13        15.5996  -29.0376  -42.5368 C.ar      10 UNK        -0.0745 
     14 C14        14.9015  -28.7491  -43.7127 C.ar      10 UNK        -0.0972 
     15 C15        15.1658  -28.3964  -41.2213 C.3       10 UNK         0.0209 
     16 S16        16.5480  -27.7202  -40.2352 S.3       10 UNK        -0.2568 
     17 C17        17.3384  -26.5446  -41.3909 C.3       10 UNK        -0.0983 
     18 CA         18.7213  -27.0559  -41.8889 C.3       3 UNK         0.0876 
     19 N          19.0270  -26.6363  -43.2625 N.am      3 UNK        -0.4424 
     20 C          19.2840  -25.3852  -43.6763 C.2       2 UNK         0.4918 
     21 O          19.2242  -24.3912  -42.9529 O.2       2 UNK        -0.4875 
     22 CA         19.7128  -25.2190  -45.1433 C.3       2 UNK         0.0481 
     23 CB         21.2449  -25.2813  -45.2572 C.3       2 UNK        -0.1831 
     24 N          19.1264  -26.2476  -46.0021 N.am      2 UNK        -0.4498 
     25 C          17.9180  -26.1774  -46.5734 C.2       1 UNK         0.5027 
     26 O          17.2098  -25.1697  -46.5343 O.2       1 UNK        -0.4969 
     27 C          19.8944  -26.7816  -40.9128 C.2       3 UNK         0.5005 
     28 O          19.6756  -26.5002  -39.7328 O.2       3 UNK        -0.5279 
     29 N          21.1304  -26.8594  -41.4279 N.am      4 UNK        -0.4463 
     30 CA         22.3613  -26.6493  -40.6718 C.3       4 UNK         0.0283 
     31 CB         23.4626  -26.1471  -41.6204 C.3       4 UNK        -0.1875 
     32 C          22.7820  -27.9564  -39.9918 C.2       4 UNK         0.4949 
     33 O          22.9873  -28.9578  -40.6790 O.2       4 UNK        -0.5039 
     34 N          22.9368  -27.9183  -38.6630 N.am      5 UNK        -0.4663 
     35 CA         23.3586  -29.0597  -37.8410 C.3       5 UNK         0.0242 
     36 CB         23.1022  -28.7331  -36.3608 C.3       5 UNK        -0.1982 
     37 C          24.8268  -29.4754  -38.0543 C.2       5 UNK         0.5017 
     38 O          25.2022  -30.5840  -37.6698 O.2       5 UNK        -0.5012 
     39 N          25.6296  -28.5889  -38.6589 N.am      6 UNK        -0.4439 
     40 CA         27.0261  -28.8022  -39.0348 C.3       6 UNK         0.0297 
     41 CB         27.6769  -27.4364  -39.3224 C.3       6 UNK        -0.2006 
     42 C          27.1460  -29.7691  -40.2277 C.2       6 UNK         0.4892 
     43 O          27.3768  -29.3325  -41.3562 O.2       6 UNK        -0.5089 
     44 N          26.9511  -31.0646  -39.9493 N.am      7 UNK        -0.4243 
     45 CA         27.0808  -32.2406  -40.8229 C.3       7 UNK         0.0196 
     46 CB         28.5153  -32.3647  -41.3739 C.3       7 UNK        -0.2007 
     47 C          26.0480  -32.3618  -41.9603 C.2       7 UNK         0.5020 
     48 O          25.7463  -33.4881  -42.3549 O.2       7 UNK        -0.5147 
     49 N          25.5292  -31.2388  -42.4735 N.am      8 UNK        -0.4734 
     50 CA         24.5627  -31.1819  -43.5751 C.3       8 UNK         0.0238 
     51 CB         24.3763  -29.7240  -44.0290 C.3       8 UNK        -0.1912 
     52 C          23.2149  -31.8311  -43.2220 C.2       8 UNK         0.5038 
     53 O          22.7869  -32.7535  -43.9177 O.2       8 UNK        -0.5046 
     54 N          22.5944  -31.3444  -42.1425 N.am      9 UNK        -0.4200 
     55 CA         21.3150  -31.8208  -41.5965 C.3       9 UNK         0.0839 
     56 C          21.4384  -32.2862  -40.1168 C.2       9 UNK         0.5513 
     57 N          22.6347  -32.3977  -39.5506 N.am      9 UNK        -0.7519 
     58 O          20.4329  -32.5737  -39.4730 O.2       9 UNK        -0.4960 
     59 C59        20.1891  -30.7670  -41.7826 C.3       10 UNK        -0.0876 
     60 S60        19.8705  -30.3829  -43.5415 S.3       10 UNK        -0.2414 
     61 C61        18.3515  -31.3375  -43.8634 C.3       10 UNK         0.0169 
     62 H62        21.4019  -28.3854  -49.2539 H         1 UNK         0.0903 
     63 H63        20.5816  -29.9445  -49.3697 H         1 UNK         0.0903 
     64 H64        19.9650  -28.5544  -50.2652 H         1 UNK         0.0903 
     65 H65        18.1767  -27.6192  -49.2999 H         1 UNK         0.3096 
     66 H66        17.4244  -28.2351  -46.5739 H         1 UNK         0.1121 
     67 H67        15.9516  -26.4777  -48.5861 H         1 UNK         0.0849 
     68 H68        15.8378  -28.2105  -48.5793 H         1 UNK         0.0849 
     69 H69        13.4392  -29.2040  -45.9943 H         1 UNK         0.0865 
     70 H70        14.7733  -29.6785  -47.0087 H         1 UNK         0.0865 
     71 H71        16.7255  -30.5775  -45.9169 H         1 UNK         0.1346 
     72 H72        17.2158  -30.1582  -41.6783 H         1 UNK         0.1412 
     73 H73        14.0490  -28.0838  -43.6839 H         1 UNK         0.1426 
     74 H74        14.6427  -29.1442  -40.6242 H         1 UNK         0.0716 
     75 H75        14.4510  -27.5922  -41.4031 H         1 UNK         0.0716 
     76 H76        17.4244  -25.5673  -40.9126 H         1 UNK         0.0695 
     77 H77        16.6651  -26.3951  -42.2365 H         1 UNK         0.0695 
     78 H78        18.6674  -28.1412  -41.9502 H         1 UNK         0.0983 
     79 H79        19.0876  -27.3826  -43.9403 H         1 UNK         0.3095 
     80 H80        19.3875  -24.2328  -45.4810 H         1 UNK         0.0454 
     81 H81        21.6382  -26.2516  -44.9515 H         1 UNK         0.0851 
     82 H82        21.7148  -24.5251  -44.6265 H         1 UNK         0.0851 
     83 H83        21.5724  -25.0960  -46.2803 H         1 UNK         0.0851 
     84 H84        19.6549  -27.1054  -46.1449 H         1 UNK         0.2976 
     85 H85        21.2355  -27.1462  -42.3895 H         1 UNK         0.3116 
     86 H86        22.1948  -25.8806  -39.9137 H         1 UNK         0.0646 
     87 H87        23.6701  -26.8587  -42.4197 H         1 UNK         0.0847 
     88 H88        24.3970  -25.9818  -41.0825 H         1 UNK         0.0847 
     89 H89        23.1842  -25.1996  -42.0822 H         1 UNK         0.0847 
     90 H90        22.7352  -27.0574  -38.1733 H         1 UNK         0.3040 
     91 H91        22.7410  -29.9180  -38.1142 H         1 UNK         0.1015 
     92 H92        23.3729  -29.5753  -35.7222 H         1 UNK         0.0786 
     93 H93        22.0491  -28.5178  -36.1784 H         1 UNK         0.0786 
     94 H94        23.6850  -27.8726  -36.0295 H         1 UNK         0.0786 
     95 H95        25.2141  -27.7165  -38.9491 H         1 UNK         0.3172 
     96 H96        27.5508  -29.2494  -38.1877 H         1 UNK         0.0595 
     97 H97        27.1785  -26.9115  -40.1385 H         1 UNK         0.0839 
     98 H98        28.7238  -27.5563  -39.6049 H         1 UNK         0.0839 
     99 H99        27.6525  -26.7915  -38.4438 H         1 UNK         0.0839 
    100 H100       26.6421  -31.2680  -39.0037 H         1 UNK         0.2998 
    101 H101       26.9090  -33.0990  -40.1712 H         1 UNK         0.0822 
    102 H102       29.2508  -32.3695  -40.5695 H         1 UNK         0.0787 
    103 H103       28.6394  -33.2945  -41.9309 H         1 UNK         0.0787 
    104 H104       28.7635  -31.5474  -42.0518 H         1 UNK         0.0787 
    105 H105       25.8960  -30.3583  -42.1254 H         1 UNK         0.3055 
    106 H106       24.9831  -31.7438  -44.4123 H         1 UNK         0.1106 
    107 H107       23.6505  -29.6571  -44.8409 H         1 UNK         0.0828 
    108 H108       24.0171  -29.0907  -43.2185 H         1 UNK         0.0828 
    109 H109       25.3119  -29.3001  -44.3942 H         1 UNK         0.0828 
    110 H110       22.9970  -30.5521  -41.6470 H         1 UNK         0.2931 
    111 H111       21.0085  -32.7191  -42.1349 H         1 UNK         0.0412 
    112 H112       23.4674  -32.1920  -40.0772 H         1 UNK         0.3472 
    113 H113       22.7030  -32.7151  -38.5967 H         1 UNK         0.3472 
    114 H114       20.4569  -29.8428  -41.2699 H         1 UNK         0.0970 
    115 H115       19.2643  -31.1076  -41.3163 H         1 UNK         0.0970 
    116 H116       18.2558  -32.1623  -43.1561 H         1 UNK         0.0612 
    117 H117       18.4433  -31.7956  -44.8494 H         1 UNK         0.0612 
@<TRIPOS>BOND
     1    1    2 1    
     2    1   62 1    
     3    1   63 1    
     4    1   64 1    
     5    2    3 2    
     6    2    4 am   BACKBONE|DICT|INTERRES
     7    4    5 1    
     8    4   65 1    
     9    5    6 1    
    10    5   25 1    
    11    5   66 1    
    12    6    7 1    
    13    6   67 1    
    14    6   68 1    
    15    7    8 1    
    16    8    9 1    
    17    8   69 1    
    18    8   70 1    
    19    9   10 ar   
    20    9   14 ar   
    21   10   11 ar   
    22   10   71 1    
    23   11   12 ar   
    24   11   61 1    
    25   12   13 ar   
    26   12   72 1    
    27   13   14 ar   
    28   13   15 1    
    29   14   73 1    
    30   15   16 1    
    31   15   74 1    
    32   15   75 1    
    33   16   17 1    
    34   17   18 1    
    35   17   76 1    
    36   17   77 1    
    37   18   19 1    
    38   18   27 1    
    39   18   78 1    
    40   19   20 am   BACKBONE|DICT|INTERRES
    41   19   79 1    
    42   20   21 2    
    43   20   22 1    
    44   22   23 1    
    45   22   24 1    
    46   22   80 1    
    47   23   81 1    
    48   23   82 1    
    49   23   83 1    
    50   24   25 am   BACKBONE|DICT|INTERRES
    51   24   84 1    
    52   25   26 2    
    53   27   28 2    
    54   27   29 am   BACKBONE|DICT|INTERRES
    55   29   30 1    
    56   29   85 1    
    57   30   31 1    
    58   30   32 1    
    59   30   86 1    
    60   31   87 1    
    61   31   88 1    
    62   31   89 1    
    63   32   33 2    
    64   32   34 am   BACKBONE|DICT|INTERRES
    65   34   35 1    
    66   34   90 1    
    67   35   36 1    
    68   35   37 1    
    69   35   91 1    
    70   36   92 1    
    71   36   93 1    
    72   36   94 1    
    73   37   38 2    
    74   37   39 am   BACKBONE|DICT|INTERRES
    75   39   40 1    
    76   39   95 1    
    77   40   41 1    
    78   40   42 1    
    79   40   96 1    
    80   41   97 1    
    81   41   98 1    
    82   41   99 1    
    83   42   43 2    
    84   42   44 am   BACKBONE|DICT|INTERRES
    85   44   45 1    
    86   44  100 1    
    87   45   46 1    
    88   45   47 1    
    89   45  101 1    
    90   46  102 1    
    91   46  103 1    
    92   46  104 1    
    93   47   48 2    
    94   47   49 am   BACKBONE|DICT|INTERRES
    95   49   50 1    
    96   49  105 1    
    97   50   51 1    
    98   50   52 1    
    99   50  106 1    
   100   51  107 1    
   101   51  108 1    
   102   51  109 1    
   103   52   53 2    
   104   52   54 am   BACKBONE|DICT|INTERRES
   105   54   55 1    
   106   54  110 1    
   107   55   56 1    
   108   55   59 1    
   109   55  111 1    
   110   56   57 am   BACKBONE|DICT|INTERRES
   111   56   58 2    
   112   57  112 1    
   113   57  113 1    
   114   59   60 1    
   115   59  114 1    
   116   59  115 1    
   117   60   61 1    
   118   61  116 1    
   119   61  117 1    
@<TRIPOS>SUBSTRUCTURE
     1 UNK         1 GROUP             0       ****    0 ROOT    
