@<TRIPOS>MOLECULE
3R8
117   119    1
SMALL
USER_CHARGES


@<TRIPOS>ATOM
      1 CA         19.4898  -27.0625  -41.0294 C.3       0 UNK        -0.2013 
      2 C          18.9966  -26.8944  -42.4529 C.2       0 UNK         0.4866 
      3 O          19.5744  -27.4687  -43.3792 O.2       0 UNK        -0.5176 
      4 N          17.9464  -26.0762  -42.6199 N.am      1 UNK        -0.4884 
      5 CA         17.1895  -25.8214  -43.8607 C.3       1 UNK         0.0853 
      6 C6         16.4494  -27.0854  -44.3728 C.3       10 UNK        -0.0849 
      7 S7         15.3568  -27.8602  -43.1270 S.3       10 UNK        -0.2776 
      8 C8         14.6822  -29.2803  -44.0565 C.3       10 UNK         0.0316 
      9 C9         15.7912  -30.1643  -44.6073 C.ar      10 UNK        -0.0863 
     10 C10        16.4195  -31.1085  -43.7904 C.ar      10 UNK        -0.1009 
     11 C11        17.5085  -31.8451  -44.2686 C.ar      10 UNK        -0.0712 
     12 C12        17.9613  -31.6354  -45.5752 C.ar      10 UNK        -0.0894 
     13 C13        17.3404  -30.6900  -46.3972 C.ar      10 UNK        -0.0745 
     14 C14        16.2351  -29.9843  -45.9199 C.ar      10 UNK        -0.0972 
     15 C15        17.9009  -30.3701  -47.7746 C.3       10 UNK         0.0209 
     16 S16        18.7489  -28.7538  -47.7802 S.3       10 UNK        -0.2568 
     17 C17        20.1012  -29.0763  -46.6031 C.3       10 UNK        -0.0983 
     18 CA         21.1473  -27.9356  -46.5642 C.3       3 UNK         0.0876 
     19 N          20.6249  -26.7108  -45.9600 N.am      3 UNK        -0.4424 
     20 C          20.9188  -25.4667  -46.3622 C.2       2 UNK         0.4918 
     21 O          21.6471  -25.2202  -47.3245 O.2       2 UNK        -0.4875 
     22 CA         20.3299  -24.2927  -45.5449 C.3       2 UNK         0.0481 
     23 CB         19.9318  -23.0952  -46.4333 C.3       2 UNK        -0.1831 
     24 N          19.2346  -24.6884  -44.6500 N.am      2 UNK        -0.4498 
     25 C          18.0323  -25.1796  -44.9911 C.2       1 UNK         0.5027 
     26 O          17.5980  -25.1742  -46.1436 O.2       1 UNK        -0.4969 
     27 C          22.3939  -28.3925  -45.7929 C.2       3 UNK         0.5005 
     28 O          23.4376  -28.6101  -46.4111 O.2       3 UNK        -0.5279 
     29 N          22.2677  -28.5448  -44.4663 N.am      4 UNK        -0.4463 
     30 CA         23.3067  -29.1165  -43.6105 C.3       4 UNK         0.0283 
     31 CB         23.3714  -30.6448  -43.7972 C.3       4 UNK        -0.1875 
     32 C          23.0744  -28.7046  -42.1532 C.2       4 UNK         0.4949 
     33 O          22.7807  -29.5473  -41.3030 O.2       4 UNK        -0.5039 
     34 N          23.2045  -27.3983  -41.8913 N.am      5 UNK        -0.4663 
     35 CA         23.0912  -26.8077  -40.5530 C.3       5 UNK         0.0242 
     36 CB         22.9483  -25.2826  -40.6858 C.3       5 UNK        -0.1982 
     37 C          24.2629  -27.1613  -39.6206 C.2       5 UNK         0.5017 
     38 O          24.0680  -27.2052  -38.4049 O.2       5 UNK        -0.5012 
     39 N          25.4501  -27.3992  -40.1981 N.am      6 UNK        -0.4439 
     40 CA         26.6706  -27.7565  -39.4703 C.3       6 UNK         0.0297 
     41 CB         27.8861  -27.6211  -40.4036 C.3       6 UNK        -0.2006 
     42 C          26.6138  -29.1661  -38.8553 C.2       6 UNK         0.4892 
     43 O          27.0607  -29.3472  -37.7216 O.2       6 UNK        -0.5089 
     44 N          26.0631  -30.1266  -39.6078 N.am      7 UNK        -0.4243 
     45 CA         25.9016  -31.5261  -39.2224 C.3       7 UNK         0.0196 
     46 CB         27.2674  -32.2476  -39.1719 C.3       7 UNK        -0.2007 
     47 C          24.9721  -32.1830  -40.2575 C.2       7 UNK         0.5020 
     48 O          25.4191  -32.3894  -41.3843 O.2       7 UNK        -0.5147 
     49 N          23.7106  -32.5033  -39.9434 N.am      8 UNK        -0.4734 
     50 CA         23.0077  -32.2974  -38.6757 C.3       8 UNK         0.0238 
     51 CB         23.3830  -33.4112  -37.6719 C.3       8 UNK        -0.1912 
     52 C          21.4920  -32.2128  -38.9259 C.2       8 UNK         0.5038 
     53 O          20.7165  -32.8320  -38.1944 O.2       8 UNK        -0.5046 
     54 N          21.0907  -31.4596  -39.9587 N.am      9 UNK        -0.4200 
     55 CA         19.6772  -31.2124  -40.2969 C.3       9 UNK         0.0839 
     56 C          18.9755  -30.1707  -39.3767 C.2       9 UNK         0.5513 
     57 N          19.6849  -29.4534  -38.5119 N.am      9 UNK        -0.7519 
     58 O          17.7591  -30.0170  -39.4437 O.2       9 UNK        -0.4960 
     59 C59        19.4957  -30.8586  -41.7959 C.3       10 UNK        -0.0876 
     60 S60        19.8798  -32.2723  -42.8834 S.3       10 UNK        -0.2414 
     61 C61        18.2183  -32.8439  -43.3652 C.3       10 UNK         0.0169 
     62 H62        18.6581  -27.2644  -40.3555 H         1 UNK         0.0903 
     63 H63        20.1861  -27.8961  -40.9656 H         1 UNK         0.0903 
     64 H64        19.9966  -26.1609  -40.6911 H         1 UNK         0.0903 
     65 H65        17.5565  -25.6303  -41.8003 H         1 UNK         0.3096 
     66 H66        16.4326  -25.0770  -43.6082 H         1 UNK         0.1121 
     67 H67        17.1901  -27.8175  -44.6967 H         1 UNK         0.0849 
     68 H68        15.8397  -26.8537  -45.2481 H         1 UNK         0.0849 
     69 H69        14.0355  -29.8635  -43.3993 H         1 UNK         0.0865 
     70 H70        14.0460  -28.9146  -44.8643 H         1 UNK         0.0865 
     71 H71        16.0834  -31.2411  -42.7709 H         1 UNK         0.1346 
     72 H72        18.8236  -32.1803  -45.9344 H         1 UNK         0.1412 
     73 H73        15.7693  -29.2378  -46.5491 H         1 UNK         0.1426 
     74 H74        17.0891  -30.3499  -48.5032 H         1 UNK         0.0716 
     75 H75        18.5932  -31.1461  -48.1048 H         1 UNK         0.0716 
     76 H76        20.5704  -30.0186  -46.8945 H         1 UNK         0.0695 
     77 H77        19.6724  -29.2389  -45.6120 H         1 UNK         0.0695 
     78 H78        21.4588  -27.7340  -47.5919 H         1 UNK         0.0983 
     79 H79        20.0554  -26.8372  -45.1284 H         1 UNK         0.3095 
     80 H80        21.1347  -23.9567  -44.8899 H         1 UNK         0.0454 
     81 H81        20.7992  -22.6942  -46.9587 H         1 UNK         0.0851 
     82 H82        19.5107  -22.2831  -45.8412 H         1 UNK         0.0851 
     83 H83        19.1997  -23.3748  -47.1909 H         1 UNK         0.0851 
     84 H84        19.4756  -24.7423  -43.6700 H         1 UNK         0.2976 
     85 H85        21.3863  -28.3101  -44.0174 H         1 UNK         0.3116 
     86 H86        24.2735  -28.7008  -43.9019 H         1 UNK         0.0646 
     87 H87        22.4324  -31.1235  -43.5260 H         1 UNK         0.0847 
     88 H88        23.6011  -30.9187  -44.8267 H         1 UNK         0.0847 
     89 H89        24.1511  -31.0772  -43.1733 H         1 UNK         0.0847 
     90 H90        23.4226  -26.7703  -42.6525 H         1 UNK         0.3040 
     91 H91        22.1913  -27.1996  -40.0769 H         1 UNK         0.1015 
     92 H92        22.0906  -25.0130  -41.3020 H         1 UNK         0.0786 
     93 H93        22.8035  -24.8187  -39.7088 H         1 UNK         0.0786 
     94 H94        23.8353  -24.8308  -41.1322 H         1 UNK         0.0786 
     95 H95        25.5156  -27.3224  -41.2029 H         1 UNK         0.3172 
     96 H96        26.7943  -27.0429  -38.6518 H         1 UNK         0.0595 
     97 H97        27.8174  -28.2902  -41.2630 H         1 UNK         0.0839 
     98 H98        28.8097  -27.8643  -39.8763 H         1 UNK         0.0839 
     99 H99        27.9892  -26.6017  -40.7775 H         1 UNK         0.0839 
    100 H100       25.6967  -29.8863  -40.5194 H         1 UNK         0.2998 
    101 H101       25.4746  -31.5597  -38.2205 H         1 UNK         0.0822 
    102 H102       27.1376  -33.3112  -38.9637 H         1 UNK         0.0787 
    103 H103       27.8067  -32.1620  -40.1177 H         1 UNK         0.0787 
    104 H104       27.9071  -31.8453  -38.3865 H         1 UNK         0.0787 
    105 H105       23.1396  -32.9100  -40.6723 H         1 UNK         0.3055 
    106 H106       23.2818  -31.3271  -38.2566 H         1 UNK         0.1106 
    107 H107       24.4562  -33.4698  -37.4924 H         1 UNK         0.0828 
    108 H108       22.9082  -33.2404  -36.7044 H         1 UNK         0.0828 
    109 H109       23.0569  -34.3905  -38.0258 H         1 UNK         0.0828 
    110 H110       21.7781  -30.9306  -40.4911 H         1 UNK         0.2931 
    111 H111       19.1322  -32.1438  -40.1277 H         1 UNK         0.0412 
    112 H112       19.2120  -28.7951  -37.9126 H         1 UNK         0.3472 
    113 H113       20.6821  -29.5723  -38.4434 H         1 UNK         0.3472 
    114 H114       20.1434  -30.0274  -42.0760 H         1 UNK         0.0970 
    115 H115       18.4802  -30.5174  -41.9995 H         1 UNK         0.0970 
    116 H116       17.6334  -33.0446  -42.4662 H         1 UNK         0.0612 
    117 H117       18.3126  -33.7954  -43.8898 H         1 UNK         0.0612 
@<TRIPOS>BOND
     1    1    2 1    
     2    1   62 1    
     3    1   63 1    
     4    1   64 1    
     5    2    3 2    
     6    2    4 am   BACKBONE|DICT|INTERRES
     7    4    5 1    
     8    4   65 1    
     9    5    6 1    
    10    5   25 1    
    11    5   66 1    
    12    6    7 1    
    13    6   67 1    
    14    6   68 1    
    15    7    8 1    
    16    8    9 1    
    17    8   69 1    
    18    8   70 1    
    19    9   10 ar   
    20    9   14 ar   
    21   10   11 ar   
    22   10   71 1    
    23   11   12 ar   
    24   11   61 1    
    25   12   13 ar   
    26   12   72 1    
    27   13   14 ar   
    28   13   15 1    
    29   14   73 1    
    30   15   16 1    
    31   15   74 1    
    32   15   75 1    
    33   16   17 1    
    34   17   18 1    
    35   17   76 1    
    36   17   77 1    
    37   18   19 1    
    38   18   27 1    
    39   18   78 1    
    40   19   20 am   BACKBONE|DICT|INTERRES
    41   19   79 1    
    42   20   21 2    
    43   20   22 1    
    44   22   23 1    
    45   22   24 1    
    46   22   80 1    
    47   23   81 1    
    48   23   82 1    
    49   23   83 1    
    50   24   25 am   BACKBONE|DICT|INTERRES
    51   24   84 1    
    52   25   26 2    
    53   27   28 2    
    54   27   29 am   BACKBONE|DICT|INTERRES
    55   29   30 1    
    56   29   85 1    
    57   30   31 1    
    58   30   32 1    
    59   30   86 1    
    60   31   87 1    
    61   31   88 1    
    62   31   89 1    
    63   32   33 2    
    64   32   34 am   BACKBONE|DICT|INTERRES
    65   34   35 1    
    66   34   90 1    
    67   35   36 1    
    68   35   37 1    
    69   35   91 1    
    70   36   92 1    
    71   36   93 1    
    72   36   94 1    
    73   37   38 2    
    74   37   39 am   BACKBONE|DICT|INTERRES
    75   39   40 1    
    76   39   95 1    
    77   40   41 1    
    78   40   42 1    
    79   40   96 1    
    80   41   97 1    
    81   41   98 1    
    82   41   99 1    
    83   42   43 2    
    84   42   44 am   BACKBONE|DICT|INTERRES
    85   44   45 1    
    86   44  100 1    
    87   45   46 1    
    88   45   47 1    
    89   45  101 1    
    90   46  102 1    
    91   46  103 1    
    92   46  104 1    
    93   47   48 2    
    94   47   49 am   BACKBONE|DICT|INTERRES
    95   49   50 1    
    96   49  105 1    
    97   50   51 1    
    98   50   52 1    
    99   50  106 1    
   100   51  107 1    
   101   51  108 1    
   102   51  109 1    
   103   52   53 2    
   104   52   54 am   BACKBONE|DICT|INTERRES
   105   54   55 1    
   106   54  110 1    
   107   55   56 1    
   108   55   59 1    
   109   55  111 1    
   110   56   57 am   BACKBONE|DICT|INTERRES
   111   56   58 2    
   112   57  112 1    
   113   57  113 1    
   114   59   60 1    
   115   59  114 1    
   116   59  115 1    
   117   60   61 1    
   118   61  116 1    
   119   61  117 1    
@<TRIPOS>SUBSTRUCTURE
     1 UNK         1 GROUP             0       ****    0 ROOT    
