@<TRIPOS>MOLECULE
3R8
117   119    1
SMALL
USER_CHARGES


@<TRIPOS>ATOM
      1 CA         11.9055  -26.8835  -44.0303 C.3       0 UNK        -0.2013 
      2 C          13.3063  -26.2906  -44.0007 C.2       0 UNK         0.4866 
      3 O          13.5576  -25.3493  -43.2471 O.2       0 UNK        -0.5176 
      4 N          14.2157  -26.8255  -44.8241 N.am      1 UNK        -0.4884 
      5 CA         15.6289  -26.4394  -44.8859 C.3       1 UNK         0.0853 
      6 C6         16.3080  -26.8759  -46.2172 C.3       10 UNK        -0.0849 
      7 S7         15.8075  -28.4879  -46.9316 S.3       10 UNK        -0.2776 
      8 C8         16.3772  -29.7348  -45.7213 C.3       10 UNK         0.0316 
      9 C9         17.8578  -29.6729  -45.3461 C.ar      10 UNK        -0.0863 
     10 C10        18.2406  -30.0558  -44.0564 C.ar      10 UNK        -0.1009 
     11 C11        19.5846  -30.0267  -43.6631 C.ar      10 UNK        -0.0712 
     12 C12        20.5499  -29.6234  -44.5885 C.ar      10 UNK        -0.0894 
     13 C13        20.1854  -29.2270  -45.8770 C.ar      10 UNK        -0.0745 
     14 C14        18.8412  -29.2687  -46.2558 C.ar      10 UNK        -0.0972 
     15 C15        21.2395  -28.7461  -46.8607 C.3       10 UNK         0.0209 
     16 S16        21.4734  -26.9427  -46.7533 S.3       10 UNK        -0.2568 
     17 C17        22.5535  -26.7786  -45.2913 C.3       10 UNK        -0.0983 
     18 CA         21.9343  -25.9038  -44.1719 C.3       3 UNK         0.0876 
     19 N          20.6742  -26.4562  -43.6583 N.am      3 UNK        -0.4424 
     20 C          19.8600  -25.8270  -42.8012 C.2       2 UNK         0.4918 
     21 O          20.0510  -24.6819  -42.3873 O.2       2 UNK        -0.4875 
     22 CA         18.5738  -26.5644  -42.4127 C.3       2 UNK         0.0481 
     23 CB         18.0663  -26.1647  -41.0120 C.3       2 UNK        -0.1831 
     24 N          17.5834  -26.2569  -43.4390 N.am      2 UNK        -0.4498 
     25 C          16.4282  -26.8997  -43.6465 C.2       1 UNK         0.5027 
     26 O          16.0095  -27.8166  -42.9345 O.2       1 UNK        -0.4969 
     27 C          22.9685  -25.6907  -43.0456 C.2       3 UNK         0.5005 
     28 O          23.0267  -26.4857  -42.1034 O.2       3 UNK        -0.5279 
     29 N          23.8109  -24.6575  -43.1995 N.am      4 UNK        -0.4463 
     30 CA         24.8656  -24.2610  -42.2537 C.3       4 UNK         0.0283 
     31 CB         25.5008  -22.9445  -42.7302 C.3       4 UNK        -0.1875 
     32 C          25.9557  -25.3243  -42.0138 C.2       4 UNK         0.4949 
     33 O          26.6389  -25.2671  -40.9917 O.2       4 UNK        -0.5039 
     34 N          26.0812  -26.2873  -42.9371 N.am      5 UNK        -0.4663 
     35 CA         26.9334  -27.4732  -42.8163 C.3       5 UNK         0.0242 
     36 CB         27.0783  -28.1151  -44.2068 C.3       5 UNK        -0.1982 
     37 C          26.4181  -28.5124  -41.7986 C.2       5 UNK         0.5017 
     38 O          27.1417  -29.4677  -41.5135 O.2       5 UNK        -0.5012 
     39 N          25.1828  -28.3423  -41.2998 N.am      6 UNK        -0.4439 
     40 CA         24.4345  -29.1941  -40.3663 C.3       6 UNK         0.0297 
     41 CB         25.1822  -29.4165  -39.0374 C.3       6 UNK        -0.2006 
     42 C          23.9676  -30.5203  -40.9839 C.2       6 UNK         0.4892 
     43 O          22.7893  -30.8443  -40.8608 O.2       6 UNK        -0.5089 
     44 N          24.8710  -31.2417  -41.6614 N.am      7 UNK        -0.4243 
     45 CA         24.6317  -32.4811  -42.4080 C.3       7 UNK         0.0196 
     46 CB         23.9120  -32.1553  -43.7382 C.3       7 UNK        -0.2007 
     47 C          23.9225  -33.5514  -41.5504 C.2       7 UNK         0.5020 
     48 O          24.4998  -34.0093  -40.5635 O.2       7 UNK        -0.5147 
     49 N          22.6957  -33.9253  -41.9343 N.am      8 UNK        -0.4734 
     50 CA         21.8576  -34.9021  -41.2361 C.3       8 UNK         0.0238 
     51 CB         20.9764  -35.6172  -42.2753 C.3       8 UNK        -0.1912 
     52 C          20.9820  -34.2908  -40.1248 C.2       8 UNK         0.5038 
     53 O          20.3734  -35.0559  -39.3744 O.2       8 UNK        -0.5046 
     54 N          20.8940  -32.9559  -40.0437 N.am      9 UNK        -0.4200 
     55 CA         20.0857  -32.2417  -39.0438 C.3       9 UNK         0.0839 
     56 C          20.7551  -32.2546  -37.6432 C.2       9 UNK         0.5513 
     57 N          19.9613  -32.2416  -36.5809 N.am      9 UNK        -0.7519 
     58 O          21.9767  -32.2363  -37.5068 O.2       9 UNK        -0.4960 
     59 C59        19.7557  -30.7909  -39.4842 C.3       10 UNK        -0.0876 
     60 S60        18.7605  -30.7069  -41.0140 S.3       10 UNK        -0.2414 
     61 C61        20.0591  -30.4014  -42.2597 C.3       10 UNK         0.0169 
     62 H62        11.6435  -27.2745  -43.0475 H         1 UNK         0.0903 
     63 H63        11.1786  -26.1169  -44.2975 H         1 UNK         0.0903 
     64 H64        11.8217  -27.6962  -44.7517 H         1 UNK         0.0903 
     65 H65        13.9643  -27.6063  -45.4144 H         1 UNK         0.3096 
     66 H66        15.6527  -25.3469  -44.8598 H         1 UNK         0.1121 
     67 H67        17.3968  -26.8377  -46.1500 H         1 UNK         0.0849 
     68 H68        16.0601  -26.1324  -46.9764 H         1 UNK         0.0849 
     69 H69        16.1753  -30.7243  -46.1333 H         1 UNK         0.0865 
     70 H70        15.7555  -29.6525  -44.8291 H         1 UNK         0.0865 
     71 H71        17.4753  -30.3657  -43.3594 H         1 UNK         0.1346 
     72 H72        21.5908  -29.6069  -44.2958 H         1 UNK         0.1412 
     73 H73        18.5633  -28.9741  -47.2584 H         1 UNK         0.1426 
     74 H74        20.9352  -28.9981  -47.8778 H         1 UNK         0.0716 
     75 H75        22.1882  -29.2591  -46.6949 H         1 UNK         0.0716 
     76 H76        23.4872  -26.3365  -45.6446 H         1 UNK         0.0695 
     77 H77        22.8226  -27.7634  -44.9077 H         1 UNK         0.0695 
     78 H78        21.6992  -24.9247  -44.5958 H         1 UNK         0.0983 
     79 H79        20.4264  -27.3792  -43.9860 H         1 UNK         0.3095 
     80 H80        18.7738  -27.6364  -42.4148 H         1 UNK         0.0454 
     81 H81        17.7693  -25.1161  -40.9723 H         1 UNK         0.0851 
     82 H82        18.8428  -26.3148  -40.2610 H         1 UNK         0.0851 
     83 H83        17.2091  -26.7665  -40.7108 H         1 UNK         0.0851 
     84 H84        17.8508  -25.5143  -44.0718 H         1 UNK         0.2976 
     85 H85        23.7057  -24.0686  -44.0141 H         1 UNK         0.3116 
     86 H86        24.3845  -24.0775  -41.2906 H         1 UNK         0.0646 
     87 H87        25.9771  -23.0550  -43.7052 H         1 UNK         0.0847 
     88 H88        26.2668  -22.6046  -42.0316 H         1 UNK         0.0847 
     89 H89        24.7602  -22.1480  -42.8044 H         1 UNK         0.0847 
     90 H90        25.4883  -26.2373  -43.7521 H         1 UNK         0.3040 
     91 H91        27.9214  -27.1541  -42.4767 H         1 UNK         0.1015 
     92 H92        26.1189  -28.4604  -44.5946 H         1 UNK         0.0786 
     93 H93        27.7446  -28.9784  -44.1726 H         1 UNK         0.0786 
     94 H94        27.5003  -27.4136  -44.9267 H         1 UNK         0.0786 
     95 H95        24.6453  -27.5516  -41.6459 H         1 UNK         0.3172 
     96 H96        23.5308  -28.6283  -40.1330 H         1 UNK         0.0595 
     97 H97        24.5504  -29.9508  -38.3263 H         1 UNK         0.0839 
     98 H98        25.4610  -28.4690  -38.5763 H         1 UNK         0.0839 
     99 H99        26.0889  -30.0076  -39.1665 H         1 UNK         0.0839 
    100 H100       25.8224  -30.8850  -41.6699 H         1 UNK         0.2998 
    101 H101       25.6129  -32.8901  -42.6535 H         1 UNK         0.0822 
    102 H102       23.7737  -33.0513  -44.3450 H         1 UNK         0.0787 
    103 H103       22.9335  -31.7013  -43.5792 H         1 UNK         0.0787 
    104 H104       24.4994  -31.4578  -44.3356 H         1 UNK         0.0787 
    105 H105       22.2963  -33.4844  -42.7502 H         1 UNK         0.3055 
    106 H106       22.4975  -35.6500  -40.7619 H         1 UNK         0.1106 
    107 H107       20.3642  -36.3887  -41.8059 H         1 UNK         0.0828 
    108 H108       20.2986  -34.9245  -42.7760 H         1 UNK         0.0828 
    109 H109       21.5806  -36.1083  -43.0383 H         1 UNK         0.0828 
    110 H110       21.5073  -32.3780  -40.6083 H         1 UNK         0.2931 
    111 H111       19.1360  -32.7741  -38.9552 H         1 UNK         0.0412 
    112 H112       18.9576  -32.2500  -36.6793 H         1 UNK         0.3472 
    113 H113       20.3737  -32.2351  -35.6608 H         1 UNK         0.3472 
    114 H114       20.6638  -30.1969  -39.5923 H         1 UNK         0.0970 
    115 H115       19.1747  -30.2906  -38.7071 H         1 UNK         0.0970 
    116 H116       20.6767  -31.2956  -42.3389 H         1 UNK         0.0612 
    117 H117       20.6993  -29.5970  -41.8944 H         1 UNK         0.0612 
@<TRIPOS>BOND
     1    1    2 1    
     2    1   62 1    
     3    1   63 1    
     4    1   64 1    
     5    2    3 2    
     6    2    4 am   BACKBONE|DICT|INTERRES
     7    4    5 1    
     8    4   65 1    
     9    5    6 1    
    10    5   25 1    
    11    5   66 1    
    12    6    7 1    
    13    6   67 1    
    14    6   68 1    
    15    7    8 1    
    16    8    9 1    
    17    8   69 1    
    18    8   70 1    
    19    9   10 ar   
    20    9   14 ar   
    21   10   11 ar   
    22   10   71 1    
    23   11   12 ar   
    24   11   61 1    
    25   12   13 ar   
    26   12   72 1    
    27   13   14 ar   
    28   13   15 1    
    29   14   73 1    
    30   15   16 1    
    31   15   74 1    
    32   15   75 1    
    33   16   17 1    
    34   17   18 1    
    35   17   76 1    
    36   17   77 1    
    37   18   19 1    
    38   18   27 1    
    39   18   78 1    
    40   19   20 am   BACKBONE|DICT|INTERRES
    41   19   79 1    
    42   20   21 2    
    43   20   22 1    
    44   22   23 1    
    45   22   24 1    
    46   22   80 1    
    47   23   81 1    
    48   23   82 1    
    49   23   83 1    
    50   24   25 am   BACKBONE|DICT|INTERRES
    51   24   84 1    
    52   25   26 2    
    53   27   28 2    
    54   27   29 am   BACKBONE|DICT|INTERRES
    55   29   30 1    
    56   29   85 1    
    57   30   31 1    
    58   30   32 1    
    59   30   86 1    
    60   31   87 1    
    61   31   88 1    
    62   31   89 1    
    63   32   33 2    
    64   32   34 am   BACKBONE|DICT|INTERRES
    65   34   35 1    
    66   34   90 1    
    67   35   36 1    
    68   35   37 1    
    69   35   91 1    
    70   36   92 1    
    71   36   93 1    
    72   36   94 1    
    73   37   38 2    
    74   37   39 am   BACKBONE|DICT|INTERRES
    75   39   40 1    
    76   39   95 1    
    77   40   41 1    
    78   40   42 1    
    79   40   96 1    
    80   41   97 1    
    81   41   98 1    
    82   41   99 1    
    83   42   43 2    
    84   42   44 am   BACKBONE|DICT|INTERRES
    85   44   45 1    
    86   44  100 1    
    87   45   46 1    
    88   45   47 1    
    89   45  101 1    
    90   46  102 1    
    91   46  103 1    
    92   46  104 1    
    93   47   48 2    
    94   47   49 am   BACKBONE|DICT|INTERRES
    95   49   50 1    
    96   49  105 1    
    97   50   51 1    
    98   50   52 1    
    99   50  106 1    
   100   51  107 1    
   101   51  108 1    
   102   51  109 1    
   103   52   53 2    
   104   52   54 am   BACKBONE|DICT|INTERRES
   105   54   55 1    
   106   54  110 1    
   107   55   56 1    
   108   55   59 1    
   109   55  111 1    
   110   56   57 am   BACKBONE|DICT|INTERRES
   111   56   58 2    
   112   57  112 1    
   113   57  113 1    
   114   59   60 1    
   115   59  114 1    
   116   59  115 1    
   117   60   61 1    
   118   61  116 1    
   119   61  117 1    
@<TRIPOS>SUBSTRUCTURE
     1 UNK         1 GROUP             0       ****    0 ROOT    
