@<TRIPOS>MOLECULE
3R8
117   119    1
SMALL
USER_CHARGES


@<TRIPOS>ATOM
      1 CA         18.9600  -27.7528  -40.9940 C.3       0 UNK        -0.2013 
      2 C          18.2522  -27.2338  -42.2339 C.2       0 UNK         0.4866 
      3 O          18.9076  -26.9706  -43.2446 O.2       0 UNK        -0.5176 
      4 N          16.9250  -27.0610  -42.1487 N.am      1 UNK        -0.4884 
      5 CA         16.0451  -26.4933  -43.1807 C.3       1 UNK         0.0853 
      6 C6         15.8979  -27.4030  -44.4340 C.3       10 UNK        -0.0849 
      7 S7         15.1917  -29.0338  -44.0160 S.3       10 UNK        -0.2776 
      8 C8         15.5664  -30.0029  -45.5151 C.3       10 UNK         0.0316 
      9 C9         17.0636  -30.1262  -45.7641 C.ar      10 UNK        -0.0863 
     10 C10        17.8624  -30.8796  -44.8983 C.ar      10 UNK        -0.1009 
     11 C11        19.2425  -30.9656  -45.1028 C.ar      10 UNK        -0.0712 
     12 C12        19.8213  -30.3062  -46.1899 C.ar      10 UNK        -0.0894 
     13 C13        19.0339  -29.5429  -47.0566 C.ar      10 UNK        -0.0745 
     14 C14        17.6541  -29.4667  -46.8470 C.ar      10 UNK        -0.0972 
     15 C15        19.6795  -28.7712  -48.1982 C.3       10 UNK         0.0209 
     16 S16        19.7777  -26.9872  -47.8388 S.3       10 UNK        -0.2568 
     17 C17        20.8832  -26.9686  -46.3873 C.3       10 UNK        -0.0983 
     18 CA         20.9894  -25.5666  -45.7386 C.3       3 UNK         0.0876 
     19 N          19.6935  -25.0773  -45.2647 N.am      3 UNK        -0.4424 
     20 C          19.1708  -23.8794  -45.5626 C.2       2 UNK         0.4918 
     21 O          19.7707  -23.0166  -46.2056 O.2       2 UNK        -0.4875 
     22 CA         17.7303  -23.5932  -45.0925 C.3       2 UNK         0.0481 
     23 CB         16.8995  -22.9024  -46.1894 C.3       2 UNK        -0.1831 
     24 N          17.0519  -24.8261  -44.6896 N.am      2 UNK        -0.4498 
     25 C          16.4911  -25.0479  -43.4948 C.2       1 UNK         0.5027 
     26 O          16.3551  -24.1812  -42.6286 O.2       1 UNK        -0.4969 
     27 C          22.0006  -25.5928  -44.5816 C.2       3 UNK         0.5005 
     28 O          23.0928  -25.0426  -44.7306 O.2       3 UNK        -0.5279 
     29 N          21.6233  -26.2394  -43.4635 N.am      4 UNK        -0.4463 
     30 CA         22.4450  -26.5159  -42.2747 C.3       4 UNK         0.0283 
     31 CB         22.6782  -25.2239  -41.4655 C.3       4 UNK        -0.1875 
     32 C          23.7534  -27.2522  -42.6308 C.2       4 UNK         0.4949 
     33 O          24.8416  -26.8137  -42.2552 O.2       4 UNK        -0.5039 
     34 N          23.6130  -28.3394  -43.4020 N.am      5 UNK        -0.4663 
     35 CA         24.7109  -29.0666  -44.0486 C.3       5 UNK         0.0242 
     36 CB         24.1125  -30.0391  -45.0794 C.3       5 UNK        -0.1982 
     37 C          25.6566  -29.8164  -43.0918 C.2       5 UNK         0.5017 
     38 O          26.7838  -30.1208  -43.4839 O.2       5 UNK        -0.5012 
     39 N          25.1888  -30.1138  -41.8759 N.am      6 UNK        -0.4439 
     40 CA         25.8869  -30.8560  -40.8302 C.3       6 UNK         0.0297 
     41 CB         25.9857  -32.3486  -41.2093 C.3       6 UNK        -0.2006 
     42 C          25.1069  -30.6874  -39.5228 C.2       6 UNK         0.4892 
     43 O          23.9441  -30.2757  -39.5581 O.2       6 UNK        -0.5089 
     44 N          25.7295  -31.0647  -38.3987 N.am      7 UNK        -0.4243 
     45 CA         25.1055  -31.0706  -37.0692 C.3       7 UNK         0.0196 
     46 CB         26.1762  -31.3545  -36.0033 C.3       7 UNK        -0.2007 
     47 C          23.9391  -32.0694  -36.9420 C.2       7 UNK         0.5020 
     48 O          22.9981  -31.8072  -36.1935 O.2       7 UNK        -0.5147 
     49 N          24.0107  -33.1833  -37.6857 N.am      8 UNK        -0.4734 
     50 CA         22.9401  -34.1811  -37.7901 C.3       8 UNK         0.0238 
     51 CB         23.5293  -35.5006  -38.3152 C.3       8 UNK        -0.1912 
     52 C          21.7757  -33.7191  -38.6864 C.2       8 UNK         0.5038 
     53 O          20.6496  -34.1788  -38.4944 O.2       8 UNK        -0.5046 
     54 N          22.0707  -32.8324  -39.6453 N.am      9 UNK        -0.4200 
     55 CA         21.0953  -32.1644  -40.5143 C.3       9 UNK         0.0839 
     56 C          20.3845  -31.0149  -39.7468 C.2       9 UNK         0.5513 
     57 N          21.1287  -30.0952  -39.1444 N.am      9 UNK        -0.7519 
     58 O          19.1591  -30.9720  -39.6796 O.2       9 UNK        -0.4960 
     59 C59        21.7735  -31.7354  -41.8482 C.3       10 UNK        -0.0876 
     60 S60        20.8351  -30.5888  -42.9117 S.3       10 UNK        -0.2414 
     61 C61        20.1182  -31.7307  -44.1264 C.3       10 UNK         0.0169 
     62 H62        19.7066  -28.4930  -41.2722 H         1 UNK         0.0903 
     63 H63        19.4667  -26.9362  -40.4808 H         1 UNK         0.0903 
     64 H64        18.2671  -28.2232  -40.2966 H         1 UNK         0.0903 
     65 H65        16.4626  -27.2827  -41.2780 H         1 UNK         0.3096 
     66 H66        15.0567  -26.4004  -42.7271 H         1 UNK         0.1121 
     67 H67        15.2444  -26.9393  -45.1754 H         1 UNK         0.0849 
     68 H68        16.8663  -27.5502  -44.9132 H         1 UNK         0.0849 
     69 H69        15.1384  -31.0006  -45.4078 H         1 UNK         0.0865 
     70 H70        15.0647  -29.5470  -46.3702 H         1 UNK         0.0865 
     71 H71        17.4120  -31.3738  -44.0482 H         1 UNK         0.1346 
     72 H72        20.8914  -30.3578  -46.3373 H         1 UNK         0.1412 
     73 H73        17.0474  -28.8680  -47.5127 H         1 UNK         0.1426 
     74 H74        19.0985  -28.9179  -49.1098 H         1 UNK         0.0716 
     75 H75        20.6805  -29.1517  -48.4080 H         1 UNK         0.0716 
     76 H76        20.5143  -27.6885  -45.6552 H         1 UNK         0.0695 
     77 H77        21.8654  -27.3234  -46.7062 H         1 UNK         0.0695 
     78 H78        21.3901  -24.8880  -46.4952 H         1 UNK         0.0983 
     79 H79        19.1821  -25.7063  -44.6517 H         1 UNK         0.3095 
     80 H80        17.8157  -22.9095  -44.2458 H         1 UNK         0.0454 
     81 H81        17.3423  -21.9484  -46.4783 H         1 UNK         0.0851 
     82 H82        16.8299  -23.5164  -47.0881 H         1 UNK         0.0851 
     83 H83        15.8862  -22.6941  -45.8460 H         1 UNK         0.0851 
     84 H84        17.1286  -25.5988  -45.3362 H         1 UNK         0.2976 
     85 H85        20.6797  -26.6249  -43.4372 H         1 UNK         0.3116 
     86 H86        21.8701  -27.1993  -41.6484 H         1 UNK         0.0646 
     87 H87        23.2122  -25.4355  -40.5384 H         1 UNK         0.0847 
     88 H88        21.7345  -24.7506  -41.1951 H         1 UNK         0.0847 
     89 H89        23.2701  -24.4977  -42.0234 H         1 UNK         0.0847 
     90 H90        22.6765  -28.6348  -43.6408 H         1 UNK         0.3040 
     91 H91        25.3193  -28.3339  -44.5836 H         1 UNK         0.1015 
     92 H92        23.5104  -29.5133  -45.8208 H         1 UNK         0.0786 
     93 H93        23.4813  -30.7917  -44.6051 H         1 UNK         0.0786 
     94 H94        24.8985  -30.5683  -45.6201 H         1 UNK         0.0786 
     95 H95        24.2790  -29.7660  -41.5988 H         1 UNK         0.3172 
     96 H96        26.8853  -30.4339  -40.6990 H         1 UNK         0.0595 
     97 H97        26.5601  -32.4923  -42.1245 H         1 UNK         0.0839 
     98 H98        25.0015  -32.7924  -41.3643 H         1 UNK         0.0839 
     99 H99        26.4869  -32.9255  -40.4314 H         1 UNK         0.0839 
    100 H100       26.6848  -31.3891  -38.4540 H         1 UNK         0.2998 
    101 H101       24.6990  -30.0728  -36.8885 H         1 UNK         0.0822 
    102 H102       26.9655  -30.6026  -36.0230 H         1 UNK         0.0787 
    103 H103       25.7429  -31.3399  -35.0021 H         1 UNK         0.0787 
    104 H104       26.6385  -32.3324  -36.1438 H         1 UNK         0.0787 
    105 H105       24.8385  -33.3360  -38.2431 H         1 UNK         0.3055 
    106 H106       22.5320  -34.3605  -36.7925 H         1 UNK         0.1106 
    107 H107       23.9594  -35.3857  -39.3110 H         1 UNK         0.0828 
    108 H108       24.3086  -35.8787  -37.6532 H         1 UNK         0.0828 
    109 H109       22.7605  -36.2720  -38.3800 H         1 UNK         0.0828 
    110 H110       23.0064  -32.4574  -39.6643 H         1 UNK         0.2931 
    111 H111       20.3244  -32.8917  -40.7776 H         1 UNK         0.0412 
    112 H112       20.6821  -29.3576  -38.6252 H         1 UNK         0.3472 
    113 H113       22.1427  -30.1264  -39.2143 H         1 UNK         0.3472 
    114 H114       22.0432  -32.6222  -42.4237 H         1 UNK         0.0970 
    115 H115       22.7161  -31.2375  -41.6353 H         1 UNK         0.0970 
    116 H116       19.5382  -32.4964  -43.6087 H         1 UNK         0.0612 
    117 H117       20.9166  -32.2459  -44.6627 H         1 UNK         0.0612 
@<TRIPOS>BOND
     1    1    2 1    
     2    1   62 1    
     3    1   63 1    
     4    1   64 1    
     5    2    3 2    
     6    2    4 am   BACKBONE|DICT|INTERRES
     7    4    5 1    
     8    4   65 1    
     9    5    6 1    
    10    5   25 1    
    11    5   66 1    
    12    6    7 1    
    13    6   67 1    
    14    6   68 1    
    15    7    8 1    
    16    8    9 1    
    17    8   69 1    
    18    8   70 1    
    19    9   10 ar   
    20    9   14 ar   
    21   10   11 ar   
    22   10   71 1    
    23   11   12 ar   
    24   11   61 1    
    25   12   13 ar   
    26   12   72 1    
    27   13   14 ar   
    28   13   15 1    
    29   14   73 1    
    30   15   16 1    
    31   15   74 1    
    32   15   75 1    
    33   16   17 1    
    34   17   18 1    
    35   17   76 1    
    36   17   77 1    
    37   18   19 1    
    38   18   27 1    
    39   18   78 1    
    40   19   20 am   BACKBONE|DICT|INTERRES
    41   19   79 1    
    42   20   21 2    
    43   20   22 1    
    44   22   23 1    
    45   22   24 1    
    46   22   80 1    
    47   23   81 1    
    48   23   82 1    
    49   23   83 1    
    50   24   25 am   BACKBONE|DICT|INTERRES
    51   24   84 1    
    52   25   26 2    
    53   27   28 2    
    54   27   29 am   BACKBONE|DICT|INTERRES
    55   29   30 1    
    56   29   85 1    
    57   30   31 1    
    58   30   32 1    
    59   30   86 1    
    60   31   87 1    
    61   31   88 1    
    62   31   89 1    
    63   32   33 2    
    64   32   34 am   BACKBONE|DICT|INTERRES
    65   34   35 1    
    66   34   90 1    
    67   35   36 1    
    68   35   37 1    
    69   35   91 1    
    70   36   92 1    
    71   36   93 1    
    72   36   94 1    
    73   37   38 2    
    74   37   39 am   BACKBONE|DICT|INTERRES
    75   39   40 1    
    76   39   95 1    
    77   40   41 1    
    78   40   42 1    
    79   40   96 1    
    80   41   97 1    
    81   41   98 1    
    82   41   99 1    
    83   42   43 2    
    84   42   44 am   BACKBONE|DICT|INTERRES
    85   44   45 1    
    86   44  100 1    
    87   45   46 1    
    88   45   47 1    
    89   45  101 1    
    90   46  102 1    
    91   46  103 1    
    92   46  104 1    
    93   47   48 2    
    94   47   49 am   BACKBONE|DICT|INTERRES
    95   49   50 1    
    96   49  105 1    
    97   50   51 1    
    98   50   52 1    
    99   50  106 1    
   100   51  107 1    
   101   51  108 1    
   102   51  109 1    
   103   52   53 2    
   104   52   54 am   BACKBONE|DICT|INTERRES
   105   54   55 1    
   106   54  110 1    
   107   55   56 1    
   108   55   59 1    
   109   55  111 1    
   110   56   57 am   BACKBONE|DICT|INTERRES
   111   56   58 2    
   112   57  112 1    
   113   57  113 1    
   114   59   60 1    
   115   59  114 1    
   116   59  115 1    
   117   60   61 1    
   118   61  116 1    
   119   61  117 1    
@<TRIPOS>SUBSTRUCTURE
     1 UNK         1 GROUP             0       ****    0 ROOT    
