@<TRIPOS>MOLECULE
3R8
117   119    1
SMALL
USER_CHARGES


@<TRIPOS>ATOM
      1 CA         22.5375  -28.3853  -45.9140 C.3       0 UNK        -0.2013 
      2 C          21.0939  -27.9846  -45.6547 C.2       0 UNK         0.4866 
      3 O          20.6739  -27.9196  -44.5006 O.2       0 UNK        -0.5176 
      4 N          20.3324  -27.6784  -46.7152 N.am      1 UNK        -0.4884 
      5 CA         18.8913  -27.3717  -46.6776 C.3       1 UNK         0.0853 
      6 C6         18.2344  -27.6172  -48.0634 C.3       10 UNK        -0.0849 
      7 S7         16.4429  -27.9791  -48.0036 S.3       10 UNK        -0.2776 
      8 C8         16.3940  -29.7577  -47.5924 C.3       10 UNK         0.0316 
      9 C9         16.7790  -30.0406  -46.1440 C.ar      10 UNK        -0.0863 
     10 C10        17.8156  -30.9323  -45.8518 C.ar      10 UNK        -0.1009 
     11 C11        18.1719  -31.2007  -44.5261 C.ar      10 UNK        -0.0712 
     12 C12        17.4978  -30.5521  -43.4856 C.ar      10 UNK        -0.0894 
     13 C13        16.4654  -29.6514  -43.7634 C.ar      10 UNK        -0.0745 
     14 C14        16.1008  -29.4139  -45.0927 C.ar      10 UNK        -0.0972 
     15 C15        15.7154  -28.9547  -42.6362 C.3       10 UNK         0.0209 
     16 S16        16.0675  -27.1676  -42.5970 S.3       10 UNK        -0.2568 
     17 C17        17.3065  -27.0064  -41.2638 C.3       10 UNK        -0.0983 
     18 CA         18.7819  -27.0630  -41.7468 C.3       3 UNK         0.0876 
     19 N          19.1015  -26.2148  -42.9029 N.am      3 UNK        -0.4424 
     20 C          18.9077  -24.8966  -43.0770 C.2       2 UNK         0.4918 
     21 O          18.4455  -24.1548  -42.2093 O.2       2 UNK        -0.4875 
     22 CA         19.3336  -24.2899  -44.4334 C.3       2 UNK         0.0481 
     23 CB         20.6352  -23.4885  -44.2734 C.3       2 UNK        -0.1831 
     24 N          19.5231  -25.3105  -45.4684 N.am      2 UNK        -0.4498 
     25 C          18.5259  -26.0115  -46.0268 C.2       1 UNK         0.5027 
     26 O          17.3509  -25.6486  -45.9696 O.2       1 UNK        -0.4969 
     27 C          19.7679  -26.8208  -40.5884 C.2       3 UNK         0.5005 
     28 O          20.4247  -27.7585  -40.1323 O.2       3 UNK        -0.5279 
     29 N          19.9089  -25.5496  -40.1857 N.am      4 UNK        -0.4463 
     30 CA         20.8444  -25.0453  -39.1740 C.3       4 UNK         0.0283 
     31 CB         20.5221  -23.5684  -38.8952 C.3       4 UNK        -0.1875 
     32 C          22.3313  -25.2123  -39.5453 C.2       4 UNK         0.4949 
     33 O          23.1871  -25.0689  -38.6721 O.2       4 UNK        -0.5039 
     34 N          22.6135  -25.5327  -40.8171 N.am      5 UNK        -0.4663 
     35 CA         23.9306  -25.9262  -41.3237 C.3       5 UNK         0.0242 
     36 CB         23.8603  -26.0501  -42.8551 C.3       5 UNK        -0.1982 
     37 C          24.4581  -27.2357  -40.7046 C.2       5 UNK         0.5017 
     38 O          25.6758  -27.4065  -40.6324 O.2       5 UNK        -0.5012 
     39 N          23.5419  -28.1109  -40.2557 N.am      6 UNK        -0.4439 
     40 CA         23.7933  -29.3892  -39.5848 C.3       6 UNK         0.0297 
     41 CB         24.3484  -29.1480  -38.1617 C.3       6 UNK        -0.2006 
     42 C          24.6372  -30.3471  -40.4512 C.2       6 UNK         0.4892 
     43 O          24.2670  -30.5849  -41.6030 O.2       6 UNK        -0.5089 
     44 N          25.7298  -30.8886  -39.8889 N.am      7 UNK        -0.4243 
     45 CA         26.6339  -31.8840  -40.4761 C.3       7 UNK         0.0196 
     46 CB         27.4024  -31.3004  -41.6851 C.3       7 UNK        -0.2007 
     47 C          25.8803  -33.1901  -40.7801 C.2       7 UNK         0.5020 
     48 O          25.6399  -33.9706  -39.8583 O.2       7 UNK        -0.5147 
     49 N          25.5024  -33.3966  -42.0476 N.am      8 UNK        -0.4734 
     50 CA         24.6465  -34.5023  -42.4836 C.3       8 UNK         0.0238 
     51 CB         24.7552  -34.6528  -44.0097 C.3       8 UNK        -0.1912 
     52 C          23.1749  -34.3224  -42.0648 C.2       8 UNK         0.5038 
     53 O          22.4771  -35.3235  -41.8961 O.2       8 UNK        -0.5046 
     54 N          22.7305  -33.0680  -41.9179 N.am      9 UNK        -0.4200 
     55 CA         21.3766  -32.7018  -41.4841 C.3       9 UNK         0.0839 
     56 C          21.2530  -32.6699  -39.9384 C.2       9 UNK         0.5513 
     57 N          20.0426  -32.8121  -39.4165 N.am      9 UNK        -0.7519 
     58 O          22.2258  -32.4922  -39.2086 O.2       9 UNK        -0.4960 
     59 C59        20.9167  -31.3621  -42.1190 C.3       10 UNK        -0.0876 
     60 S60        20.8777  -31.4536  -43.9413 S.3       10 UNK        -0.2414 
     61 C61        19.2556  -32.2260  -44.2274 C.3       10 UNK         0.0169 
     62 H62        22.7250  -28.5682  -46.9700 H         1 UNK         0.0903 
     63 H63        23.2136  -27.6021  -45.5776 H         1 UNK         0.0903 
     64 H64        22.7749  -29.2959  -45.3672 H         1 UNK         0.0903 
     65 H65        20.7459  -27.7073  -47.6373 H         1 UNK         0.3096 
     66 H66        18.4738  -28.0988  -45.9828 H         1 UNK         0.1121 
     67 H67        18.3955  -26.7583  -48.7177 H         1 UNK         0.0849 
     68 H68        18.7144  -28.4606  -48.5632 H         1 UNK         0.0849 
     69 H69        15.3809  -30.1264  -47.7587 H         1 UNK         0.0865 
     70 H70        17.0345  -30.3052  -48.2859 H         1 UNK         0.0865 
     71 H71        18.3413  -31.4289  -46.6563 H         1 UNK         0.1346 
     72 H72        17.7646  -30.7592  -42.4593 H         1 UNK         0.1412 
     73 H73        15.2992  -28.7203  -45.3100 H         1 UNK         0.1426 
     74 H74        15.9403  -29.4104  -41.6711 H         1 UNK         0.0716 
     75 H75        14.6443  -29.0923  -42.7909 H         1 UNK         0.0716 
     76 H76        17.1257  -27.7758  -40.5111 H         1 UNK         0.0695 
     77 H77        17.1075  -26.0567  -40.7643 H         1 UNK         0.0695 
     78 H78        18.9636  -28.0821  -42.0940 H         1 UNK         0.0983 
     79 H79        19.5688  -26.7276  -43.6485 H         1 UNK         0.3095 
     80 H80        18.5458  -23.6054  -44.7544 H         1 UNK         0.0454 
     81 H81        20.5192  -22.7002  -43.5280 H         1 UNK         0.0851 
     82 H82        20.9226  -23.0071  -45.2083 H         1 UNK         0.0851 
     83 H83        21.4629  -24.1206  -43.9521 H         1 UNK         0.0851 
     84 H84        20.4574  -25.6788  -45.5764 H         1 UNK         0.2976 
     85 H85        19.3418  -24.8565  -40.6691 H         1 UNK         0.3116 
     86 H86        20.6773  -25.6139  -38.2571 H         1 UNK         0.0646 
     87 H87        20.6520  -22.9524  -39.7860 H         1 UNK         0.0847 
     88 H88        19.4964  -23.4440  -38.5475 H         1 UNK         0.0847 
     89 H89        21.1753  -23.1636  -38.1208 H         1 UNK         0.0847 
     90 H90        21.8393  -25.6149  -41.4583 H         1 UNK         0.3040 
     91 H91        24.6404  -25.1357  -41.0689 H         1 UNK         0.1015 
     92 H92        24.8216  -26.3624  -43.2660 H         1 UNK         0.0786 
     93 H93        23.6079  -25.0972  -43.3206 H         1 UNK         0.0786 
     94 H94        23.1182  -26.7879  -43.1653 H         1 UNK         0.0786 
     95 H95        22.5625  -27.8758  -40.3768 H         1 UNK         0.3172 
     96 H96        22.8165  -29.8617  -39.4767 H         1 UNK         0.0595 
     97 H97        25.3398  -28.6925  -38.1766 H         1 UNK         0.0839 
     98 H98        24.4113  -30.0798  -37.5974 H         1 UNK         0.0839 
     99 H99        23.6938  -28.4827  -37.5977 H         1 UNK         0.0839 
    100 H100       25.9267  -30.6405  -38.9298 H         1 UNK         0.2998 
    101 H101       27.3712  -32.1276  -39.7089 H         1 UNK         0.0822 
    102 H102       28.0750  -32.0435  -42.1162 H         1 UNK         0.0787 
    103 H103       28.0162  -30.4525  -41.3807 H         1 UNK         0.0787 
    104 H104       26.7412  -30.9523  -42.4792 H         1 UNK         0.0787 
    105 H105       25.7188  -32.6841  -42.7307 H         1 UNK         0.3055 
    106 H106       25.0082  -35.4233  -42.0202 H         1 UNK         0.1106 
    107 H107       25.7834  -34.8438  -44.3184 H         1 UNK         0.0828 
    108 H108       24.1513  -35.4901  -44.3620 H         1 UNK         0.0828 
    109 H109       24.4068  -33.7595  -44.5301 H         1 UNK         0.0828 
    110 H110       23.3836  -32.2960  -42.0084 H         1 UNK         0.2931 
    111 H111       20.6934  -33.4785  -41.8329 H         1 UNK         0.0412 
    112 H112       19.9382  -32.7846  -38.4142 H         1 UNK         0.3472 
    113 H113       19.2340  -32.9647  -39.9987 H         1 UNK         0.3472 
    114 H114       19.9303  -31.0730  -41.7561 H         1 UNK         0.0970 
    115 H115       21.5859  -30.5493  -41.8321 H         1 UNK         0.0970 
    116 H116       18.9663  -32.8354  -43.3702 H         1 UNK         0.0612 
    117 H117       19.3519  -32.9195  -45.0643 H         1 UNK         0.0612 
@<TRIPOS>BOND
     1    1    2 1    
     2    1   62 1    
     3    1   63 1    
     4    1   64 1    
     5    2    3 2    
     6    2    4 am   BACKBONE|DICT|INTERRES
     7    4    5 1    
     8    4   65 1    
     9    5    6 1    
    10    5   25 1    
    11    5   66 1    
    12    6    7 1    
    13    6   67 1    
    14    6   68 1    
    15    7    8 1    
    16    8    9 1    
    17    8   69 1    
    18    8   70 1    
    19    9   10 ar   
    20    9   14 ar   
    21   10   11 ar   
    22   10   71 1    
    23   11   12 ar   
    24   11   61 1    
    25   12   13 ar   
    26   12   72 1    
    27   13   14 ar   
    28   13   15 1    
    29   14   73 1    
    30   15   16 1    
    31   15   74 1    
    32   15   75 1    
    33   16   17 1    
    34   17   18 1    
    35   17   76 1    
    36   17   77 1    
    37   18   19 1    
    38   18   27 1    
    39   18   78 1    
    40   19   20 am   BACKBONE|DICT|INTERRES
    41   19   79 1    
    42   20   21 2    
    43   20   22 1    
    44   22   23 1    
    45   22   24 1    
    46   22   80 1    
    47   23   81 1    
    48   23   82 1    
    49   23   83 1    
    50   24   25 am   BACKBONE|DICT|INTERRES
    51   24   84 1    
    52   25   26 2    
    53   27   28 2    
    54   27   29 am   BACKBONE|DICT|INTERRES
    55   29   30 1    
    56   29   85 1    
    57   30   31 1    
    58   30   32 1    
    59   30   86 1    
    60   31   87 1    
    61   31   88 1    
    62   31   89 1    
    63   32   33 2    
    64   32   34 am   BACKBONE|DICT|INTERRES
    65   34   35 1    
    66   34   90 1    
    67   35   36 1    
    68   35   37 1    
    69   35   91 1    
    70   36   92 1    
    71   36   93 1    
    72   36   94 1    
    73   37   38 2    
    74   37   39 am   BACKBONE|DICT|INTERRES
    75   39   40 1    
    76   39   95 1    
    77   40   41 1    
    78   40   42 1    
    79   40   96 1    
    80   41   97 1    
    81   41   98 1    
    82   41   99 1    
    83   42   43 2    
    84   42   44 am   BACKBONE|DICT|INTERRES
    85   44   45 1    
    86   44  100 1    
    87   45   46 1    
    88   45   47 1    
    89   45  101 1    
    90   46  102 1    
    91   46  103 1    
    92   46  104 1    
    93   47   48 2    
    94   47   49 am   BACKBONE|DICT|INTERRES
    95   49   50 1    
    96   49  105 1    
    97   50   51 1    
    98   50   52 1    
    99   50  106 1    
   100   51  107 1    
   101   51  108 1    
   102   51  109 1    
   103   52   53 2    
   104   52   54 am   BACKBONE|DICT|INTERRES
   105   54   55 1    
   106   54  110 1    
   107   55   56 1    
   108   55   59 1    
   109   55  111 1    
   110   56   57 am   BACKBONE|DICT|INTERRES
   111   56   58 2    
   112   57  112 1    
   113   57  113 1    
   114   59   60 1    
   115   59  114 1    
   116   59  115 1    
   117   60   61 1    
   118   61  116 1    
   119   61  117 1    
@<TRIPOS>SUBSTRUCTURE
     1 UNK         1 GROUP             0       ****    0 ROOT    
