@<TRIPOS>MOLECULE
3R8
117   119    1
SMALL
USER_CHARGES


@<TRIPOS>ATOM
      1 CA         14.3995  -27.0667  -38.8648 C.3       0 UNK        -0.2013 
      2 C          15.1897  -26.5740  -40.0679 C.2       0 UNK         0.4866 
      3 O          15.7357  -25.4707  -40.0315 O.2       0 UNK        -0.5176 
      4 N          15.2482  -27.3790  -41.1364 N.am      1 UNK        -0.4884 
      5 CA         16.0350  -27.1059  -42.3433 C.3       1 UNK         0.0853 
      6 C6         15.5371  -27.9680  -43.5282 C.3       10 UNK        -0.0849 
      7 S7         16.0705  -27.3061  -45.1442 S.3       10 UNK        -0.2776 
      8 C8         16.3522  -28.8278  -46.1077 C.3       10 UNK         0.0316 
      9 C9         17.4600  -29.6926  -45.5214 C.ar      10 UNK        -0.0863 
     10 C10        17.1605  -30.9402  -44.9662 C.ar      10 UNK        -0.1009 
     11 C11        18.1673  -31.7349  -44.4118 C.ar      10 UNK        -0.0712 
     12 C12        19.4870  -31.2651  -44.4248 C.ar      10 UNK        -0.0894 
     13 C13        19.8101  -30.0332  -44.9997 C.ar      10 UNK        -0.0745 
     14 C14        18.7839  -29.2452  -45.5354 C.ar      10 UNK        -0.0972 
     15 C15        21.2649  -29.5682  -44.9734 C.3       10 UNK         0.0209 
     16 S16        21.7306  -28.4633  -46.3543 S.3       10 UNK        -0.2568 
     17 C17        23.1540  -27.5853  -45.6281 C.3       10 UNK        -0.0983 
     18 CA         22.7521  -26.2391  -44.9623 C.3       3 UNK         0.0876 
     19 N          21.8227  -26.4611  -43.8603 N.am      3 UNK        -0.4424 
     20 C          20.5481  -26.0763  -43.7960 C.2       2 UNK         0.4918 
     21 O          19.9545  -25.4410  -44.6707 O.2       2 UNK        -0.4875 
     22 CA         19.8282  -26.4761  -42.5083 C.3       2 UNK         0.0481 
     23 CB         20.1883  -25.5224  -41.3536 C.3       2 UNK        -0.1831 
     24 N          18.3838  -26.4855  -42.7034 N.am      2 UNK        -0.4498 
     25 C          17.5416  -27.3006  -42.0597 C.2       1 UNK         0.5027 
     26 O          17.9115  -28.1717  -41.2651 O.2       1 UNK        -0.4969 
     27 C          23.9897  -25.5215  -44.3898 C.2       3 UNK         0.5005 
     28 O          24.1061  -25.3535  -43.1717 O.2       3 UNK        -0.5279 
     29 N          24.9263  -25.1406  -45.2690 N.am      4 UNK        -0.4463 
     30 CA         26.2290  -24.5860  -44.8804 C.3       4 UNK         0.0283 
     31 CB         26.9405  -24.0302  -46.1247 C.3       4 UNK        -0.1875 
     32 C          27.1301  -25.6063  -44.1558 C.2       4 UNK         0.4949 
     33 O          27.9621  -25.2052  -43.3419 O.2       4 UNK        -0.5039 
     34 N          26.9539  -26.8982  -44.4687 N.am      5 UNK        -0.4663 
     35 CA         27.7116  -28.0053  -43.8852 C.3       5 UNK         0.0242 
     36 CB         27.6174  -29.2286  -44.8124 C.3       5 UNK        -0.1982 
     37 C          27.2571  -28.3748  -42.4631 C.2       5 UNK         0.5017 
     38 O          28.1106  -28.6642  -41.6235 O.2       5 UNK        -0.5012 
     39 N          25.9394  -28.3829  -42.2194 N.am      6 UNK        -0.4439 
     40 CA         25.3092  -28.8185  -40.9727 C.3       6 UNK         0.0297 
     41 CB         25.4799  -30.3421  -40.7859 C.3       6 UNK        -0.2006 
     42 C          23.8175  -28.4629  -40.9910 C.2       6 UNK         0.4892 
     43 O          23.2542  -28.2196  -42.0622 O.2       6 UNK        -0.5089 
     44 N          23.2030  -28.4807  -39.8029 N.am      7 UNK        -0.4243 
     45 CA         21.7573  -28.3848  -39.6164 C.3       7 UNK         0.0196 
     46 CB         21.4566  -27.5483  -38.3622 C.3       7 UNK        -0.2007 
     47 C          21.1595  -29.7919  -39.4879 C.2       7 UNK         0.5020 
     48 O          21.7599  -30.6388  -38.8210 O.2       7 UNK        -0.5147 
     49 N          19.9774  -29.9931  -40.0886 N.am      8 UNK        -0.4734 
     50 CA         19.1900  -31.2337  -40.1174 C.3       8 UNK         0.0238 
     51 CB         18.6740  -31.5658  -38.6984 C.3       8 UNK        -0.1912 
     52 C          19.9060  -32.4300  -40.7868 C.2       8 UNK         0.5038 
     53 O          20.9699  -32.2704  -41.3896 O.2       8 UNK        -0.5046 
     54 N          19.2697  -33.6043  -40.6984 N.am      9 UNK        -0.4200 
     55 CA         19.7279  -34.8899  -41.2543 C.3       9 UNK         0.0839 
     56 C          19.8762  -35.9911  -40.1629 C.2       9 UNK         0.5513 
     57 N          19.7851  -35.6742  -38.8760 N.am      9 UNK        -0.7519 
     58 O          20.0975  -37.1561  -40.4835 O.2       9 UNK        -0.4960 
     59 C59        18.8228  -35.3512  -42.4343 C.3       10 UNK        -0.0876 
     60 S60        19.0787  -34.3525  -43.9387 S.3       10 UNK        -0.2414 
     61 C61        17.7962  -33.0660  -43.7603 C.3       10 UNK         0.0169 
     62 H62        15.0504  -27.1398  -37.9939 H         1 UNK         0.0903 
     63 H63        13.9569  -28.0471  -39.0402 H         1 UNK         0.0903 
     64 H64        13.5956  -26.3688  -38.6321 H         1 UNK         0.0903 
     65 H65        14.8109  -28.2885  -41.0943 H         1 UNK         0.3096 
     66 H66        15.8743  -26.0549  -42.5965 H         1 UNK         0.1121 
     67 H67        14.4460  -27.9862  -43.5436 H         1 UNK         0.0849 
     68 H68        15.8490  -29.0059  -43.4052 H         1 UNK         0.0849 
     69 H69        15.4162  -29.3845  -46.1762 H         1 UNK         0.0865 
     70 H70        16.6178  -28.5540  -47.1298 H         1 UNK         0.0865 
     71 H71        16.1361  -31.2874  -44.9497 H         1 UNK         0.1346 
     72 H72        20.2730  -31.8571  -43.9767 H         1 UNK         0.1412 
     73 H73        19.0045  -28.2729  -45.9541 H         1 UNK         0.1426 
     74 H74        21.9342  -30.4297  -44.9951 H         1 UNK         0.0716 
     75 H75        21.4380  -29.0768  -44.0171 H         1 UNK         0.0716 
     76 H76        23.6537  -28.2438  -44.9144 H         1 UNK         0.0695 
     77 H77        23.8671  -27.4187  -46.4370 H         1 UNK         0.0695 
     78 H78        22.3026  -25.5808  -45.7091 H         1 UNK         0.0983 
     79 H79        22.2455  -26.9369  -43.0659 H         1 UNK         0.3095 
     80 H80        20.1536  -27.4905  -42.2748 H         1 UNK         0.0454 
     81 H81        19.8649  -24.5021  -41.5625 H         1 UNK         0.0851 
     82 H82        19.7217  -25.8341  -40.4191 H         1 UNK         0.0851 
     83 H83        21.2658  -25.4932  -41.1843 H         1 UNK         0.0851 
     84 H84        18.0405  -25.8530  -43.4156 H         1 UNK         0.2976 
     85 H85        24.7662  -25.2822  -46.2568 H         1 UNK         0.3116 
     86 H86        26.0523  -23.7568  -44.1917 H         1 UNK         0.0646 
     87 H87        27.9014  -23.5876  -45.8580 H         1 UNK         0.0847 
     88 H88        26.3504  -23.2500  -46.6057 H         1 UNK         0.0847 
     89 H89        27.1359  -24.8092  -46.8627 H         1 UNK         0.0847 
     90 H90        26.2625  -27.1317  -45.1651 H         1 UNK         0.3040 
     91 H91        28.7618  -27.7089  -43.8257 H         1 UNK         0.1015 
     92 H92        28.0196  -29.0086  -45.8015 H         1 UNK         0.0786 
     93 H93        26.5879  -29.5678  -44.9355 H         1 UNK         0.0786 
     94 H94        28.1900  -30.0662  -44.4113 H         1 UNK         0.0786 
     95 H95        25.2869  -28.0758  -42.9293 H         1 UNK         0.3172 
     96 H96        25.7788  -28.2891  -40.1411 H         1 UNK         0.0595 
     97 H97        24.9738  -30.6920  -39.8851 H         1 UNK         0.0839 
     98 H98        26.5276  -30.6253  -40.6875 H         1 UNK         0.0839 
     99 H99        25.0615  -30.8964  -41.6270 H         1 UNK         0.0839 
    100 H100       23.7323  -28.7559  -38.9876 H         1 UNK         0.2998 
    101 H101       21.3105  -27.8889  -40.4731 H         1 UNK         0.0822 
    102 H102       21.8730  -28.0032  -37.4625 H         1 UNK         0.0787 
    103 H103       21.8660  -26.5418  -38.4506 H         1 UNK         0.0787 
    104 H104       20.3809  -27.4487  -38.2102 H         1 UNK         0.0787 
    105 H105       19.5437  -29.2215  -40.5870 H         1 UNK         0.3055 
    106 H106       18.3251  -31.0124  -40.7458 H         1 UNK         0.1106 
    107 H107       19.4764  -31.9130  -38.0464 H         1 UNK         0.0828 
    108 H108       18.2228  -30.6908  -38.2300 H         1 UNK         0.0828 
    109 H109       17.9066  -32.3398  -38.7165 H         1 UNK         0.0828 
    110 H110       18.4015  -33.6473  -40.1853 H         1 UNK         0.2931 
    111 H111       20.7408  -34.7706  -41.6429 H         1 UNK         0.0412 
    112 H112       19.6582  -34.7187  -38.5848 H         1 UNK         0.3472 
    113 H113       19.8904  -36.4003  -38.1843 H         1 UNK         0.3472 
    114 H114       17.7694  -35.3428  -42.1496 H         1 UNK         0.0970 
    115 H115       19.0456  -36.3822  -42.7154 H         1 UNK         0.0970 
    116 H116       17.5924  -32.8792  -42.7069 H         1 UNK         0.0612 
    117 H117       16.8701  -33.4534  -44.1877 H         1 UNK         0.0612 
@<TRIPOS>BOND
     1    1    2 1    
     2    1   62 1    
     3    1   63 1    
     4    1   64 1    
     5    2    3 2    
     6    2    4 am   BACKBONE|DICT|INTERRES
     7    4    5 1    
     8    4   65 1    
     9    5    6 1    
    10    5   25 1    
    11    5   66 1    
    12    6    7 1    
    13    6   67 1    
    14    6   68 1    
    15    7    8 1    
    16    8    9 1    
    17    8   69 1    
    18    8   70 1    
    19    9   10 ar   
    20    9   14 ar   
    21   10   11 ar   
    22   10   71 1    
    23   11   12 ar   
    24   11   61 1    
    25   12   13 ar   
    26   12   72 1    
    27   13   14 ar   
    28   13   15 1    
    29   14   73 1    
    30   15   16 1    
    31   15   74 1    
    32   15   75 1    
    33   16   17 1    
    34   17   18 1    
    35   17   76 1    
    36   17   77 1    
    37   18   19 1    
    38   18   27 1    
    39   18   78 1    
    40   19   20 am   BACKBONE|DICT|INTERRES
    41   19   79 1    
    42   20   21 2    
    43   20   22 1    
    44   22   23 1    
    45   22   24 1    
    46   22   80 1    
    47   23   81 1    
    48   23   82 1    
    49   23   83 1    
    50   24   25 am   BACKBONE|DICT|INTERRES
    51   24   84 1    
    52   25   26 2    
    53   27   28 2    
    54   27   29 am   BACKBONE|DICT|INTERRES
    55   29   30 1    
    56   29   85 1    
    57   30   31 1    
    58   30   32 1    
    59   30   86 1    
    60   31   87 1    
    61   31   88 1    
    62   31   89 1    
    63   32   33 2    
    64   32   34 am   BACKBONE|DICT|INTERRES
    65   34   35 1    
    66   34   90 1    
    67   35   36 1    
    68   35   37 1    
    69   35   91 1    
    70   36   92 1    
    71   36   93 1    
    72   36   94 1    
    73   37   38 2    
    74   37   39 am   BACKBONE|DICT|INTERRES
    75   39   40 1    
    76   39   95 1    
    77   40   41 1    
    78   40   42 1    
    79   40   96 1    
    80   41   97 1    
    81   41   98 1    
    82   41   99 1    
    83   42   43 2    
    84   42   44 am   BACKBONE|DICT|INTERRES
    85   44   45 1    
    86   44  100 1    
    87   45   46 1    
    88   45   47 1    
    89   45  101 1    
    90   46  102 1    
    91   46  103 1    
    92   46  104 1    
    93   47   48 2    
    94   47   49 am   BACKBONE|DICT|INTERRES
    95   49   50 1    
    96   49  105 1    
    97   50   51 1    
    98   50   52 1    
    99   50  106 1    
   100   51  107 1    
   101   51  108 1    
   102   51  109 1    
   103   52   53 2    
   104   52   54 am   BACKBONE|DICT|INTERRES
   105   54   55 1    
   106   54  110 1    
   107   55   56 1    
   108   55   59 1    
   109   55  111 1    
   110   56   57 am   BACKBONE|DICT|INTERRES
   111   56   58 2    
   112   57  112 1    
   113   57  113 1    
   114   59   60 1    
   115   59  114 1    
   116   59  115 1    
   117   60   61 1    
   118   61  116 1    
   119   61  117 1    
@<TRIPOS>SUBSTRUCTURE
     1 UNK         1 GROUP             0       ****    0 ROOT    
