@<TRIPOS>MOLECULE
3R8
117   119    1
SMALL
USER_CHARGES


@<TRIPOS>ATOM
      1 CA         24.2048  -29.7857  -46.4791 C.3       0 UNK        -0.2013 
      2 C          22.7442  -29.7704  -46.0539 C.2       0 UNK         0.4866 
      3 O          21.9955  -30.6747  -46.4210 O.2       0 UNK        -0.5176 
      4 N          22.3441  -28.7426  -45.2978 N.am      1 UNK        -0.4884 
      5 CA         21.0020  -28.5543  -44.7539 C.3       1 UNK         0.0853 
      6 C6         20.2078  -27.4652  -45.5268 C.3       10 UNK        -0.0849 
      7 S7         19.7259  -28.0017  -47.2024 S.3       10 UNK        -0.2776 
      8 C8         17.9147  -28.1669  -47.0478 C.3       10 UNK         0.0316 
      9 C9         17.4914  -29.0755  -45.8987 C.ar      10 UNK        -0.0863 
     10 C10        18.0003  -30.3724  -45.7927 C.ar      10 UNK        -0.1009 
     11 C11        17.6299  -31.2007  -44.7300 C.ar      10 UNK        -0.0712 
     12 C12        16.7188  -30.7313  -43.7773 C.ar      10 UNK        -0.0894 
     13 C13        16.1746  -29.4462  -43.8910 C.ar      10 UNK        -0.0745 
     14 C14        16.5712  -28.6227  -44.9493 C.ar      10 UNK        -0.0972 
     15 C15        15.1095  -28.9687  -42.9114 C.3       10 UNK         0.0209 
     16 S16        15.8046  -28.3532  -41.3463 S.3       10 UNK        -0.2568 
     17 C17        16.5141  -26.7405  -41.8330 C.3       10 UNK        -0.0983 
     18 CA         17.8166  -26.4281  -41.0581 C.3       3 UNK         0.0876 
     19 N          18.8034  -27.5007  -41.2114 N.am      3 UNK        -0.4424 
     20 C          19.9048  -27.6531  -40.4670 C.2       2 UNK         0.4918 
     21 O          20.2013  -26.9194  -39.5254 O.2       2 UNK        -0.4875 
     22 CA         20.8732  -28.7660  -40.8972 C.3       2 UNK         0.0481 
     23 CB         20.5988  -30.0434  -40.0935 C.3       2 UNK        -0.1831 
     24 N          20.8362  -29.0441  -42.3422 N.am      2 UNK        -0.4498 
     25 C          21.1715  -28.1495  -43.2827 C.2       1 UNK         0.5027 
     26 O          21.5770  -27.0150  -43.0167 O.2       1 UNK        -0.4969 
     27 C          18.3808  -25.0384  -41.4413 C.2       3 UNK         0.5005 
     28 O          17.8226  -24.0276  -41.0131 O.2       3 UNK        -0.5279 
     29 N          19.4858  -25.0080  -42.2038 N.am      4 UNK        -0.4463 
     30 CA         20.2706  -23.8145  -42.5317 C.3       4 UNK         0.0283 
     31 CB         20.5779  -23.8216  -44.0400 C.3       4 UNK        -0.1875 
     32 C          21.5702  -23.7432  -41.7017 C.2       4 UNK         0.4949 
     33 O          22.4524  -22.9536  -42.0393 O.2       4 UNK        -0.5039 
     34 N          21.6728  -24.5656  -40.6446 N.am      5 UNK        -0.4663 
     35 CA         22.8012  -24.7084  -39.7158 C.3       5 UNK         0.0242 
     36 CB         23.0598  -23.3944  -38.9463 C.3       5 UNK        -0.1982 
     37 C          24.0780  -25.2957  -40.3520 C.2       5 UNK         0.5017 
     38 O          25.1713  -25.0513  -39.8373 O.2       5 UNK        -0.5012 
     39 N          23.9270  -26.0732  -41.4337 N.am      6 UNK        -0.4439 
     40 CA         25.0047  -26.8261  -42.0787 C.3       6 UNK         0.0297 
     41 CB         24.9336  -26.6060  -43.6024 C.3       6 UNK        -0.2006 
     42 C          24.9567  -28.3072  -41.6464 C.2       6 UNK         0.4892 
     43 O          24.5531  -28.5995  -40.5184 O.2       6 UNK        -0.5089 
     44 N          25.4258  -29.2106  -42.5181 N.am      7 UNK        -0.4243 
     45 CA         25.5733  -30.6448  -42.2520 C.3       7 UNK         0.0196 
     46 CB         26.3725  -31.2854  -43.3986 C.3       7 UNK        -0.2007 
     47 C          24.2387  -31.3873  -42.0542 C.2       7 UNK         0.5020 
     48 O          23.2309  -31.0341  -42.6669 O.2       7 UNK        -0.5147 
     49 N          24.2857  -32.4361  -41.2248 N.am      8 UNK        -0.4734 
     50 CA         23.1883  -33.3674  -40.9533 C.3       8 UNK         0.0238 
     51 CB         23.5678  -34.1710  -39.6959 C.3       8 UNK        -0.1912 
     52 C          22.9457  -34.3134  -42.1514 C.2       8 UNK         0.5038 
     53 O          23.9342  -34.7749  -42.7245 O.2       8 UNK        -0.5046 
     54 N          21.7072  -34.6609  -42.5406 N.am      9 UNK        -0.4200 
     55 CA         20.3802  -34.2457  -42.0449 C.3       9 UNK         0.0839 
     56 C          20.1294  -34.6133  -40.5540 C.2       9 UNK         0.5513 
     57 N          19.5284  -33.7456  -39.7507 N.am      9 UNK        -0.7519 
     58 O          20.4447  -35.7214  -40.1288 O.2       9 UNK        -0.4960 
     59 C59        19.9878  -32.7985  -42.4683 C.3       10 UNK        -0.0876 
     60 S60        19.9729  -32.6136  -44.2800 S.3       10 UNK        -0.2414 
     61 C61        18.1911  -32.6132  -44.6551 C.3       10 UNK         0.0169 
     62 H62        24.8128  -29.1113  -45.8771 H         1 UNK         0.0903 
     63 H63        24.2926  -29.4869  -47.5233 H         1 UNK         0.0903 
     64 H64        24.6136  -30.7907  -46.3797 H         1 UNK         0.0903 
     65 H65        23.0075  -28.0340  -45.0232 H         1 UNK         0.3096 
     66 H66        20.4465  -29.4938  -44.7856 H         1 UNK         0.1121 
     67 H67        20.8046  -26.5576  -45.6287 H         1 UNK         0.0849 
     68 H68        19.3122  -27.1698  -44.9768 H         1 UNK         0.0849 
     69 H69        17.4843  -27.1707  -46.9339 H         1 UNK         0.0865 
     70 H70        17.5158  -28.5680  -47.9804 H         1 UNK         0.0865 
     71 H71        18.7037  -30.7341  -46.5313 H         1 UNK         0.1346 
     72 H72        16.4101  -31.3729  -42.9632 H         1 UNK         0.1412 
     73 H73        16.1474  -27.6322  -45.0439 H         1 UNK         0.1426 
     74 H74        14.4915  -28.1901  -43.3618 H         1 UNK         0.0716 
     75 H75        14.4329  -29.7949  -42.6880 H         1 UNK         0.0716 
     76 H76        15.7617  -25.9725  -41.6435 H         1 UNK         0.0695 
     77 H77        16.7021  -26.7258  -42.9065 H         1 UNK         0.0695 
     78 H78        17.5650  -26.3723  -39.9963 H         1 UNK         0.0983 
     79 H79        18.6154  -28.1724  -41.9409 H         1 UNK         0.3095 
     80 H80        21.8801  -28.4255  -40.6514 H         1 UNK         0.0454 
     81 H81        21.3941  -30.7706  -40.2405 H         1 UNK         0.0851 
     82 H82        19.6468  -30.4992  -40.3653 H         1 UNK         0.0851 
     83 H83        20.5640  -29.8317  -39.0236 H         1 UNK         0.0851 
     84 H84        20.5805  -29.9778  -42.6290 H         1 UNK         0.2976 
     85 H85        19.9083  -25.8852  -42.4848 H         1 UNK         0.3116 
     86 H86        19.6960  -22.9137  -42.3078 H         1 UNK         0.0646 
     87 H87        19.6715  -23.9419  -44.6334 H         1 UNK         0.0847 
     88 H88        21.0424  -22.8839  -44.3476 H         1 UNK         0.0847 
     89 H89        21.2663  -24.6238  -44.3060 H         1 UNK         0.0847 
     90 H90        20.8941  -25.1840  -40.4484 H         1 UNK         0.3040 
     91 H91        22.4837  -25.4505  -38.9815 H         1 UNK         0.1015 
     92 H92        23.4675  -22.6177  -39.5939 H         1 UNK         0.0786 
     93 H93        23.7750  -23.5483  -38.1373 H         1 UNK         0.0786 
     94 H94        22.1441  -23.0110  -38.4962 H         1 UNK         0.0786 
     95 H95        22.9920  -26.2472  -41.7882 H         1 UNK         0.3172 
     96 H96        25.9732  -26.4460  -41.7483 H         1 UNK         0.0595 
     97 H97        25.7895  -27.0443  -44.1166 H         1 UNK         0.0839 
     98 H98        24.9394  -25.5418  -43.8402 H         1 UNK         0.0839 
     99 H99        24.0289  -27.0279  -44.0306 H         1 UNK         0.0839 
    100 H100       25.7368  -28.8891  -43.4215 H         1 UNK         0.2998 
    101 H101       26.1559  -30.7417  -41.3331 H         1 UNK         0.0822 
    102 H102       27.3510  -30.8186  -43.5140 H         1 UNK         0.0787 
    103 H103       26.5423  -32.3470  -43.2125 H         1 UNK         0.0787 
    104 H104       25.8456  -31.2056  -44.3491 H         1 UNK         0.0787 
    105 H105       25.1750  -32.6750  -40.8105 H         1 UNK         0.3055 
    106 H106       22.2969  -32.7859  -40.7378 H         1 UNK         0.1106 
    107 H107       23.7009  -33.5176  -38.8334 H         1 UNK         0.0828 
    108 H108       22.8006  -34.8960  -39.4298 H         1 UNK         0.0828 
    109 H109       24.4940  -34.7293  -39.8390 H         1 UNK         0.0828 
    110 H110       21.6529  -35.3159  -43.3058 H         1 UNK         0.2931 
    111 H111       19.6862  -34.9027  -42.5711 H         1 UNK         0.0412 
    112 H112       19.2117  -32.8481  -40.0758 H         1 UNK         0.3472 
    113 H113       19.3576  -34.0143  -38.7937 H         1 UNK         0.3472 
    114 H114       19.0050  -32.5219  -42.0842 H         1 UNK         0.0970 
    115 H115       20.6919  -32.0707  -42.0742 H         1 UNK         0.0970 
    116 H116       18.0434  -33.0997  -45.6203 H         1 UNK         0.0612 
    117 H117       17.6501  -33.2191  -43.9267 H         1 UNK         0.0612 
@<TRIPOS>BOND
     1    1    2 1    
     2    1   62 1    
     3    1   63 1    
     4    1   64 1    
     5    2    3 2    
     6    2    4 am   BACKBONE|DICT|INTERRES
     7    4    5 1    
     8    4   65 1    
     9    5    6 1    
    10    5   25 1    
    11    5   66 1    
    12    6    7 1    
    13    6   67 1    
    14    6   68 1    
    15    7    8 1    
    16    8    9 1    
    17    8   69 1    
    18    8   70 1    
    19    9   10 ar   
    20    9   14 ar   
    21   10   11 ar   
    22   10   71 1    
    23   11   12 ar   
    24   11   61 1    
    25   12   13 ar   
    26   12   72 1    
    27   13   14 ar   
    28   13   15 1    
    29   14   73 1    
    30   15   16 1    
    31   15   74 1    
    32   15   75 1    
    33   16   17 1    
    34   17   18 1    
    35   17   76 1    
    36   17   77 1    
    37   18   19 1    
    38   18   27 1    
    39   18   78 1    
    40   19   20 am   BACKBONE|DICT|INTERRES
    41   19   79 1    
    42   20   21 2    
    43   20   22 1    
    44   22   23 1    
    45   22   24 1    
    46   22   80 1    
    47   23   81 1    
    48   23   82 1    
    49   23   83 1    
    50   24   25 am   BACKBONE|DICT|INTERRES
    51   24   84 1    
    52   25   26 2    
    53   27   28 2    
    54   27   29 am   BACKBONE|DICT|INTERRES
    55   29   30 1    
    56   29   85 1    
    57   30   31 1    
    58   30   32 1    
    59   30   86 1    
    60   31   87 1    
    61   31   88 1    
    62   31   89 1    
    63   32   33 2    
    64   32   34 am   BACKBONE|DICT|INTERRES
    65   34   35 1    
    66   34   90 1    
    67   35   36 1    
    68   35   37 1    
    69   35   91 1    
    70   36   92 1    
    71   36   93 1    
    72   36   94 1    
    73   37   38 2    
    74   37   39 am   BACKBONE|DICT|INTERRES
    75   39   40 1    
    76   39   95 1    
    77   40   41 1    
    78   40   42 1    
    79   40   96 1    
    80   41   97 1    
    81   41   98 1    
    82   41   99 1    
    83   42   43 2    
    84   42   44 am   BACKBONE|DICT|INTERRES
    85   44   45 1    
    86   44  100 1    
    87   45   46 1    
    88   45   47 1    
    89   45  101 1    
    90   46  102 1    
    91   46  103 1    
    92   46  104 1    
    93   47   48 2    
    94   47   49 am   BACKBONE|DICT|INTERRES
    95   49   50 1    
    96   49  105 1    
    97   50   51 1    
    98   50   52 1    
    99   50  106 1    
   100   51  107 1    
   101   51  108 1    
   102   51  109 1    
   103   52   53 2    
   104   52   54 am   BACKBONE|DICT|INTERRES
   105   54   55 1    
   106   54  110 1    
   107   55   56 1    
   108   55   59 1    
   109   55  111 1    
   110   56   57 am   BACKBONE|DICT|INTERRES
   111   56   58 2    
   112   57  112 1    
   113   57  113 1    
   114   59   60 1    
   115   59  114 1    
   116   59  115 1    
   117   60   61 1    
   118   61  116 1    
   119   61  117 1    
@<TRIPOS>SUBSTRUCTURE
     1 UNK         1 GROUP             0       ****    0 ROOT    
