@<TRIPOS>MOLECULE
3R8
117   119    1
SMALL
USER_CHARGES


@<TRIPOS>ATOM
      1 CA         17.5890  -21.5935  -43.8106 C.3       0 UNK        -0.2013 
      2 C          17.7631  -22.8000  -44.7211 C.2       0 UNK         0.4866 
      3 O          17.4565  -22.7204  -45.9108 O.2       0 UNK        -0.5176 
      4 N          18.2560  -23.9138  -44.1723 N.am      1 UNK        -0.4884 
      5 CA         18.5542  -25.1571  -44.8804 C.3       1 UNK         0.0853 
      6 C6         17.2803  -25.9858  -45.1972 C.3       10 UNK        -0.0849 
      7 S7         17.5141  -27.0715  -46.6458 S.3       10 UNK        -0.2776 
      8 C8         16.2921  -28.3795  -46.3252 C.3       10 UNK         0.0316 
      9 C9         16.7585  -29.3640  -45.2612 C.ar      10 UNK        -0.0863 
     10 C10        17.6668  -30.3752  -45.5923 C.ar      10 UNK        -0.1009 
     11 C11        18.0397  -31.3346  -44.6451 C.ar      10 UNK        -0.0712 
     12 C12        17.4935  -31.2750  -43.3609 C.ar      10 UNK        -0.0894 
     13 C13        16.6011  -30.2579  -43.0094 C.ar      10 UNK        -0.0745 
     14 C14        16.2380  -29.3037  -43.9643 C.ar      10 UNK        -0.0972 
     15 C15        15.9789  -30.2319  -41.6201 C.3       10 UNK         0.0209 
     16 S16        17.2201  -30.2933  -40.2892 S.3       10 UNK        -0.2568 
     17 C17        17.8533  -28.5866  -40.2658 C.3       10 UNK        -0.0983 
     18 CA         19.3755  -28.5255  -40.5684 C.3       3 UNK         0.0876 
     19 N          19.6465  -28.3566  -42.0029 N.am      3 UNK        -0.4424 
     20 C          20.8620  -28.4657  -42.5575 C.2       2 UNK         0.4918 
     21 O          21.8436  -28.8820  -41.9478 O.2       2 UNK        -0.4875 
     22 CA         21.0576  -27.9709  -44.0050 C.3       2 UNK         0.0481 
     23 CB         21.3051  -29.1415  -44.9662 C.3       2 UNK        -0.1831 
     24 N          19.9934  -27.1175  -44.5470 N.am      2 UNK        -0.4498 
     25 C          19.5970  -25.9361  -44.0576 C.2       1 UNK         0.5027 
     26 O          20.0170  -25.4660  -42.9952 O.2       1 UNK        -0.4969 
     27 C          20.0504  -27.4352  -39.7006 C.2       3 UNK         0.5005 
     28 O          20.3663  -27.7117  -38.5421 O.2       3 UNK        -0.5279 
     29 N          20.2386  -26.2272  -40.2519 N.am      4 UNK        -0.4463 
     30 CA         20.8552  -25.0825  -39.5762 C.3       4 UNK         0.0283 
     31 CB         19.9058  -23.8756  -39.6605 C.3       4 UNK        -0.1875 
     32 C          22.2170  -24.7283  -40.1905 C.2       4 UNK         0.4949 
     33 O          23.1349  -24.3677  -39.4542 O.2       4 UNK        -0.5039 
     34 N          22.3284  -24.8250  -41.5225 N.am      5 UNK        -0.4663 
     35 CA         23.5310  -24.4824  -42.2884 C.3       5 UNK         0.0242 
     36 CB         23.1252  -24.2054  -43.7460 C.3       5 UNK        -0.1982 
     37 C          24.6354  -25.5538  -42.2293 C.2       5 UNK         0.5017 
     38 O          25.7679  -25.2655  -42.6185 O.2       5 UNK        -0.5012 
     39 N          24.2968  -26.7601  -41.7645 N.am      6 UNK        -0.4439 
     40 CA         25.1875  -27.9063  -41.6160 C.3       6 UNK         0.0297 
     41 CB         25.3113  -28.6501  -42.9652 C.3       6 UNK        -0.2006 
     42 C          24.6602  -28.7813  -40.4658 C.2       6 UNK         0.4892 
     43 O          24.0486  -28.2550  -39.5328 O.2       6 UNK        -0.5089 
     44 N          24.8932  -30.0936  -40.5507 N.am      7 UNK        -0.4243 
     45 CA         24.3460  -31.1169  -39.6684 C.3       7 UNK         0.0196 
     46 CB         25.2121  -31.2456  -38.4019 C.3       7 UNK        -0.2007 
     47 C          24.3071  -32.4355  -40.4475 C.2       7 UNK         0.5020 
     48 O          25.0746  -32.5985  -41.4001 O.2       7 UNK        -0.5147 
     49 N          23.4232  -33.3501  -40.0269 N.am      8 UNK        -0.4734 
     50 CA         23.2154  -34.7301  -40.5053 C.3       8 UNK         0.0238 
     51 CB         24.4763  -35.5860  -40.2719 C.3       8 UNK        -0.1912 
     52 C          22.7149  -34.8936  -41.9564 C.2       8 UNK         0.5038 
     53 O          21.9838  -35.8504  -42.2176 O.2       8 UNK        -0.5046 
     54 N          23.1040  -33.9838  -42.8571 N.am      9 UNK        -0.4200 
     55 CA         22.8474  -33.9951  -44.3076 C.3       9 UNK         0.0839 
     56 C          23.6125  -35.1306  -45.0551 C.2       9 UNK         0.5513 
     57 N          23.4360  -35.2502  -46.3648 N.am      9 UNK        -0.7519 
     58 O          24.3970  -35.8837  -44.4807 O.2       9 UNK        -0.4960 
     59 C59        21.3320  -33.9453  -44.6684 C.3       10 UNK        -0.0876 
     60 S60        20.4808  -32.4909  -43.9722 S.3       10 UNK        -0.2414 
     61 C61        18.9898  -32.4648  -45.0181 C.3       10 UNK         0.0169 
     62 H62        16.5437  -21.2861  -43.7912 H         1 UNK         0.0903 
     63 H63        17.8988  -21.8061  -42.7875 H         1 UNK         0.0903 
     64 H64        18.1835  -20.7574  -44.1779 H         1 UNK         0.0903 
     65 H65        18.5602  -23.9214  -43.2061 H         1 UNK         0.3096 
     66 H66        19.0460  -24.8806  -45.8162 H         1 UNK         0.1121 
     67 H67        16.9579  -26.5592  -44.3271 H         1 UNK         0.0849 
     68 H68        16.4467  -25.3243  -45.4378 H         1 UNK         0.0849 
     69 H69        15.3378  -27.9283  -46.0482 H         1 UNK         0.0865 
     70 H70        16.1077  -28.9195  -47.2552 H         1 UNK         0.0865 
     71 H71        18.0653  -30.4258  -46.5966 H         1 UNK         0.1346 
     72 H72        17.7641  -32.0268  -42.6319 H         1 UNK         0.1412 
     73 H73        15.5238  -28.5329  -43.7079 H         1 UNK         0.1426 
     74 H74        15.3238  -31.0985  -41.5216 H         1 UNK         0.0716 
     75 H75        15.3457  -29.3538  -41.4838 H         1 UNK         0.0716 
     76 H76        17.6224  -28.2059  -39.2682 H         1 UNK         0.0695 
     77 H77        17.2884  -27.9552  -40.9538 H         1 UNK         0.0695 
     78 H78        19.8361  -29.4675  -40.2609 H         1 UNK         0.0983 
     79 H79        18.8774  -28.0549  -42.5809 H         1 UNK         0.3095 
     80 H80        21.9672  -27.3680  -43.9913 H         1 UNK         0.0454 
     81 H81        22.0771  -29.8111  -44.5842 H         1 UNK         0.0851 
     82 H82        20.4036  -29.7332  -45.1136 H         1 UNK         0.0851 
     83 H83        21.6383  -28.7905  -45.9426 H         1 UNK         0.0851 
     84 H84        19.5489  -27.4417  -45.3970 H         1 UNK         0.2976 
     85 H85        19.9760  -26.0872  -41.2233 H         1 UNK         0.3116 
     86 H86        21.0216  -25.3045  -38.5200 H         1 UNK         0.0646 
     87 H87        20.3351  -23.0058  -39.1614 H         1 UNK         0.0847 
     88 H88        18.9527  -24.0883  -39.1762 H         1 UNK         0.0847 
     89 H89        19.7004  -23.5909  -40.6932 H         1 UNK         0.0847 
     90 H90        21.5094  -25.0883  -42.0655 H         1 UNK         0.3040 
     91 H91        23.9535  -23.5644  -41.8733 H         1 UNK         0.1015 
     92 H92        22.3762  -23.4154  -43.8067 H         1 UNK         0.0786 
     93 H93        22.7154  -25.0928  -44.2282 H         1 UNK         0.0786 
     94 H94        23.9839  -23.8822  -44.3361 H         1 UNK         0.0786 
     95 H95        23.3636  -26.8999  -41.3976 H         1 UNK         0.3172 
     96 H96        26.1754  -27.5524  -41.3148 H         1 UNK         0.0595 
     97 H97        26.0607  -29.4408  -42.9210 H         1 UNK         0.0839 
     98 H98        25.6182  -27.9744  -43.7637 H         1 UNK         0.0839 
     99 H99        24.3640  -29.1025  -43.2624 H         1 UNK         0.0839 
    100 H100       25.3729  -30.4692  -41.3598 H         1 UNK         0.2998 
    101 H101       23.3244  -30.8432  -39.3945 H         1 UNK         0.0822 
    102 H102       26.2413  -31.5130  -38.6452 H         1 UNK         0.0787 
    103 H103       25.2333  -30.3125  -37.8385 H         1 UNK         0.0787 
    104 H104       24.8223  -32.0161  -37.7357 H         1 UNK         0.0787 
    105 H105       22.8213  -33.0840  -39.2588 H         1 UNK         0.3055 
    106 H106       22.4256  -35.1398  -39.8728 H         1 UNK         0.1106 
    107 H107       25.3154  -35.2496  -40.8818 H         1 UNK         0.0828 
    108 H108       24.7875  -35.5600  -39.2277 H         1 UNK         0.0828 
    109 H109       24.2910  -36.6300  -40.5284 H         1 UNK         0.0828 
    110 H110       23.7737  -33.2923  -42.5335 H         1 UNK         0.2931 
    111 H111       23.2996  -33.0710  -44.6698 H         1 UNK         0.0412 
    112 H112       23.9378  -35.9719  -46.8590 H         1 UNK         0.3472 
    113 H113       22.8304  -34.6264  -46.8744 H         1 UNK         0.3472 
    114 H114       21.2006  -33.9121  -45.7504 H         1 UNK         0.0970 
    115 H115       20.8195  -34.8481  -44.3334 H         1 UNK         0.0970 
    116 H116       19.2923  -32.3809  -46.0631 H         1 UNK         0.0612 
    117 H117       18.4654  -33.4162  -44.9189 H         1 UNK         0.0612 
@<TRIPOS>BOND
     1    1    2 1    
     2    1   62 1    
     3    1   63 1    
     4    1   64 1    
     5    2    3 2    
     6    2    4 am   BACKBONE|DICT|INTERRES
     7    4    5 1    
     8    4   65 1    
     9    5    6 1    
    10    5   25 1    
    11    5   66 1    
    12    6    7 1    
    13    6   67 1    
    14    6   68 1    
    15    7    8 1    
    16    8    9 1    
    17    8   69 1    
    18    8   70 1    
    19    9   10 ar   
    20    9   14 ar   
    21   10   11 ar   
    22   10   71 1    
    23   11   12 ar   
    24   11   61 1    
    25   12   13 ar   
    26   12   72 1    
    27   13   14 ar   
    28   13   15 1    
    29   14   73 1    
    30   15   16 1    
    31   15   74 1    
    32   15   75 1    
    33   16   17 1    
    34   17   18 1    
    35   17   76 1    
    36   17   77 1    
    37   18   19 1    
    38   18   27 1    
    39   18   78 1    
    40   19   20 am   BACKBONE|DICT|INTERRES
    41   19   79 1    
    42   20   21 2    
    43   20   22 1    
    44   22   23 1    
    45   22   24 1    
    46   22   80 1    
    47   23   81 1    
    48   23   82 1    
    49   23   83 1    
    50   24   25 am   BACKBONE|DICT|INTERRES
    51   24   84 1    
    52   25   26 2    
    53   27   28 2    
    54   27   29 am   BACKBONE|DICT|INTERRES
    55   29   30 1    
    56   29   85 1    
    57   30   31 1    
    58   30   32 1    
    59   30   86 1    
    60   31   87 1    
    61   31   88 1    
    62   31   89 1    
    63   32   33 2    
    64   32   34 am   BACKBONE|DICT|INTERRES
    65   34   35 1    
    66   34   90 1    
    67   35   36 1    
    68   35   37 1    
    69   35   91 1    
    70   36   92 1    
    71   36   93 1    
    72   36   94 1    
    73   37   38 2    
    74   37   39 am   BACKBONE|DICT|INTERRES
    75   39   40 1    
    76   39   95 1    
    77   40   41 1    
    78   40   42 1    
    79   40   96 1    
    80   41   97 1    
    81   41   98 1    
    82   41   99 1    
    83   42   43 2    
    84   42   44 am   BACKBONE|DICT|INTERRES
    85   44   45 1    
    86   44  100 1    
    87   45   46 1    
    88   45   47 1    
    89   45  101 1    
    90   46  102 1    
    91   46  103 1    
    92   46  104 1    
    93   47   48 2    
    94   47   49 am   BACKBONE|DICT|INTERRES
    95   49   50 1    
    96   49  105 1    
    97   50   51 1    
    98   50   52 1    
    99   50  106 1    
   100   51  107 1    
   101   51  108 1    
   102   51  109 1    
   103   52   53 2    
   104   52   54 am   BACKBONE|DICT|INTERRES
   105   54   55 1    
   106   54  110 1    
   107   55   56 1    
   108   55   59 1    
   109   55  111 1    
   110   56   57 am   BACKBONE|DICT|INTERRES
   111   56   58 2    
   112   57  112 1    
   113   57  113 1    
   114   59   60 1    
   115   59  114 1    
   116   59  115 1    
   117   60   61 1    
   118   61  116 1    
   119   61  117 1    
@<TRIPOS>SUBSTRUCTURE
     1 UNK         1 GROUP             0       ****    0 ROOT    
