@<TRIPOS>MOLECULE
3R8
117   119    1
SMALL
USER_CHARGES


@<TRIPOS>ATOM
      1 CA         15.2475  -24.5091  -40.5043 C.3       0 UNK        -0.2013 
      2 C          15.4309  -24.8596  -41.9734 C.2       0 UNK         0.4866 
      3 O          14.4469  -24.9693  -42.7052 O.2       0 UNK        -0.5176 
      4 N          16.6814  -25.0340  -42.4102 N.am      1 UNK        -0.4884 
      5 CA         17.0716  -25.3407  -43.7849 C.3       1 UNK         0.0853 
      6 C6         16.8630  -26.8383  -44.1252 C.3       10 UNK        -0.0849 
      7 S7         16.5984  -27.1304  -45.9009 S.3       10 UNK        -0.2776 
      8 C8         16.2563  -28.9226  -45.8901 C.3       10 UNK         0.0316 
      9 C9         17.4688  -29.7438  -45.4665 C.ar      10 UNK        -0.0863 
     10 C10        17.4052  -30.5956  -44.3593 C.ar      10 UNK        -0.1009 
     11 C11        18.5114  -31.3722  -43.9986 C.ar      10 UNK        -0.0712 
     12 C12        19.6958  -31.2681  -44.7354 C.ar      10 UNK        -0.0894 
     13 C13        19.7806  -30.4122  -45.8385 C.ar      10 UNK        -0.0745 
     14 C14        18.6510  -29.6702  -46.2062 C.ar      10 UNK        -0.0972 
     15 C15        21.0806  -30.3540  -46.6416 C.3       10 UNK         0.0209 
     16 S16        21.3409  -28.7780  -47.5308 S.3       10 UNK        -0.2568 
     17 C17        22.8419  -28.1061  -46.7431 C.3       10 UNK        -0.0983 
     18 CA         22.5943  -27.1677  -45.5331 C.3       3 UNK         0.0876 
     19 N          21.5136  -26.2006  -45.7605 N.am      3 UNK        -0.4424 
     20 C          21.4447  -24.9986  -45.1741 C.2       2 UNK         0.4918 
     21 O          22.2620  -24.5943  -44.3466 O.2       2 UNK        -0.4875 
     22 CA         20.2597  -24.1033  -45.5742 C.3       2 UNK         0.0481 
     23 CB         20.2881  -23.7727  -47.0767 C.3       2 UNK        -0.1831 
     24 N          18.9535  -24.6638  -45.2138 N.am      2 UNK        -0.4498 
     25 C          18.5329  -24.8856  -43.9609 C.2       1 UNK         0.5027 
     26 O          19.2413  -24.7307  -42.9615 O.2       1 UNK        -0.4969 
     27 C          22.4607  -27.9395  -44.2061 C.2       3 UNK         0.5005 
     28 O          23.4430  -28.5482  -43.7798 O.2       3 UNK        -0.5279 
     29 N          21.2984  -27.8675  -43.5376 N.am      4 UNK        -0.4463 
     30 CA         21.0430  -28.4744  -42.2234 C.3       4 UNK         0.0283 
     31 CB         19.5912  -28.2175  -41.7974 C.3       4 UNK        -0.1875 
     32 C          22.0069  -28.0129  -41.1171 C.2       4 UNK         0.4949 
     33 O          22.3005  -28.7910  -40.2113 O.2       4 UNK        -0.5039 
     34 N          22.5228  -26.7814  -41.2350 N.am      5 UNK        -0.4663 
     35 CA         23.5541  -26.2207  -40.3586 C.3       5 UNK         0.0242 
     36 CB         23.7305  -24.7299  -40.6890 C.3       5 UNK        -0.1982 
     37 C          24.9077  -26.9545  -40.4398 C.2       5 UNK         0.5017 
     38 O          25.6626  -26.9165  -39.4675 O.2       5 UNK        -0.5012 
     39 N          25.1884  -27.6018  -41.5797 N.am      6 UNK        -0.4439 
     40 CA         26.3850  -28.4117  -41.8096 C.3       6 UNK         0.0297 
     41 CB         26.9527  -28.0960  -43.2037 C.3       6 UNK        -0.2006 
     42 C          26.0741  -29.9107  -41.6842 C.2       6 UNK         0.4892 
     43 O          26.8677  -30.6423  -41.0918 O.2       6 UNK        -0.5089 
     44 N          24.9382  -30.3432  -42.2503 N.am      7 UNK        -0.4243 
     45 CA         24.5071  -31.7415  -42.3018 C.3       7 UNK         0.0196 
     46 CB         23.3985  -31.8842  -43.3577 C.3       7 UNK        -0.2007 
     47 C          24.0292  -32.3041  -40.9534 C.2       7 UNK         0.5020 
     48 O          24.0475  -33.5228  -40.7826 O.2       7 UNK        -0.5147 
     49 N          23.5640  -31.4346  -40.0440 N.am      8 UNK        -0.4734 
     50 CA         23.0128  -31.7016  -38.7036 C.3       8 UNK         0.0238 
     51 CB         24.0369  -32.4200  -37.8028 C.3       8 UNK        -0.1912 
     52 C          21.6500  -32.4233  -38.6858 C.2       8 UNK         0.5038 
     53 O          20.8875  -32.2233  -37.7395 O.2       8 UNK        -0.5046 
     54 N          21.3605  -33.2218  -39.7203 N.am      9 UNK        -0.4200 
     55 CA         20.0992  -33.9411  -39.9686 C.3       9 UNK         0.0839 
     56 C          19.8241  -35.1250  -38.9929 C.2       9 UNK         0.5513 
     57 N          20.8111  -35.6132  -38.2510 N.am      9 UNK        -0.7519 
     58 O          18.7076  -35.6335  -38.9276 O.2       9 UNK        -0.4960 
     59 C59        18.8699  -32.9980  -40.1277 C.3       10 UNK        -0.0876 
     60 S60        19.1442  -31.6469  -41.3247 S.3       10 UNK        -0.2414 
     61 C61        18.4195  -32.3476  -42.8338 C.3       10 UNK         0.0169 
     62 H62        14.6343  -25.2638  -40.0126 H         1 UNK         0.0903 
     63 H63        16.1997  -24.4503  -39.9772 H         1 UNK         0.0903 
     64 H64        14.7463  -23.5465  -40.4077 H         1 UNK         0.0903 
     65 H65        17.4742  -24.8830  -41.7963 H         1 UNK         0.3096 
     66 H66        16.4537  -24.7254  -44.4437 H         1 UNK         0.1121 
     67 H67        15.9856  -27.2271  -43.6057 H         1 UNK         0.0849 
     68 H68        17.7011  -27.4433  -43.7854 H         1 UNK         0.0849 
     69 H69        15.4018  -29.1213  -45.2411 H         1 UNK         0.0865 
     70 H70        15.9557  -29.2300  -46.8927 H         1 UNK         0.0865 
     71 H71        16.4900  -30.6702  -43.7880 H         1 UNK         0.1346 
     72 H72        20.5490  -31.8697  -44.4546 H         1 UNK         0.1412 
     73 H73        18.6779  -29.0256  -47.0732 H         1 UNK         0.1426 
     74 H74        21.9289  -30.5496  -45.9844 H         1 UNK         0.0716 
     75 H75        21.0675  -31.1624  -47.3735 H         1 UNK         0.0716 
     76 H76        23.5289  -28.9171  -46.4929 H         1 UNK         0.0695 
     77 H77        23.3578  -27.5355  -47.5169 H         1 UNK         0.0695 
     78 H78        23.5159  -26.5925  -45.4141 H         1 UNK         0.0983 
     79 H79        20.8067  -26.4761  -46.4276 H         1 UNK         0.3095 
     80 H80        20.3701  -23.1621  -45.0312 H         1 UNK         0.0454 
     81 H81        20.0961  -24.6496  -47.6960 H         1 UNK         0.0851 
     82 H82        19.5425  -23.0184  -47.3286 H         1 UNK         0.0851 
     83 H83        21.2595  -23.3724  -47.3706 H         1 UNK         0.0851 
     84 H84        18.3146  -24.8506  -45.9746 H         1 UNK         0.2976 
     85 H85        20.5452  -27.3408  -43.9534 H         1 UNK         0.3116 
     86 H86        21.1744  -29.5518  -42.3312 H         1 UNK         0.0646 
     87 H87        19.3410  -27.1573  -41.8064 H         1 UNK         0.0847 
     88 H88        18.8984  -28.7486  -42.4479 H         1 UNK         0.0847 
     89 H89        19.4099  -28.5839  -40.7857 H         1 UNK         0.0847 
     90 H90        22.2181  -26.2058  -42.0085 H         1 UNK         0.3040 
     91 H91        23.2009  -26.3076  -39.3286 H         1 UNK         0.1015 
     92 H92        24.0547  -24.5808  -41.7200 H         1 UNK         0.0786 
     93 H93        24.4788  -24.2711  -40.0410 H         1 UNK         0.0786 
     94 H94        22.8002  -24.1793  -40.5477 H         1 UNK         0.0786 
     95 H95        24.4851  -27.6211  -42.3102 H         1 UNK         0.3172 
     96 H96        27.1540  -28.1670  -41.0739 H         1 UNK         0.0595 
     97 H97        27.8499  -28.6842  -43.4012 H         1 UNK         0.0839 
     98 H98        27.2300  -27.0452  -43.2883 H         1 UNK         0.0839 
     99 H99        26.2367  -28.3174  -43.9963 H         1 UNK         0.0839 
    100 H100       24.3620  -29.6764  -42.7620 H         1 UNK         0.2998 
    101 H101       25.3601  -32.3445  -42.6204 H         1 UNK         0.0822 
    102 H102       23.0852  -32.9241  -43.4607 H         1 UNK         0.0787 
    103 H103       22.5164  -31.3020  -43.0928 H         1 UNK         0.0787 
    104 H104       23.7385  -31.5490  -44.3378 H         1 UNK         0.0787 
    105 H105       23.5010  -30.4599  -40.3214 H         1 UNK         0.3055 
    106 H106       22.8310  -30.7172  -38.2685 H         1 UNK         0.1106 
    107 H107       24.9795  -31.8741  -37.7618 H         1 UNK         0.0828 
    108 H108       23.6645  -32.5005  -36.7806 H         1 UNK         0.0828 
    109 H109       24.2494  -33.4319  -38.1480 H         1 UNK         0.0828 
    110 H110       22.1003  -33.3784  -40.3948 H         1 UNK         0.2931 
    111 H111       20.2473  -34.4221  -40.9360 H         1 UNK         0.0412 
    112 H112       20.6287  -36.3862  -37.6301 H         1 UNK         0.3472 
    113 H113       21.7347  -35.2142  -38.3057 H         1 UNK         0.3472 
    114 H114       17.9884  -33.5644  -40.4330 H         1 UNK         0.0970 
    115 H115       18.6130  -32.5487  -39.1672 H         1 UNK         0.0970 
    116 H116       18.9377  -33.2743  -43.0853 H         1 UNK         0.0612 
    117 H117       17.3786  -32.6145  -42.6450 H         1 UNK         0.0612 
@<TRIPOS>BOND
     1    1    2 1    
     2    1   62 1    
     3    1   63 1    
     4    1   64 1    
     5    2    3 2    
     6    2    4 am   BACKBONE|DICT|INTERRES
     7    4    5 1    
     8    4   65 1    
     9    5    6 1    
    10    5   25 1    
    11    5   66 1    
    12    6    7 1    
    13    6   67 1    
    14    6   68 1    
    15    7    8 1    
    16    8    9 1    
    17    8   69 1    
    18    8   70 1    
    19    9   10 ar   
    20    9   14 ar   
    21   10   11 ar   
    22   10   71 1    
    23   11   12 ar   
    24   11   61 1    
    25   12   13 ar   
    26   12   72 1    
    27   13   14 ar   
    28   13   15 1    
    29   14   73 1    
    30   15   16 1    
    31   15   74 1    
    32   15   75 1    
    33   16   17 1    
    34   17   18 1    
    35   17   76 1    
    36   17   77 1    
    37   18   19 1    
    38   18   27 1    
    39   18   78 1    
    40   19   20 am   BACKBONE|DICT|INTERRES
    41   19   79 1    
    42   20   21 2    
    43   20   22 1    
    44   22   23 1    
    45   22   24 1    
    46   22   80 1    
    47   23   81 1    
    48   23   82 1    
    49   23   83 1    
    50   24   25 am   BACKBONE|DICT|INTERRES
    51   24   84 1    
    52   25   26 2    
    53   27   28 2    
    54   27   29 am   BACKBONE|DICT|INTERRES
    55   29   30 1    
    56   29   85 1    
    57   30   31 1    
    58   30   32 1    
    59   30   86 1    
    60   31   87 1    
    61   31   88 1    
    62   31   89 1    
    63   32   33 2    
    64   32   34 am   BACKBONE|DICT|INTERRES
    65   34   35 1    
    66   34   90 1    
    67   35   36 1    
    68   35   37 1    
    69   35   91 1    
    70   36   92 1    
    71   36   93 1    
    72   36   94 1    
    73   37   38 2    
    74   37   39 am   BACKBONE|DICT|INTERRES
    75   39   40 1    
    76   39   95 1    
    77   40   41 1    
    78   40   42 1    
    79   40   96 1    
    80   41   97 1    
    81   41   98 1    
    82   41   99 1    
    83   42   43 2    
    84   42   44 am   BACKBONE|DICT|INTERRES
    85   44   45 1    
    86   44  100 1    
    87   45   46 1    
    88   45   47 1    
    89   45  101 1    
    90   46  102 1    
    91   46  103 1    
    92   46  104 1    
    93   47   48 2    
    94   47   49 am   BACKBONE|DICT|INTERRES
    95   49   50 1    
    96   49  105 1    
    97   50   51 1    
    98   50   52 1    
    99   50  106 1    
   100   51  107 1    
   101   51  108 1    
   102   51  109 1    
   103   52   53 2    
   104   52   54 am   BACKBONE|DICT|INTERRES
   105   54   55 1    
   106   54  110 1    
   107   55   56 1    
   108   55   59 1    
   109   55  111 1    
   110   56   57 am   BACKBONE|DICT|INTERRES
   111   56   58 2    
   112   57  112 1    
   113   57  113 1    
   114   59   60 1    
   115   59  114 1    
   116   59  115 1    
   117   60   61 1    
   118   61  116 1    
   119   61  117 1    
@<TRIPOS>SUBSTRUCTURE
     1 UNK         1 GROUP             0       ****    0 ROOT    
