@<TRIPOS>MOLECULE
3R8
117   119    1
SMALL
USER_CHARGES


@<TRIPOS>ATOM
      1 CA         16.6560  -25.2390  -42.3653 C.3       0 UNK        -0.2013 
      2 C          17.9098  -25.5527  -43.1667 C.2       0 UNK         0.4866 
      3 O          19.0132  -25.2914  -42.6898 O.2       0 UNK        -0.5176 
      4 N          17.7319  -26.1226  -44.3657 N.am      1 UNK        -0.4884 
      5 CA         18.6939  -26.3261  -45.4638 C.3       1 UNK         0.0853 
      6 C6         18.1534  -27.2847  -46.5684 C.3       10 UNK        -0.0849 
      7 S7         16.3344  -27.2253  -46.7836 S.3       10 UNK        -0.2776 
      8 C8         15.8150  -28.9582  -46.5041 C.3       10 UNK         0.0316 
      9 C9         16.4532  -29.6304  -45.2884 C.ar      10 UNK        -0.0863 
     10 C10        17.1524  -30.8298  -45.4540 C.ar      10 UNK        -0.1009 
     11 C11        17.7228  -31.4800  -44.3574 C.ar      10 UNK        -0.0712 
     12 C12        17.6064  -30.9128  -43.0857 C.ar      10 UNK        -0.0894 
     13 C13        16.9109  -29.7117  -42.8960 C.ar      10 UNK        -0.0745 
     14 C14        16.3230  -29.0885  -44.0045 C.ar      10 UNK        -0.0972 
     15 C15        16.7157  -29.1023  -41.5055 C.3       10 UNK         0.0209 
     16 S16        18.0389  -29.4899  -40.2992 S.3       10 UNK        -0.2568 
     17 C17        18.5806  -27.8448  -39.7160 C.3       10 UNK        -0.0983 
     18 CA         20.0653  -27.5683  -40.0542 C.3       3 UNK         0.0876 
     19 N          20.3279  -27.6260  -41.4947 N.am      3 UNK        -0.4424 
     20 C          21.3314  -28.3068  -42.0601 C.2       2 UNK         0.4918 
     21 O          22.1899  -28.9136  -41.4200 O.2       2 UNK        -0.4875 
     22 CA         21.3804  -28.3519  -43.5967 C.3       2 UNK         0.0481 
     23 CB         21.5713  -29.7915  -44.0980 C.3       2 UNK        -0.1831 
     24 N          20.1587  -27.8091  -44.1931 N.am      2 UNK        -0.4498 
     25 C          20.1055  -26.7653  -45.0289 C.2       1 UNK         0.5027 
     26 O          21.0907  -26.1499  -45.4386 O.2       1 UNK        -0.4969 
     27 C          20.5251  -26.2166  -39.4797 C.2       3 UNK         0.5005 
     28 O          21.0995  -26.1897  -38.3905 O.2       3 UNK        -0.5279 
     29 N          20.2981  -25.1237  -40.2256 N.am      4 UNK        -0.4463 
     30 CA         20.8458  -23.7949  -39.9381 C.3       4 UNK         0.0283 
     31 CB         19.9923  -22.7287  -40.6434 C.3       4 UNK        -0.1875 
     32 C          22.3174  -23.6860  -40.3751 C.2       4 UNK         0.4949 
     33 O          23.0713  -22.9157  -39.7800 O.2       4 UNK        -0.5039 
     34 N          22.6916  -24.4694  -41.3957 N.am      5 UNK        -0.4663 
     35 CA         24.0642  -24.6943  -41.8405 C.3       5 UNK         0.0242 
     36 CB         24.0773  -24.7832  -43.3814 C.3       5 UNK        -0.1982 
     37 C          24.6114  -25.9455  -41.1258 C.2       5 UNK         0.5017 
     38 O          24.6343  -25.9724  -39.8942 O.2       5 UNK        -0.5012 
     39 N          25.0292  -26.9600  -41.8890 N.am      6 UNK        -0.4439 
     40 CA         25.4693  -28.2672  -41.4103 C.3       6 UNK         0.0297 
     41 CB         26.9331  -28.1819  -40.9364 C.3       6 UNK        -0.2006 
     42 C          25.3058  -29.2713  -42.5666 C.2       6 UNK         0.4892 
     43 O          25.2330  -28.8332  -43.7165 O.2       6 UNK        -0.5089 
     44 N          25.2586  -30.5889  -42.3253 N.am      7 UNK        -0.4243 
     45 CA         25.2911  -31.2968  -41.0427 C.3       7 UNK         0.0196 
     46 CB         26.6202  -32.0711  -40.9327 C.3       7 UNK        -0.2007 
     47 C          24.0667  -32.2224  -40.9612 C.2       7 UNK         0.5020 
     48 O          24.2190  -33.4431  -40.8903 O.2       7 UNK        -0.5147 
     49 N          22.8660  -31.6273  -41.0408 N.am      8 UNK        -0.4734 
     50 CA         21.5445  -32.2788  -41.0097 C.3       8 UNK         0.0238 
     51 CB         21.2462  -32.8205  -39.5964 C.3       8 UNK        -0.1912 
     52 C          21.3459  -33.3460  -42.1080 C.2       8 UNK         0.5038 
     53 O          20.6028  -34.3076  -41.9056 O.2       8 UNK        -0.5046 
     54 N          22.0296  -33.1515  -43.2436 N.am      9 UNK        -0.4200 
     55 CA         22.1071  -34.0589  -44.4003 C.3       9 UNK         0.0839 
     56 C          22.8574  -35.3970  -44.1177 C.2       9 UNK         0.5513 
     57 N          23.6195  -35.5191  -43.0360 N.am      9 UNK        -0.7519 
     58 O          22.7763  -36.3335  -44.9086 O.2       9 UNK        -0.4960 
     59 C59        20.7445  -34.2716  -45.1225 C.3       10 UNK        -0.0876 
     60 S60        19.9173  -32.7000  -45.5528 S.3       10 UNK        -0.2414 
     61 C61        18.4157  -32.8232  -44.5337 C.3       10 UNK         0.0169 
     62 H62        16.4070  -24.1835  -42.4709 H         1 UNK         0.0903 
     63 H63        15.8008  -25.8253  -42.7000 H         1 UNK         0.0903 
     64 H64        16.8119  -25.4389  -41.3068 H         1 UNK         0.0903 
     65 H65        16.7843  -26.3205  -44.6575 H         1 UNK         0.3096 
     66 H66        18.8091  -25.3401  -45.9187 H         1 UNK         0.1121 
     67 H67        18.6129  -27.0316  -47.5256 H         1 UNK         0.0849 
     68 H68        18.4514  -28.3172  -46.3806 H         1 UNK         0.0849 
     69 H69        14.7305  -28.9841  -46.3900 H         1 UNK         0.0865 
     70 H70        16.0339  -29.5245  -47.4108 H         1 UNK         0.0865 
     71 H71        17.2431  -31.2734  -46.4363 H         1 UNK         0.1346 
     72 H72        18.0345  -31.4301  -42.2388 H         1 UNK         0.1412 
     73 H73        15.7524  -28.1804  -43.8698 H         1 UNK         0.1426 
     74 H74        15.7720  -29.4710  -41.1020 H         1 UNK         0.0716 
     75 H75        16.6005  -28.0238  -41.5973 H         1 UNK         0.0716 
     76 H76        17.9388  -27.0641  -40.1213 H         1 UNK         0.0695 
     77 H77        18.4324  -27.8197  -38.6347 H         1 UNK         0.0695 
     78 H78        20.6559  -28.3353  -39.5473 H         1 UNK         0.0983 
     79 H79        19.7148  -27.0838  -42.0912 H         1 UNK         0.3095 
     80 H80        22.2513  -27.7680  -43.8990 H         1 UNK         0.0454 
     81 H81        22.5227  -30.2004  -43.7595 H         1 UNK         0.0851 
     82 H82        20.7777  -30.4473  -43.7390 H         1 UNK         0.0851 
     83 H83        21.5742  -29.8363  -45.1871 H         1 UNK         0.0851 
     84 H84        19.2894  -28.2544  -43.9293 H         1 UNK         0.2976 
     85 H85        19.7986  -25.2152  -41.1098 H         1 UNK         0.3116 
     86 H86        20.7980  -23.6150  -38.8619 H         1 UNK         0.0646 
     87 H87        20.3576  -21.7260  -40.4179 H         1 UNK         0.0847 
     88 H88        18.9522  -22.7754  -40.3205 H         1 UNK         0.0847 
     89 H89        20.0115  -22.8464  -41.7278 H         1 UNK         0.0847 
     90 H90        21.9872  -25.0669  -41.8017 H         1 UNK         0.3040 
     91 H91        24.6962  -23.8542  -41.5438 H         1 UNK         0.1015 
     92 H92        23.6977  -23.8627  -43.8256 H         1 UNK         0.0786 
     93 H93        23.4598  -25.6012  -43.7549 H         1 UNK         0.0786 
     94 H94        25.0896  -24.9220  -43.7635 H         1 UNK         0.0786 
     95 H95        24.9577  -26.9029  -42.8984 H         1 UNK         0.3172 
     96 H96        24.8166  -28.5515  -40.5843 H         1 UNK         0.0595 
     97 H97        27.6054  -27.9227  -41.7552 H         1 UNK         0.0839 
     98 H98        27.2725  -29.1300  -40.5223 H         1 UNK         0.0839 
     99 H99        27.0574  -27.4334  -40.1539 H         1 UNK         0.0839 
    100 H100       25.1631  -31.1933  -43.1284 H         1 UNK         0.2998 
    101 H101       25.2263  -30.6208  -40.1913 H         1 UNK         0.0822 
    102 H102       27.4813  -31.4065  -40.9906 H         1 UNK         0.0787 
    103 H103       26.6849  -32.6018  -39.9818 H         1 UNK         0.0787 
    104 H104       26.7234  -32.8117  -41.7270 H         1 UNK         0.0787 
    105 H105       22.8318  -30.6121  -41.1303 H         1 UNK         0.3055 
    106 H106       20.8121  -31.4973  -41.2204 H         1 UNK         0.1106 
    107 H107       21.9072  -33.6469  -39.3333 H         1 UNK         0.0828 
    108 H108       21.3625  -32.0427  -38.8419 H         1 UNK         0.0828 
    109 H109       20.2213  -33.1866  -39.5240 H         1 UNK         0.0828 
    110 H110       22.6254  -32.3409  -43.2922 H         1 UNK         0.2931 
    111 H111       22.7528  -33.5388  -45.1087 H         1 UNK         0.0412 
    112 H112       24.1060  -36.3867  -42.8754 H         1 UNK         0.3472 
    113 H113       23.7084  -34.7633  -42.3655 H         1 UNK         0.3472 
    114 H114       20.0845  -34.8934  -44.5157 H         1 UNK         0.0970 
    115 H115       20.8946  -34.8228  -46.0525 H         1 UNK         0.0970 
    116 H116       18.6715  -33.2420  -43.5601 H         1 UNK         0.0612 
    117 H117       17.7260  -33.5282  -44.9996 H         1 UNK         0.0612 
@<TRIPOS>BOND
     1    1    2 1    
     2    1   62 1    
     3    1   63 1    
     4    1   64 1    
     5    2    3 2    
     6    2    4 am   BACKBONE|DICT|INTERRES
     7    4    5 1    
     8    4   65 1    
     9    5    6 1    
    10    5   25 1    
    11    5   66 1    
    12    6    7 1    
    13    6   67 1    
    14    6   68 1    
    15    7    8 1    
    16    8    9 1    
    17    8   69 1    
    18    8   70 1    
    19    9   10 ar   
    20    9   14 ar   
    21   10   11 ar   
    22   10   71 1    
    23   11   12 ar   
    24   11   61 1    
    25   12   13 ar   
    26   12   72 1    
    27   13   14 ar   
    28   13   15 1    
    29   14   73 1    
    30   15   16 1    
    31   15   74 1    
    32   15   75 1    
    33   16   17 1    
    34   17   18 1    
    35   17   76 1    
    36   17   77 1    
    37   18   19 1    
    38   18   27 1    
    39   18   78 1    
    40   19   20 am   BACKBONE|DICT|INTERRES
    41   19   79 1    
    42   20   21 2    
    43   20   22 1    
    44   22   23 1    
    45   22   24 1    
    46   22   80 1    
    47   23   81 1    
    48   23   82 1    
    49   23   83 1    
    50   24   25 am   BACKBONE|DICT|INTERRES
    51   24   84 1    
    52   25   26 2    
    53   27   28 2    
    54   27   29 am   BACKBONE|DICT|INTERRES
    55   29   30 1    
    56   29   85 1    
    57   30   31 1    
    58   30   32 1    
    59   30   86 1    
    60   31   87 1    
    61   31   88 1    
    62   31   89 1    
    63   32   33 2    
    64   32   34 am   BACKBONE|DICT|INTERRES
    65   34   35 1    
    66   34   90 1    
    67   35   36 1    
    68   35   37 1    
    69   35   91 1    
    70   36   92 1    
    71   36   93 1    
    72   36   94 1    
    73   37   38 2    
    74   37   39 am   BACKBONE|DICT|INTERRES
    75   39   40 1    
    76   39   95 1    
    77   40   41 1    
    78   40   42 1    
    79   40   96 1    
    80   41   97 1    
    81   41   98 1    
    82   41   99 1    
    83   42   43 2    
    84   42   44 am   BACKBONE|DICT|INTERRES
    85   44   45 1    
    86   44  100 1    
    87   45   46 1    
    88   45   47 1    
    89   45  101 1    
    90   46  102 1    
    91   46  103 1    
    92   46  104 1    
    93   47   48 2    
    94   47   49 am   BACKBONE|DICT|INTERRES
    95   49   50 1    
    96   49  105 1    
    97   50   51 1    
    98   50   52 1    
    99   50  106 1    
   100   51  107 1    
   101   51  108 1    
   102   51  109 1    
   103   52   53 2    
   104   52   54 am   BACKBONE|DICT|INTERRES
   105   54   55 1    
   106   54  110 1    
   107   55   56 1    
   108   55   59 1    
   109   55  111 1    
   110   56   57 am   BACKBONE|DICT|INTERRES
   111   56   58 2    
   112   57  112 1    
   113   57  113 1    
   114   59   60 1    
   115   59  114 1    
   116   59  115 1    
   117   60   61 1    
   118   61  116 1    
   119   61  117 1    
@<TRIPOS>SUBSTRUCTURE
     1 UNK         1 GROUP             0       ****    0 ROOT    
