@<TRIPOS>MOLECULE
3R8
117   119    1
SMALL
USER_CHARGES


@<TRIPOS>ATOM
      1 CA         16.2760  -29.6457  -39.9980 C.3       0 UNK        -0.2013 
      2 C          16.2695  -28.3553  -40.8033 C.2       0 UNK         0.4866 
      3 O          16.0775  -27.2787  -40.2365 O.2       0 UNK        -0.5176 
      4 N          16.4561  -28.4568  -42.1245 N.am      1 UNK        -0.4884 
      5 CA         16.5266  -27.3182  -43.0494 C.3       1 UNK         0.0853 
      6 C6         16.3100  -27.7470  -44.5262 C.3       10 UNK        -0.0849 
      7 S7         14.8421  -28.8170  -44.7594 S.3       10 UNK        -0.2776 
      8 C8         15.3464  -29.9470  -46.1066 C.3       10 UNK         0.0316 
      9 C9         16.7072  -30.5958  -45.8774 C.ar      10 UNK        -0.0863 
     10 C10        16.9391  -31.3923  -44.7511 C.ar      10 UNK        -0.1009 
     11 C11        18.2086  -31.9277  -44.5121 C.ar      10 UNK        -0.0712 
     12 C12        19.2428  -31.6825  -45.4202 C.ar      10 UNK        -0.0894 
     13 C13        19.0225  -30.8948  -46.5530 C.ar      10 UNK        -0.0745 
     14 C14        17.7489  -30.3656  -46.7824 C.ar      10 UNK        -0.0972 
     15 C15        20.1704  -30.5987  -47.5117 C.3       10 UNK         0.0209 
     16 S16        20.4943  -28.8131  -47.7028 S.3       10 UNK        -0.2568 
     17 C17        20.7237  -28.2888  -45.9725 C.3       10 UNK        -0.0983 
     18 CA         21.0553  -26.7763  -45.8580 C.3       3 UNK         0.0876 
     19 N          20.4366  -26.1803  -44.6767 N.am      3 UNK        -0.4424 
     20 C          20.0423  -24.9065  -44.5706 C.2       2 UNK         0.4918 
     21 O          20.2470  -24.0533  -45.4358 O.2       2 UNK        -0.4875 
     22 CA         19.2183  -24.5513  -43.3131 C.3       2 UNK         0.0481 
     23 CB         18.8887  -23.0496  -43.2249 C.3       2 UNK        -0.1831 
     24 N          17.9662  -25.3199  -43.2601 N.am      2 UNK        -0.4498 
     25 C          17.8889  -26.6097  -42.9060 C.2       1 UNK         0.5027 
     26 O          18.8721  -27.2566  -42.5445 O.2       1 UNK        -0.4969 
     27 C          22.5686  -26.5049  -45.8917 C.2       3 UNK         0.5005 
     28 O          23.0637  -25.9442  -46.8718 O.2       3 UNK        -0.5279 
     29 N          23.2744  -26.9011  -44.8247 N.am      4 UNK        -0.4463 
     30 CA         24.7287  -26.8073  -44.6909 C.3       4 UNK         0.0283 
     31 CB         25.4216  -27.8238  -45.6324 C.3       4 UNK        -0.1875 
     32 C          25.1137  -26.9866  -43.2125 C.2       4 UNK         0.4949 
     33 O          24.3492  -26.5980  -42.3291 O.2       4 UNK        -0.5039 
     34 N          26.2765  -27.5983  -42.9587 N.am      5 UNK        -0.4663 
     35 CA         26.7640  -27.9865  -41.6305 C.3       5 UNK         0.0242 
     36 CB         28.2679  -27.6662  -41.5427 C.3       5 UNK        -0.1982 
     37 C          26.4751  -29.4726  -41.3331 C.2       5 UNK         0.5017 
     38 O          27.1844  -30.0856  -40.5328 O.2       5 UNK        -0.5012 
     39 N          25.4528  -30.0388  -41.9902 N.am      6 UNK        -0.4439 
     40 CA         25.0141  -31.4334  -41.8972 C.3       6 UNK         0.0297 
     41 CB         24.1663  -31.7600  -43.1419 C.3       6 UNK        -0.2006 
     42 C          24.2687  -31.7274  -40.5798 C.2       6 UNK         0.4892 
     43 O          23.0871  -32.0792  -40.6040 O.2       6 UNK        -0.5089 
     44 N          24.9736  -31.5548  -39.4525 N.am      7 UNK        -0.4243 
     45 CA         24.4940  -31.6790  -38.0725 C.3       7 UNK         0.0196 
     46 CB         24.2089  -33.1592  -37.7269 C.3       7 UNK        -0.2007 
     47 C          23.3112  -30.7252  -37.8213 C.2       7 UNK         0.5020 
     48 O          23.4886  -29.5107  -37.9297 O.2       7 UNK        -0.5147 
     49 N          22.1239  -31.2771  -37.5383 N.am      8 UNK        -0.4734 
     50 CA         20.8698  -30.5332  -37.3811 C.3       8 UNK         0.0238 
     51 CB         19.7756  -31.4882  -36.8762 C.3       8 UNK        -0.1912 
     52 C          20.4045  -29.8168  -38.6634 C.2       8 UNK         0.5038 
     53 O          19.6787  -28.8280  -38.5564 O.2       8 UNK        -0.5046 
     54 N          20.8325  -30.3142  -39.8312 N.am      9 UNK        -0.4200 
     55 CA         20.5798  -29.7189  -41.1501 C.3       9 UNK         0.0839 
     56 C          21.7280  -28.7812  -41.6313 C.2       9 UNK         0.5513 
     57 N          22.6728  -28.3848  -40.7877 N.am      9 UNK        -0.7519 
     58 O          21.7754  -28.3979  -42.7982 O.2       9 UNK        -0.4960 
     59 C59        20.2205  -30.7943  -42.2076 C.3       10 UNK        -0.0876 
     60 S60        18.6947  -31.7047  -41.7890 S.3       10 UNK        -0.2414 
     61 C61        18.4729  -32.7529  -43.2612 C.3       10 UNK         0.0169 
     62 H62        17.2341  -29.7671  -39.4937 H         1 UNK         0.0903 
     63 H63        15.4912  -29.6261  -39.2423 H         1 UNK         0.0903 
     64 H64        16.1094  -30.5165  -40.6317 H         1 UNK         0.0903 
     65 H65        16.6388  -29.3598  -42.5381 H         1 UNK         0.3096 
     66 H66        15.7412  -26.6103  -42.7751 H         1 UNK         0.1121 
     67 H67        17.1997  -28.2571  -44.8965 H         1 UNK         0.0849 
     68 H68        16.1889  -26.8681  -45.1620 H         1 UNK         0.0849 
     69 H69        14.5935  -30.7293  -46.2120 H         1 UNK         0.0865 
     70 H70        15.3380  -29.3899  -47.0448 H         1 UNK         0.0865 
     71 H71        16.1395  -31.5694  -44.0447 H         1 UNK         0.1346 
     72 H72        20.2270  -32.0890  -45.2310 H         1 UNK         0.1412 
     73 H73        17.5824  -29.7454  -47.6529 H         1 UNK         0.1426 
     74 H74        19.9352  -31.0218  -48.4891 H         1 UNK         0.0716 
     75 H75        21.0894  -31.0841  -47.1792 H         1 UNK         0.0716 
     76 H76        21.4754  -28.9207  -45.4952 H         1 UNK         0.0695 
     77 H77        19.7900  -28.5019  -45.4493 H         1 UNK         0.0695 
     78 H78        20.6240  -26.2709  -46.7256 H         1 UNK         0.0983 
     79 H79        20.2283  -26.8084  -43.9042 H         1 UNK         0.3095 
     80 H80        19.8282  -24.8044  -42.4431 H         1 UNK         0.0454 
     81 H81        19.7993  -22.4491  -43.2369 H         1 UNK         0.0851 
     82 H82        18.3602  -22.8130  -42.3013 H         1 UNK         0.0851 
     83 H83        18.2698  -22.7196  -44.0602 H         1 UNK         0.0851 
     84 H84        17.1351  -24.8482  -43.5880 H         1 UNK         0.2976 
     85 H85        22.7841  -27.3108  -44.0294 H         1 UNK         0.3116 
     86 H86        25.0350  -25.7986  -44.9747 H         1 UNK         0.0646 
     87 H87        26.5054  -27.7046  -45.6274 H         1 UNK         0.0847 
     88 H88        25.1943  -28.8534  -45.3525 H         1 UNK         0.0847 
     89 H89        25.1092  -27.6919  -46.6681 H         1 UNK         0.0847 
     90 H90        26.8399  -27.8979  -43.7425 H         1 UNK         0.3040 
     91 H91        26.2523  -27.4065  -40.8590 H         1 UNK         0.1015 
     92 H92        28.6564  -27.8693  -40.5437 H         1 UNK         0.0786 
     93 H93        28.4613  -26.6141  -41.7527 H         1 UNK         0.0786 
     94 H94        28.8497  -28.2619  -42.2472 H         1 UNK         0.0786 
     95 H95        24.8998  -29.4398  -42.5846 H         1 UNK         0.3172 
     96 H96        25.8965  -32.0764  -41.9175 H         1 UNK         0.0595 
     97 H97        23.2908  -31.1141  -43.2159 H         1 UNK         0.0839 
     98 H98        23.8111  -32.7911  -43.1156 H         1 UNK         0.0839 
     99 H99        24.7454  -31.6432  -44.0579 H         1 UNK         0.0839 
    100 H100       25.9147  -31.1865  -39.5633 H         1 UNK         0.2998 
    101 H101       25.3045  -31.3364  -37.4275 H         1 UNK         0.0822 
    102 H102       23.9031  -33.2701  -36.6856 H         1 UNK         0.0787 
    103 H103       23.4280  -33.5912  -38.3538 H         1 UNK         0.0787 
    104 H104       25.1043  -33.7666  -37.8593 H         1 UNK         0.0787 
    105 H105       22.0659  -32.2845  -37.4937 H         1 UNK         0.3055 
    106 H106       21.0320  -29.7626  -36.6240 H         1 UNK         0.1106 
    107 H107       20.0506  -31.9418  -35.9238 H         1 UNK         0.0828 
    108 H108       18.8359  -30.9563  -36.7199 H         1 UNK         0.0828 
    109 H109       19.5797  -32.2903  -37.5891 H         1 UNK         0.0828 
    110 H110       21.4770  -31.0978  -39.8303 H         1 UNK         0.2931 
    111 H111       19.7066  -29.0746  -41.0598 H         1 UNK         0.0412 
    112 H112       22.6898  -28.6904  -39.8242 H         1 UNK         0.3472 
    113 H113       23.3640  -27.7290  -41.1350 H         1 UNK         0.3472 
    114 H114       21.0380  -31.5053  -42.3332 H         1 UNK         0.0970 
    115 H115       20.0678  -30.3165  -43.1763 H         1 UNK         0.0970 
    116 H116       19.3547  -33.3824  -43.3906 H         1 UNK         0.0612 
    117 H117       17.6355  -33.4302  -43.0883 H         1 UNK         0.0612 
@<TRIPOS>BOND
     1    1    2 1    
     2    1   62 1    
     3    1   63 1    
     4    1   64 1    
     5    2    3 2    
     6    2    4 am   BACKBONE|DICT|INTERRES
     7    4    5 1    
     8    4   65 1    
     9    5    6 1    
    10    5   25 1    
    11    5   66 1    
    12    6    7 1    
    13    6   67 1    
    14    6   68 1    
    15    7    8 1    
    16    8    9 1    
    17    8   69 1    
    18    8   70 1    
    19    9   10 ar   
    20    9   14 ar   
    21   10   11 ar   
    22   10   71 1    
    23   11   12 ar   
    24   11   61 1    
    25   12   13 ar   
    26   12   72 1    
    27   13   14 ar   
    28   13   15 1    
    29   14   73 1    
    30   15   16 1    
    31   15   74 1    
    32   15   75 1    
    33   16   17 1    
    34   17   18 1    
    35   17   76 1    
    36   17   77 1    
    37   18   19 1    
    38   18   27 1    
    39   18   78 1    
    40   19   20 am   BACKBONE|DICT|INTERRES
    41   19   79 1    
    42   20   21 2    
    43   20   22 1    
    44   22   23 1    
    45   22   24 1    
    46   22   80 1    
    47   23   81 1    
    48   23   82 1    
    49   23   83 1    
    50   24   25 am   BACKBONE|DICT|INTERRES
    51   24   84 1    
    52   25   26 2    
    53   27   28 2    
    54   27   29 am   BACKBONE|DICT|INTERRES
    55   29   30 1    
    56   29   85 1    
    57   30   31 1    
    58   30   32 1    
    59   30   86 1    
    60   31   87 1    
    61   31   88 1    
    62   31   89 1    
    63   32   33 2    
    64   32   34 am   BACKBONE|DICT|INTERRES
    65   34   35 1    
    66   34   90 1    
    67   35   36 1    
    68   35   37 1    
    69   35   91 1    
    70   36   92 1    
    71   36   93 1    
    72   36   94 1    
    73   37   38 2    
    74   37   39 am   BACKBONE|DICT|INTERRES
    75   39   40 1    
    76   39   95 1    
    77   40   41 1    
    78   40   42 1    
    79   40   96 1    
    80   41   97 1    
    81   41   98 1    
    82   41   99 1    
    83   42   43 2    
    84   42   44 am   BACKBONE|DICT|INTERRES
    85   44   45 1    
    86   44  100 1    
    87   45   46 1    
    88   45   47 1    
    89   45  101 1    
    90   46  102 1    
    91   46  103 1    
    92   46  104 1    
    93   47   48 2    
    94   47   49 am   BACKBONE|DICT|INTERRES
    95   49   50 1    
    96   49  105 1    
    97   50   51 1    
    98   50   52 1    
    99   50  106 1    
   100   51  107 1    
   101   51  108 1    
   102   51  109 1    
   103   52   53 2    
   104   52   54 am   BACKBONE|DICT|INTERRES
   105   54   55 1    
   106   54  110 1    
   107   55   56 1    
   108   55   59 1    
   109   55  111 1    
   110   56   57 am   BACKBONE|DICT|INTERRES
   111   56   58 2    
   112   57  112 1    
   113   57  113 1    
   114   59   60 1    
   115   59  114 1    
   116   59  115 1    
   117   60   61 1    
   118   61  116 1    
   119   61  117 1    
@<TRIPOS>SUBSTRUCTURE
     1 UNK         1 GROUP             0       ****    0 ROOT    
