@<TRIPOS>MOLECULE
3R8
117   119    1
SMALL
USER_CHARGES


@<TRIPOS>ATOM
      1 CA         12.8817  -24.9250  -43.6607 C.3       0 UNK        -0.2013 
      2 C          13.9817  -25.8981  -44.0563 C.2       0 UNK         0.4866 
      3 O          14.2114  -26.8795  -43.3492 O.2       0 UNK        -0.5176 
      4 N          14.6715  -25.6269  -45.1735 N.am      1 UNK        -0.4884 
      5 CA         15.7692  -26.4033  -45.7743 C.3       1 UNK         0.0853 
      6 C6         15.3867  -27.8757  -46.0857 C.3       10 UNK        -0.0849 
      7 S7         16.4028  -28.5991  -47.4181 S.3       10 UNK        -0.2776 
      8 C8         17.1337  -30.0628  -46.6065 C.3       10 UNK         0.0316 
      9 C9         18.4001  -29.7760  -45.8004 C.ar      10 UNK        -0.0863 
     10 C10        18.5438  -30.3028  -44.5127 C.ar      10 UNK        -0.1009 
     11 C11        19.7508  -30.1721  -43.8161 C.ar      10 UNK        -0.0712 
     12 C12        20.8158  -29.4822  -44.4043 C.ar      10 UNK        -0.0894 
     13 C13        20.6795  -28.9316  -45.6830 C.ar      10 UNK        -0.0745 
     14 C14        19.4726  -29.0847  -46.3742 C.ar      10 UNK        -0.0972 
     15 C15        21.8519  -28.2325  -46.3573 C.3       10 UNK         0.0209 
     16 S16        21.7460  -26.4185  -46.2266 S.3       10 UNK        -0.2568 
     17 C17        22.5314  -26.1072  -44.6106 C.3       10 UNK        -0.0983 
     18 CA         21.5953  -25.4099  -43.5925 C.3       3 UNK         0.0876 
     19 N          20.3904  -26.2078  -43.3429 N.am      3 UNK        -0.4424 
     20 C          19.2454  -25.7417  -42.8331 C.2       2 UNK         0.4918 
     21 O          19.0712  -24.5800  -42.4610 O.2       2 UNK        -0.4875 
     22 CA         18.1066  -26.7674  -42.7140 C.3       2 UNK         0.0481 
     23 CB         17.5228  -26.7777  -41.2914 C.3       2 UNK        -0.1831 
     24 N          17.0163  -26.5873  -43.6730 N.am      2 UNK        -0.4498 
     25 C          17.0907  -26.3186  -44.9845 C.2       1 UNK         0.5027 
     26 O          18.1227  -26.0239  -45.5862 O.2       1 UNK        -0.4969 
     27 C          22.3827  -25.0765  -42.3047 C.2       3 UNK         0.5005 
     28 O          23.3147  -24.2739  -42.3695 O.2       3 UNK        -0.5279 
     29 N          22.0326  -25.7226  -41.1794 N.am      4 UNK        -0.4463 
     30 CA         22.7187  -25.7005  -39.8765 C.3       4 UNK         0.0283 
     31 CB         22.7804  -24.2759  -39.2855 C.3       4 UNK        -0.1875 
     32 C          24.0967  -26.3983  -39.8905 C.2       4 UNK         0.4949 
     33 O          24.8795  -26.2232  -38.9562 O.2       4 UNK        -0.5039 
     34 N          24.3515  -27.2043  -40.9262 N.am      5 UNK        -0.4663 
     35 CA         25.5234  -28.0473  -41.1252 C.3       5 UNK         0.0242 
     36 CB         26.7254  -27.1931  -41.5709 C.3       5 UNK        -0.1982 
     37 C          25.1643  -29.0901  -42.1920 C.2       5 UNK         0.5017 
     38 O          24.2563  -28.8390  -42.9890 O.2       5 UNK        -0.5012 
     39 N          25.9014  -30.2092  -42.1946 N.am      6 UNK        -0.4439 
     40 CA         25.7677  -31.3899  -43.0612 C.3       6 UNK         0.0297 
     41 CB         25.8414  -31.0142  -44.5559 C.3       6 UNK        -0.2006 
     42 C          24.5148  -32.2357  -42.7644 C.2       6 UNK         0.4892 
     43 O          23.4856  -31.7162  -42.3308 O.2       6 UNK        -0.5089 
     44 N          24.6300  -33.5467  -43.0230 N.am      7 UNK        -0.4243 
     45 CA         23.6116  -34.5756  -42.7804 C.3       7 UNK         0.0196 
     46 CB         22.4373  -34.4215  -43.7770 C.3       7 UNK        -0.2007 
     47 C          23.1917  -34.6041  -41.2961 C.2       7 UNK         0.5020 
     48 O          24.0527  -34.7887  -40.4344 O.2       7 UNK        -0.5147 
     49 N          21.8965  -34.4144  -41.0193 N.am      8 UNK        -0.4734 
     50 CA         21.3391  -34.3313  -39.6671 C.3       8 UNK         0.0238 
     51 CB         19.8611  -34.7553  -39.7198 C.3       8 UNK        -0.1912 
     52 C          21.4696  -32.9333  -39.0316 C.2       8 UNK         0.5038 
     53 O          21.2352  -32.8095  -37.8284 O.2       8 UNK        -0.5046 
     54 N          21.7964  -31.9098  -39.8307 N.am      9 UNK        -0.4200 
     55 CA         21.8940  -30.5112  -39.3966 C.3       9 UNK         0.0839 
     56 C          23.2789  -30.1994  -38.7730 C.2       9 UNK         0.5513 
     57 N          23.3265  -29.2820  -37.8171 N.am      9 UNK        -0.7519 
     58 O          24.3084  -30.7442  -39.1643 O.2       9 UNK        -0.4960 
     59 C59        21.5611  -29.5339  -40.5541 C.3       10 UNK        -0.0876 
     60 S60        19.8194  -29.6585  -41.0815 S.3       10 UNK        -0.2414 
     61 C61        19.9205  -30.8418  -42.4602 C.3       10 UNK         0.0169 
     62 H62        13.0921  -24.5007  -42.6793 H         1 UNK         0.0903 
     63 H63        12.7856  -24.1046  -44.3716 H         1 UNK         0.0903 
     64 H64        11.9245  -25.4430  -43.6096 H         1 UNK         0.0903 
     65 H65        14.4403  -24.7822  -45.6796 H         1 UNK         0.3096 
     66 H66        15.9571  -25.9067  -46.7284 H         1 UNK         0.1121 
     67 H67        14.3498  -27.9231  -46.4217 H         1 UNK         0.0849 
     68 H68        15.4331  -28.4962  -45.1887 H         1 UNK         0.0849 
     69 H69        16.3764  -30.5494  -45.9899 H         1 UNK         0.0865 
     70 H70        17.3914  -30.7846  -47.3827 H         1 UNK         0.0865 
     71 H71        17.7298  -30.8585  -44.0673 H         1 UNK         0.1346 
     72 H72        21.7587  -29.4032  -43.8787 H         1 UNK         0.1412 
     73 H73        19.3770  -28.6852  -47.3747 H         1 UNK         0.1426 
     74 H74        21.8665  -28.4996  -47.4150 H         1 UNK         0.0716 
     75 H75        22.8012  -28.5854  -45.9503 H         1 UNK         0.0716 
     76 H76        23.4152  -25.4949  -44.8004 H         1 UNK         0.0695 
     77 H77        22.9016  -27.0459  -44.2002 H         1 UNK         0.0695 
     78 H78        21.2807  -24.4556  -44.0210 H         1 UNK         0.0983 
     79 H79        20.4086  -27.1546  -43.6973 H         1 UNK         0.3095 
     80 H80        18.5181  -27.7570  -42.9100 H         1 UNK         0.0454 
     81 H81        18.3075  -26.9082  -40.5451 H         1 UNK         0.0851 
     82 H82        16.8150  -27.5962  -41.1594 H         1 UNK         0.0851 
     83 H83        17.0053  -25.8455  -41.0615 H         1 UNK         0.0851 
     84 H84        16.0811  -26.7810  -43.3232 H         1 UNK         0.2976 
     85 H85        21.2375  -26.3420  -41.2436 H         1 UNK         0.3116 
     86 H86        22.0964  -26.2946  -39.2060 H         1 UNK         0.0646 
     87 H87        23.4724  -23.6362  -39.8335 H         1 UNK         0.0847 
     88 H88        21.8008  -23.7983  -39.2943 H         1 UNK         0.0847 
     89 H89        23.1189  -24.2988  -38.2490 H         1 UNK         0.0847 
     90 H90        23.6601  -27.3097  -41.6579 H         1 UNK         0.3040 
     91 H91        25.7539  -28.5599  -40.1886 H         1 UNK         0.1015 
     92 H92        27.6049  -27.8133  -41.7479 H         1 UNK         0.0786 
     93 H93        26.9971  -26.4589  -40.8125 H         1 UNK         0.0786 
     94 H94        26.5123  -26.6550  -42.4956 H         1 UNK         0.0786 
     95 H95        26.5933  -30.3042  -41.4642 H         1 UNK         0.3172 
     96 H96        26.6373  -32.0086  -42.8335 H         1 UNK         0.0595 
     97 H97        24.9562  -30.4683  -44.8841 H         1 UNK         0.0839 
     98 H98        25.9135  -31.9063  -45.1789 H         1 UNK         0.0839 
     99 H99        26.7149  -30.3984  -44.7700 H         1 UNK         0.0839 
    100 H100       25.5208  -33.8894  -43.3552 H         1 UNK         0.2998 
    101 H101       24.0873  -35.5375  -42.9777 H         1 UNK         0.0822 
    102 H102       21.7135  -35.2300  -43.6656 H         1 UNK         0.0787 
    103 H103       21.9073  -33.4762  -43.6544 H         1 UNK         0.0787 
    104 H104       22.7956  -34.4600  -44.8058 H         1 UNK         0.0787 
    105 H105       21.2584  -34.2659  -41.7879 H         1 UNK         0.3055 
    106 H106       21.8715  -35.0305  -39.0180 H         1 UNK         0.1106 
    107 H107       19.7512  -35.7665  -40.1122 H         1 UNK         0.0828 
    108 H108       19.4162  -34.7477  -38.7237 H         1 UNK         0.0828 
    109 H109       19.2699  -34.0846  -40.3446 H         1 UNK         0.0828 
    110 H110       22.1033  -32.0953  -40.7784 H         1 UNK         0.2931 
    111 H111       21.1467  -30.3502  -38.6162 H         1 UNK         0.0412 
    112 H112       24.2177  -29.0480  -37.4083 H         1 UNK         0.3472 
    113 H113       22.4885  -28.8399  -37.4734 H         1 UNK         0.3472 
    114 H114       21.7170  -28.5064  -40.2288 H         1 UNK         0.0970 
    115 H115       22.2239  -29.6826  -41.4061 H         1 UNK         0.0970 
    116 H116       19.1488  -31.5988  -42.3140 H         1 UNK         0.0612 
    117 H117       20.8675  -31.3793  -42.4379 H         1 UNK         0.0612 
@<TRIPOS>BOND
     1    1    2 1    
     2    1   62 1    
     3    1   63 1    
     4    1   64 1    
     5    2    3 2    
     6    2    4 am   BACKBONE|DICT|INTERRES
     7    4    5 1    
     8    4   65 1    
     9    5    6 1    
    10    5   25 1    
    11    5   66 1    
    12    6    7 1    
    13    6   67 1    
    14    6   68 1    
    15    7    8 1    
    16    8    9 1    
    17    8   69 1    
    18    8   70 1    
    19    9   10 ar   
    20    9   14 ar   
    21   10   11 ar   
    22   10   71 1    
    23   11   12 ar   
    24   11   61 1    
    25   12   13 ar   
    26   12   72 1    
    27   13   14 ar   
    28   13   15 1    
    29   14   73 1    
    30   15   16 1    
    31   15   74 1    
    32   15   75 1    
    33   16   17 1    
    34   17   18 1    
    35   17   76 1    
    36   17   77 1    
    37   18   19 1    
    38   18   27 1    
    39   18   78 1    
    40   19   20 am   BACKBONE|DICT|INTERRES
    41   19   79 1    
    42   20   21 2    
    43   20   22 1    
    44   22   23 1    
    45   22   24 1    
    46   22   80 1    
    47   23   81 1    
    48   23   82 1    
    49   23   83 1    
    50   24   25 am   BACKBONE|DICT|INTERRES
    51   24   84 1    
    52   25   26 2    
    53   27   28 2    
    54   27   29 am   BACKBONE|DICT|INTERRES
    55   29   30 1    
    56   29   85 1    
    57   30   31 1    
    58   30   32 1    
    59   30   86 1    
    60   31   87 1    
    61   31   88 1    
    62   31   89 1    
    63   32   33 2    
    64   32   34 am   BACKBONE|DICT|INTERRES
    65   34   35 1    
    66   34   90 1    
    67   35   36 1    
    68   35   37 1    
    69   35   91 1    
    70   36   92 1    
    71   36   93 1    
    72   36   94 1    
    73   37   38 2    
    74   37   39 am   BACKBONE|DICT|INTERRES
    75   39   40 1    
    76   39   95 1    
    77   40   41 1    
    78   40   42 1    
    79   40   96 1    
    80   41   97 1    
    81   41   98 1    
    82   41   99 1    
    83   42   43 2    
    84   42   44 am   BACKBONE|DICT|INTERRES
    85   44   45 1    
    86   44  100 1    
    87   45   46 1    
    88   45   47 1    
    89   45  101 1    
    90   46  102 1    
    91   46  103 1    
    92   46  104 1    
    93   47   48 2    
    94   47   49 am   BACKBONE|DICT|INTERRES
    95   49   50 1    
    96   49  105 1    
    97   50   51 1    
    98   50   52 1    
    99   50  106 1    
   100   51  107 1    
   101   51  108 1    
   102   51  109 1    
   103   52   53 2    
   104   52   54 am   BACKBONE|DICT|INTERRES
   105   54   55 1    
   106   54  110 1    
   107   55   56 1    
   108   55   59 1    
   109   55  111 1    
   110   56   57 am   BACKBONE|DICT|INTERRES
   111   56   58 2    
   112   57  112 1    
   113   57  113 1    
   114   59   60 1    
   115   59  114 1    
   116   59  115 1    
   117   60   61 1    
   118   61  116 1    
   119   61  117 1    
@<TRIPOS>SUBSTRUCTURE
     1 UNK         1 GROUP             0       ****    0 ROOT    
