@<TRIPOS>MOLECULE
3R8
117   119    1
SMALL
USER_CHARGES


@<TRIPOS>ATOM
      1 CA         18.8525  -26.2161  -39.6410 C.3       0 UNK        -0.2013 
      2 C          18.1954  -26.3438  -41.0068 C.2       0 UNK         0.4866 
      3 O          18.9032  -26.3498  -42.0132 O.2       0 UNK        -0.5176 
      4 N          16.8553  -26.4412  -41.0340 N.am      1 UNK        -0.4884 
      5 CA         15.9754  -26.5591  -42.2109 C.3       1 UNK         0.0853 
      6 C6         15.7469  -28.0257  -42.6971 C.3       10 UNK        -0.0849 
      7 S7         17.2636  -28.9515  -43.1057 S.3       10 UNK        -0.2776 
      8 C8         16.8831  -29.7727  -44.6851 C.3       10 UNK         0.0316 
      9 C9         18.1812  -30.2708  -45.3014 C.ar      10 UNK        -0.0863 
     10 C10        18.9589  -31.2049  -44.6120 C.ar      10 UNK        -0.1009 
     11 C11        20.2275  -31.5551  -45.0755 C.ar      10 UNK        -0.0712 
     12 C12        20.6988  -31.0056  -46.2707 C.ar      10 UNK        -0.0894 
     13 C13        19.9151  -30.0977  -46.9918 C.ar      10 UNK        -0.0745 
     14 C14        18.6506  -29.7439  -46.5079 C.ar      10 UNK        -0.0972 
     15 C15        20.4574  -29.4747  -48.2733 C.3       10 UNK         0.0209 
     16 S16        20.4485  -27.6486  -48.2471 S.3       10 UNK        -0.2568 
     17 C17        21.4277  -27.2646  -46.7526 C.3       10 UNK        -0.0983 
     18 CA         20.9241  -25.9911  -46.0252 C.3       3 UNK         0.0876 
     19 N          19.4928  -26.0522  -45.7083 N.am      3 UNK        -0.4424 
     20 C          18.7100  -24.9673  -45.6282 C.2       2 UNK         0.4918 
     21 O          19.1362  -23.8120  -45.6170 O.2       2 UNK        -0.4875 
     22 CA         17.1929  -25.2057  -45.6155 C.3       2 UNK         0.0481 
     23 CB         16.7212  -25.8707  -46.9207 C.3       2 UNK        -0.1831 
     24 N          16.7900  -26.0209  -44.4732 N.am      2 UNK        -0.4498 
     25 C          16.3197  -25.5365  -43.3181 C.2       1 UNK         0.5027 
     26 O          16.1394  -24.3365  -43.0970 O.2       1 UNK        -0.4969 
     27 C          21.8010  -25.7086  -44.7924 C.2       3 UNK         0.5005 
     28 O          22.8114  -25.0169  -44.9305 O.2       3 UNK        -0.5279 
     29 N          21.4321  -26.2791  -43.6320 N.am      4 UNK        -0.4463 
     30 CA         22.1880  -26.2904  -42.3680 C.3       4 UNK         0.0283 
     31 CB         22.1362  -24.9010  -41.6996 C.3       4 UNK        -0.1875 
     32 C          23.6303  -26.8247  -42.5228 C.2       4 UNK         0.4949 
     33 O          24.5544  -26.3077  -41.8935 O.2       4 UNK        -0.5039 
     34 N          23.8004  -27.8311  -43.3928 N.am      5 UNK        -0.4663 
     35 CA         25.1008  -28.3305  -43.8516 C.3       5 UNK         0.0242 
     36 CB         24.8915  -29.1384  -45.1437 C.3       5 UNK        -0.1982 
     37 C          25.8759  -29.1602  -42.8127 C.2       5 UNK         0.5017 
     38 O          27.0861  -29.3303  -42.9673 O.2       5 UNK        -0.5012 
     39 N          25.1817  -29.6654  -41.7893 N.am      6 UNK        -0.4439 
     40 CA         25.7158  -30.4877  -40.7101 C.3       6 UNK         0.0297 
     41 CB         25.9198  -31.9334  -41.2067 C.3       6 UNK        -0.2006 
     42 C          24.7315  -30.4512  -39.5376 C.2       6 UNK         0.4892 
     43 O          23.5839  -30.0307  -39.7123 O.2       6 UNK        -0.5089 
     44 N          25.1718  -30.9570  -38.3780 N.am      7 UNK        -0.4243 
     45 CA         24.3435  -31.1369  -37.1782 C.3       7 UNK         0.0196 
     46 CB         25.2361  -31.5728  -36.0051 C.3       7 UNK        -0.2007 
     47 C          23.1838  -32.1335  -37.3736 C.2       7 UNK         0.5020 
     48 O          22.1698  -32.0230  -36.6851 O.2       7 UNK        -0.5147 
     49 N          23.3417  -33.0689  -38.3218 N.am      8 UNK        -0.4734 
     50 CA         22.2901  -33.9813  -38.7782 C.3       8 UNK         0.0238 
     51 CB         22.9269  -35.1166  -39.5964 C.3       8 UNK        -0.1912 
     52 C          21.1981  -33.2744  -39.6032 C.2       8 UNK         0.5038 
     53 O          20.0568  -33.7374  -39.6025 O.2       8 UNK        -0.5046 
     54 N          21.5626  -32.1809  -40.2857 N.am      9 UNK        -0.4200 
     55 CA         20.6391  -31.3052  -41.0174 C.3       9 UNK         0.0839 
     56 C          19.9400  -30.3199  -40.0456 C.2       9 UNK         0.5513 
     57 N          20.6978  -29.6138  -39.2137 N.am      9 UNK        -0.7519 
     58 O          18.7178  -30.2147  -40.0267 O.2       9 UNK        -0.4960 
     59 C59        21.3309  -30.5385  -42.1779 C.3       10 UNK        -0.0876 
     60 S60        22.3452  -31.5899  -43.2784 S.3       10 UNK        -0.2414 
     61 C61        21.0994  -32.4926  -44.2556 C.3       10 UNK         0.0169 
     62 H62        18.1603  -26.4455  -38.8313 H         1 UNK         0.0903 
     63 H63        19.6961  -26.9014  -39.5694 H         1 UNK         0.0903 
     64 H64        19.2263  -25.2026  -39.4991 H         1 UNK         0.0903 
     65 H65        16.3629  -26.4045  -40.1524 H         1 UNK         0.3096 
     66 H66        15.0014  -26.2221  -41.8513 H         1 UNK         0.1121 
     67 H67        15.2425  -28.5830  -41.9063 H         1 UNK         0.0849 
     68 H68        15.0565  -28.0465  -43.5425 H         1 UNK         0.0849 
     69 H69        16.2057  -30.6104  -44.5128 H         1 UNK         0.0865 
     70 H70        16.3719  -29.0818  -45.3569 H         1 UNK         0.0865 
     71 H71        18.6011  -31.6064  -43.6735 H         1 UNK         0.1346 
     72 H72        21.6867  -31.2691  -46.6233 H         1 UNK         0.1412 
     73 H73        18.0541  -29.0289  -47.0562 H         1 UNK         0.1426 
     74 H74        19.8545  -29.8178  -49.1149 H         1 UNK         0.0716 
     75 H75        21.4769  -29.8119  -48.4672 H         1 UNK         0.0716 
     76 H76        21.4163  -28.1163  -46.0714 H         1 UNK         0.0695 
     77 H77        22.4674  -27.1403  -47.0617 H         1 UNK         0.0695 
     78 H78        21.0783  -25.1549  -46.7119 H         1 UNK         0.0983 
     79 H79        19.0753  -26.9697  -45.7134 H         1 UNK         0.3095 
     80 H80        16.7071  -24.2290  -45.5623 H         1 UNK         0.0454 
     81 H81        17.0288  -25.2856  -47.7885 H         1 UNK         0.0851 
     82 H82        17.1268  -26.8736  -47.0463 H         1 UNK         0.0851 
     83 H83        15.6342  -25.9459  -46.9528 H         1 UNK         0.0851 
     84 H84        16.9784  -27.0132  -44.5104 H         1 UNK         0.2976 
     85 H85        20.5292  -26.7374  -43.5912 H         1 UNK         0.3116 
     86 H86        21.6732  -26.9920  -41.7096 H         1 UNK         0.0646 
     87 H87        22.5837  -24.9269  -40.7054 H         1 UNK         0.0847 
     88 H88        21.1083  -24.5581  -41.5818 H         1 UNK         0.0847 
     89 H89        22.6750  -24.1529  -42.2818 H         1 UNK         0.0847 
     90 H90        22.9856  -28.2016  -43.8591 H         1 UNK         0.3040 
     91 H91        25.7241  -27.4660  -44.0917 H         1 UNK         0.1015 
     92 H92        24.4308  -28.5306  -45.9227 H         1 UNK         0.0786 
     93 H93        24.2581  -30.0102  -44.9787 H         1 UNK         0.0786 
     94 H94        25.8427  -29.4986  -45.5381 H         1 UNK         0.0786 
     95 H95        24.2004  -29.4379  -41.6950 H         1 UNK         0.3172 
     96 H96        26.6670  -30.0688  -40.3752 H         1 UNK         0.0595 
     97 H97        26.6211  -31.9730  -42.0402 H         1 UNK         0.0839 
     98 H98        24.9824  -32.3790  -41.5430 H         1 UNK         0.0839 
     99 H99        26.3255  -32.5728  -40.4221 H         1 UNK         0.0839 
    100 H100       26.1284  -31.2766  -38.3185 H         1 UNK         0.2998 
    101 H101       23.9001  -30.1693  -36.9325 H         1 UNK         0.0822 
    102 H102       26.0109  -30.8340  -35.7992 H         1 UNK         0.0787 
    103 H103       24.6507  -31.6881  -35.0916 H         1 UNK         0.0787 
    104 H104       25.7244  -32.5282  -36.2016 H         1 UNK         0.0787 
    105 H105       24.2232  -33.1059  -38.8116 H         1 UNK         0.3055 
    106 H106       21.8070  -34.4162  -37.9000 H         1 UNK         0.1106 
    107 H107       23.4311  -34.7405  -40.4877 H         1 UNK         0.0828 
    108 H108       23.6553  -35.6725  -39.0058 H         1 UNK         0.0828 
    109 H109       22.1701  -35.8292  -39.9277 H         1 UNK         0.0828 
    110 H110       22.5028  -31.8273  -40.1790 H         1 UNK         0.2931 
    111 H111       19.8630  -31.9289  -41.4651 H         1 UNK         0.0412 
    112 H112       20.2642  -28.9936  -38.5502 H         1 UNK         0.3472 
    113 H113       21.7081  -29.7064  -39.2429 H         1 UNK         0.3472 
    114 H114       21.9910  -29.7681  -41.7796 H         1 UNK         0.0970 
    115 H115       20.5914  -29.9977  -42.7699 H         1 UNK         0.0970 
    116 H116       20.4907  -33.1027  -43.5865 H         1 UNK         0.0612 
    117 H117       21.6119  -33.1886  -44.9210 H         1 UNK         0.0612 
@<TRIPOS>BOND
     1    1    2 1    
     2    1   62 1    
     3    1   63 1    
     4    1   64 1    
     5    2    3 2    
     6    2    4 am   BACKBONE|DICT|INTERRES
     7    4    5 1    
     8    4   65 1    
     9    5    6 1    
    10    5   25 1    
    11    5   66 1    
    12    6    7 1    
    13    6   67 1    
    14    6   68 1    
    15    7    8 1    
    16    8    9 1    
    17    8   69 1    
    18    8   70 1    
    19    9   10 ar   
    20    9   14 ar   
    21   10   11 ar   
    22   10   71 1    
    23   11   12 ar   
    24   11   61 1    
    25   12   13 ar   
    26   12   72 1    
    27   13   14 ar   
    28   13   15 1    
    29   14   73 1    
    30   15   16 1    
    31   15   74 1    
    32   15   75 1    
    33   16   17 1    
    34   17   18 1    
    35   17   76 1    
    36   17   77 1    
    37   18   19 1    
    38   18   27 1    
    39   18   78 1    
    40   19   20 am   BACKBONE|DICT|INTERRES
    41   19   79 1    
    42   20   21 2    
    43   20   22 1    
    44   22   23 1    
    45   22   24 1    
    46   22   80 1    
    47   23   81 1    
    48   23   82 1    
    49   23   83 1    
    50   24   25 am   BACKBONE|DICT|INTERRES
    51   24   84 1    
    52   25   26 2    
    53   27   28 2    
    54   27   29 am   BACKBONE|DICT|INTERRES
    55   29   30 1    
    56   29   85 1    
    57   30   31 1    
    58   30   32 1    
    59   30   86 1    
    60   31   87 1    
    61   31   88 1    
    62   31   89 1    
    63   32   33 2    
    64   32   34 am   BACKBONE|DICT|INTERRES
    65   34   35 1    
    66   34   90 1    
    67   35   36 1    
    68   35   37 1    
    69   35   91 1    
    70   36   92 1    
    71   36   93 1    
    72   36   94 1    
    73   37   38 2    
    74   37   39 am   BACKBONE|DICT|INTERRES
    75   39   40 1    
    76   39   95 1    
    77   40   41 1    
    78   40   42 1    
    79   40   96 1    
    80   41   97 1    
    81   41   98 1    
    82   41   99 1    
    83   42   43 2    
    84   42   44 am   BACKBONE|DICT|INTERRES
    85   44   45 1    
    86   44  100 1    
    87   45   46 1    
    88   45   47 1    
    89   45  101 1    
    90   46  102 1    
    91   46  103 1    
    92   46  104 1    
    93   47   48 2    
    94   47   49 am   BACKBONE|DICT|INTERRES
    95   49   50 1    
    96   49  105 1    
    97   50   51 1    
    98   50   52 1    
    99   50  106 1    
   100   51  107 1    
   101   51  108 1    
   102   51  109 1    
   103   52   53 2    
   104   52   54 am   BACKBONE|DICT|INTERRES
   105   54   55 1    
   106   54  110 1    
   107   55   56 1    
   108   55   59 1    
   109   55  111 1    
   110   56   57 am   BACKBONE|DICT|INTERRES
   111   56   58 2    
   112   57  112 1    
   113   57  113 1    
   114   59   60 1    
   115   59  114 1    
   116   59  115 1    
   117   60   61 1    
   118   61  116 1    
   119   61  117 1    
@<TRIPOS>SUBSTRUCTURE
     1 UNK         1 GROUP             0       ****    0 ROOT    
