@<TRIPOS>MOLECULE
3R8
117   119    1
SMALL
USER_CHARGES


@<TRIPOS>ATOM
      1 CA         14.3008  -24.3854  -40.6240 C.3       0 UNK        -0.2013 
      2 C          15.4541  -24.4504  -41.6142 C.2       0 UNK         0.4866 
      3 O          16.2414  -23.5070  -41.7006 O.2       0 UNK        -0.5176 
      4 N          15.5525  -25.5507  -42.3696 N.am      1 UNK        -0.4884 
      5 CA         16.6348  -25.8248  -43.3199 C.3       1 UNK         0.0853 
      6 C6         16.2124  -26.8515  -44.4050 C.3       10 UNK        -0.0849 
      7 S7         15.3007  -28.3398  -43.8370 S.3       10 UNK        -0.2776 
      8 C8         16.5380  -29.3827  -42.9745 C.3       10 UNK         0.0316 
      9 C9         17.7488  -29.8572  -43.7833 C.ar      10 UNK        -0.0863 
     10 C10        18.7937  -30.4872  -43.0966 C.ar      10 UNK        -0.1009 
     11 C11        19.9318  -30.9346  -43.7751 C.ar      10 UNK        -0.0712 
     12 C12        20.0389  -30.7222  -45.1503 C.ar      10 UNK        -0.0894 
     13 C13        19.0093  -30.0912  -45.8505 C.ar      10 UNK        -0.0745 
     14 C14        17.8550  -29.6960  -45.1708 C.ar      10 UNK        -0.0972 
     15 C15        19.1434  -29.8174  -47.3394 C.3       10 UNK         0.0209 
     16 S16        19.6002  -28.0818  -47.6533 S.3       10 UNK        -0.2568 
     17 C17        21.3753  -28.0772  -47.2266 C.3       10 UNK        -0.0983 
     18 CA         21.8259  -26.7538  -46.5478 C.3       3 UNK         0.0876 
     19 N          21.1123  -26.4754  -45.2860 N.am      3 UNK        -0.4424 
     20 C          21.2721  -27.1064  -44.1093 C.2       2 UNK         0.4918 
     21 O          22.1198  -27.9738  -43.8989 O.2       2 UNK        -0.4875 
     22 CA         20.3731  -26.6688  -42.9454 C.3       2 UNK         0.0481 
     23 CB         21.0585  -25.5672  -42.1151 C.3       2 UNK        -0.1831 
     24 N          19.0463  -26.2392  -43.3912 N.am      2 UNK        -0.4498 
     25 C          17.9516  -26.2244  -42.6183 C.2       1 UNK         0.5027 
     26 O          17.9529  -26.5285  -41.4224 O.2       1 UNK        -0.4969 
     27 C          23.3666  -26.6557  -46.4141 C.2       3 UNK         0.5005 
     28 O          24.0930  -27.4013  -47.0739 O.2       3 UNK        -0.5279 
     29 N          23.8345  -25.7505  -45.5379 N.am      4 UNK        -0.4463 
     30 CA         25.2328  -25.5271  -45.1384 C.3       4 UNK         0.0283 
     31 CB         26.0827  -25.0385  -46.3309 C.3       4 UNK        -0.1875 
     32 C          25.8873  -26.7189  -44.4032 C.2       4 UNK         0.4949 
     33 O          27.1077  -26.7267  -44.2395 O.2       4 UNK        -0.5039 
     34 N          25.0781  -27.6809  -43.9384 N.am      5 UNK        -0.4663 
     35 CA         25.5001  -28.8733  -43.1980 C.3       5 UNK         0.0242 
     36 CB         24.9557  -30.1173  -43.9224 C.3       5 UNK        -0.1982 
     37 C          25.0482  -28.8107  -41.7270 C.2       5 UNK         0.5017 
     38 O          24.9078  -29.8525  -41.0849 O.2       5 UNK        -0.5012 
     39 N          24.8062  -27.5897  -41.2215 N.am      6 UNK        -0.4439 
     40 CA         24.4593  -27.2378  -39.8350 C.3       6 UNK         0.0297 
     41 CB         25.6708  -27.4818  -38.9101 C.3       6 UNK        -0.2006 
     42 C          23.1780  -27.9076  -39.2932 C.2       6 UNK         0.4892 
     43 O          23.0168  -28.0052  -38.0759 O.2       6 UNK        -0.5089 
     44 N          22.3020  -28.3629  -40.2024 N.am      7 UNK        -0.4243 
     45 CA         21.0783  -29.1322  -39.9481 C.3       7 UNK         0.0196 
     46 CB         20.0440  -28.2976  -39.1644 C.3       7 UNK        -0.2007 
     47 C          21.3351  -30.5130  -39.3093 C.2       7 UNK         0.5020 
     48 O          20.4248  -31.0806  -38.7034 O.2       7 UNK        -0.5147 
     49 N          22.5418  -31.0708  -39.4923 N.am      8 UNK        -0.4734 
     50 CA         22.9658  -32.3745  -38.9671 C.3       8 UNK         0.0238 
     51 CB         24.5024  -32.3858  -38.8599 C.3       8 UNK        -0.1912 
     52 C          22.4191  -33.5624  -39.7896 C.2       8 UNK         0.5038 
     53 O          23.1834  -34.4543  -40.1637 O.2       8 UNK        -0.5046 
     54 N          21.1089  -33.5454  -40.0562 N.am      9 UNK        -0.4200 
     55 CA         20.3588  -34.5589  -40.8167 C.3       9 UNK         0.0839 
     56 C          19.2630  -35.2623  -39.9647 C.2       9 UNK         0.5513 
     57 N          19.1368  -34.9835  -38.6721 N.am      9 UNK        -0.7519 
     58 O          18.5212  -36.0947  -40.4804 O.2       9 UNK        -0.4960 
     59 C59        19.7722  -33.9698  -42.1299 C.3       10 UNK        -0.0876 
     60 S60        21.0674  -33.4220  -43.2942 S.3       10 UNK        -0.2414 
     61 C61        21.0650  -31.6229  -43.0314 C.3       10 UNK         0.0169 
     62 H62        14.6843  -24.2989  -39.6078 H         1 UNK         0.0903 
     63 H63        13.6779  -23.5152  -40.8290 H         1 UNK         0.0903 
     64 H64        13.6701  -25.2729  -40.6738 H         1 UNK         0.0903 
     65 H65        14.8952  -26.3082  -42.2449 H         1 UNK         0.3096 
     66 H66        16.8518  -24.8862  -43.8360 H         1 UNK         0.1121 
     67 H67        15.5367  -26.3433  -45.0949 H         1 UNK         0.0849 
     68 H68        17.0587  -27.1361  -45.0286 H         1 UNK         0.0849 
     69 H69        16.8795  -28.8570  -42.0831 H         1 UNK         0.0865 
     70 H70        16.0173  -30.2689  -42.6092 H         1 UNK         0.0865 
     71 H71        18.7181  -30.6318  -42.0275 H         1 UNK         0.1346 
     72 H72        20.9291  -31.0460  -45.6718 H         1 UNK         0.1412 
     73 H73        17.0551  -29.2426  -45.7370 H         1 UNK         0.1426 
     74 H74        18.1945  -30.0282  -47.8348 H         1 UNK         0.0716 
     75 H75        19.8804  -30.4805  -47.7954 H         1 UNK         0.0716 
     76 H76        21.9186  -28.2415  -48.1589 H         1 UNK         0.0695 
     77 H77        21.6135  -28.9248  -46.5842 H         1 UNK         0.0695 
     78 H78        21.5585  -25.9415  -47.2258 H         1 UNK         0.0983 
     79 H79        20.4496  -25.7176  -45.3419 H         1 UNK         0.3095 
     80 H80        20.2429  -27.5491  -42.3154 H         1 UNK         0.0454 
     81 H81        22.0685  -25.8590  -41.8255 H         1 UNK         0.0851 
     82 H82        20.5098  -25.3630  -41.1957 H         1 UNK         0.0851 
     83 H83        21.1353  -24.6324  -42.6710 H         1 UNK         0.0851 
     84 H84        18.9439  -26.0428  -44.3755 H         1 UNK         0.2976 
     85 H85        23.1521  -25.1847  -45.0524 H         1 UNK         0.3116 
     86 H86        25.2039  -24.7156  -44.4098 H         1 UNK         0.0646 
     87 H87        26.2327  -25.8236  -47.0723 H         1 UNK         0.0847 
     88 H88        25.6168  -24.1891  -46.8303 H         1 UNK         0.0847 
     89 H89        27.0707  -24.7146  -46.0016 H         1 UNK         0.0847 
     90 H90        24.0795  -27.6098  -44.1108 H         1 UNK         0.3040 
     91 H91        26.5894  -28.9470  -43.1789 H         1 UNK         0.1015 
     92 H92        25.2298  -31.0373  -43.4043 H         1 UNK         0.0786 
     93 H93        25.3547  -30.1864  -44.9345 H         1 UNK         0.0786 
     94 H94        23.8699  -30.0891  -43.9985 H         1 UNK         0.0786 
     95 H95        24.9347  -26.8097  -41.8506 H         1 UNK         0.3172 
     96 H96        24.2561  -26.1660  -39.8373 H         1 UNK         0.0595 
     97 H97        25.8932  -28.5450  -38.8104 H         1 UNK         0.0839 
     98 H98        25.4875  -27.0931  -37.9076 H         1 UNK         0.0839 
     99 H99        26.5654  -26.9860  -39.2867 H         1 UNK         0.0839 
    100 H100       22.5528  -28.2526  -41.1754 H         1 UNK         0.2998 
    101 H101       20.6482  -29.3380  -40.9272 H         1 UNK         0.0822 
    102 H102       19.0742  -28.7962  -39.1444 H         1 UNK         0.0787 
    103 H103       19.8920  -27.3209  -39.6229 H         1 UNK         0.0787 
    104 H104       20.3487  -28.1392  -38.1297 H         1 UNK         0.0787 
    105 H105       23.2380  -30.5630  -40.0297 H         1 UNK         0.3055 
    106 H106       22.5667  -32.4848  -37.9562 H         1 UNK         0.1106 
    107 H107       24.8650  -31.5531  -38.2568 H         1 UNK         0.0828 
    108 H108       24.8572  -33.3038  -38.3896 H         1 UNK         0.0828 
    109 H109       24.9740  -32.3175  -39.8411 H         1 UNK         0.0828 
    110 H110       20.5661  -32.7771  -39.6748 H         1 UNK         0.2931 
    111 H111       21.0378  -35.3648  -41.1003 H         1 UNK         0.0412 
    112 H112       18.4257  -35.4549  -38.1348 H         1 UNK         0.3472 
    113 H113       19.7486  -34.3205  -38.2236 H         1 UNK         0.3472 
    114 H114       19.1782  -34.7208  -42.6541 H         1 UNK         0.0970 
    115 H115       19.0876  -33.1489  -41.9130 H         1 UNK         0.0970 
    116 H116       21.0105  -31.4188  -41.9656 H         1 UNK         0.0612 
    117 H117       22.0173  -31.2180  -43.3703 H         1 UNK         0.0612 
@<TRIPOS>BOND
     1    1    2 1    
     2    1   62 1    
     3    1   63 1    
     4    1   64 1    
     5    2    3 2    
     6    2    4 am   BACKBONE|DICT|INTERRES
     7    4    5 1    
     8    4   65 1    
     9    5    6 1    
    10    5   25 1    
    11    5   66 1    
    12    6    7 1    
    13    6   67 1    
    14    6   68 1    
    15    7    8 1    
    16    8    9 1    
    17    8   69 1    
    18    8   70 1    
    19    9   10 ar   
    20    9   14 ar   
    21   10   11 ar   
    22   10   71 1    
    23   11   12 ar   
    24   11   61 1    
    25   12   13 ar   
    26   12   72 1    
    27   13   14 ar   
    28   13   15 1    
    29   14   73 1    
    30   15   16 1    
    31   15   74 1    
    32   15   75 1    
    33   16   17 1    
    34   17   18 1    
    35   17   76 1    
    36   17   77 1    
    37   18   19 1    
    38   18   27 1    
    39   18   78 1    
    40   19   20 am   BACKBONE|DICT|INTERRES
    41   19   79 1    
    42   20   21 2    
    43   20   22 1    
    44   22   23 1    
    45   22   24 1    
    46   22   80 1    
    47   23   81 1    
    48   23   82 1    
    49   23   83 1    
    50   24   25 am   BACKBONE|DICT|INTERRES
    51   24   84 1    
    52   25   26 2    
    53   27   28 2    
    54   27   29 am   BACKBONE|DICT|INTERRES
    55   29   30 1    
    56   29   85 1    
    57   30   31 1    
    58   30   32 1    
    59   30   86 1    
    60   31   87 1    
    61   31   88 1    
    62   31   89 1    
    63   32   33 2    
    64   32   34 am   BACKBONE|DICT|INTERRES
    65   34   35 1    
    66   34   90 1    
    67   35   36 1    
    68   35   37 1    
    69   35   91 1    
    70   36   92 1    
    71   36   93 1    
    72   36   94 1    
    73   37   38 2    
    74   37   39 am   BACKBONE|DICT|INTERRES
    75   39   40 1    
    76   39   95 1    
    77   40   41 1    
    78   40   42 1    
    79   40   96 1    
    80   41   97 1    
    81   41   98 1    
    82   41   99 1    
    83   42   43 2    
    84   42   44 am   BACKBONE|DICT|INTERRES
    85   44   45 1    
    86   44  100 1    
    87   45   46 1    
    88   45   47 1    
    89   45  101 1    
    90   46  102 1    
    91   46  103 1    
    92   46  104 1    
    93   47   48 2    
    94   47   49 am   BACKBONE|DICT|INTERRES
    95   49   50 1    
    96   49  105 1    
    97   50   51 1    
    98   50   52 1    
    99   50  106 1    
   100   51  107 1    
   101   51  108 1    
   102   51  109 1    
   103   52   53 2    
   104   52   54 am   BACKBONE|DICT|INTERRES
   105   54   55 1    
   106   54  110 1    
   107   55   56 1    
   108   55   59 1    
   109   55  111 1    
   110   56   57 am   BACKBONE|DICT|INTERRES
   111   56   58 2    
   112   57  112 1    
   113   57  113 1    
   114   59   60 1    
   115   59  114 1    
   116   59  115 1    
   117   60   61 1    
   118   61  116 1    
   119   61  117 1    
@<TRIPOS>SUBSTRUCTURE
     1 UNK         1 GROUP             0       ****    0 ROOT    
