@<TRIPOS>MOLECULE
3R8
117   119    1
SMALL
USER_CHARGES


@<TRIPOS>ATOM
      1 CA         16.2375  -25.1031  -49.9777 C.3       0 UNK        -0.2013 
      2 C          17.2958  -25.0568  -48.8855 C.2       0 UNK         0.4866 
      3 O          18.1747  -24.1946  -48.9207 O.2       0 UNK        -0.5176 
      4 N          17.2250  -25.9827  -47.9215 N.am      1 UNK        -0.4884 
      5 CA         18.1282  -26.0574  -46.7688 C.3       1 UNK         0.0853 
      6 C6         17.9875  -27.4017  -46.0144 C.3       10 UNK        -0.0849 
      7 S7         18.6102  -28.8296  -46.9565 S.3       10 UNK        -0.2776 
      8 C8         17.9071  -30.2132  -45.9963 C.3       10 UNK         0.0316 
      9 C9         18.2330  -30.1177  -44.5097 C.ar      10 UNK        -0.0863 
     10 C10        19.5061  -30.4534  -44.0396 C.ar      10 UNK        -0.1009 
     11 C11        19.8050  -30.3649  -42.6759 C.ar      10 UNK        -0.0712 
     12 C12        18.8219  -29.9313  -41.7804 C.ar      10 UNK        -0.0894 
     13 C13        17.5462  -29.5898  -42.2392 C.ar      10 UNK        -0.0745 
     14 C14        17.2572  -29.6903  -43.6031 C.ar      10 UNK        -0.0972 
     15 C15        16.4675  -29.1326  -41.2674 C.3       10 UNK         0.0209 
     16 S16        16.3035  -27.3184  -41.2365 S.3       10 UNK        -0.2568 
     17 C17        17.6661  -26.8277  -40.1250 C.3       10 UNK        -0.0983 
     18 CA         18.9255  -26.3484  -40.8869 C.3       3 UNK         0.0876 
     19 N          18.6272  -25.2474  -41.8174 N.am      3 UNK        -0.4424 
     20 C          19.4669  -24.7903  -42.7537 C.2       2 UNK         0.4918 
     21 O          20.6428  -25.1436  -42.8510 O.2       2 UNK        -0.4875 
     22 CA         18.8961  -23.8169  -43.7880 C.3       2 UNK         0.0481 
     23 CB         19.7444  -22.5376  -43.8849 C.3       2 UNK        -0.1831 
     24 N          18.9449  -24.5400  -45.0521 N.am      2 UNK        -0.4498 
     25 C          17.8798  -24.9096  -45.7703 C.2       1 UNK         0.5027 
     26 O          16.7413  -24.4624  -45.6063 O.2       1 UNK        -0.4969 
     27 C          20.0829  -26.0618  -39.9032 C.2       3 UNK         0.5005 
     28 O          20.6132  -27.0030  -39.3112 O.2       3 UNK        -0.5279 
     29 N          20.4753  -24.7860  -39.7630 N.am      4 UNK        -0.4463 
     30 CA         21.6667  -24.3425  -39.0340 C.3       4 UNK         0.0283 
     31 CB         21.6624  -22.8084  -38.9413 C.3       4 UNK        -0.1875 
     32 C          22.9865  -24.8383  -39.6574 C.2       4 UNK         0.4949 
     33 O          23.9731  -24.9812  -38.9337 O.2       4 UNK        -0.5039 
     34 N          22.9897  -25.1203  -40.9694 N.am      5 UNK        -0.4663 
     35 CA         24.0980  -25.7573  -41.6814 C.3       5 UNK         0.0242 
     36 CB         24.0220  -25.3861  -43.1741 C.3       5 UNK        -0.1982 
     37 C          24.0590  -27.2779  -41.4444 C.2       5 UNK         0.5017 
     38 O          23.6593  -28.0343  -42.3318 O.2       5 UNK        -0.5012 
     39 N          24.4303  -27.6841  -40.2233 N.am      6 UNK        -0.4439 
     40 CA         24.4610  -29.0711  -39.7578 C.3       6 UNK         0.0297 
     41 CB         24.8191  -29.0923  -38.2632 C.3       6 UNK        -0.2006 
     42 C          25.4411  -29.9428  -40.5616 C.2       6 UNK         0.4892 
     43 O          26.5170  -29.4744  -40.9425 O.2       6 UNK        -0.5089 
     44 N          25.0506  -31.2005  -40.7746 N.am      7 UNK        -0.4243 
     45 CA         25.7694  -32.2236  -41.5272 C.3       7 UNK         0.0196 
     46 CB         25.6522  -31.9400  -43.0412 C.3       7 UNK        -0.2007 
     47 C          25.1684  -33.5851  -41.1488 C.2       7 UNK         0.5020 
     48 O          24.3447  -33.6585  -40.2332 O.2       7 UNK        -0.5147 
     49 N          25.5248  -34.6403  -41.8916 N.am      8 UNK        -0.4734 
     50 CA         24.9402  -35.9860  -41.7850 C.3       8 UNK         0.0238 
     51 CB         25.9459  -37.0109  -42.3433 C.3       8 UNK        -0.1912 
     52 C          23.5500  -36.0952  -42.4574 C.2       8 UNK         0.5038 
     53 O          23.2511  -37.1063  -43.0959 O.2       8 UNK        -0.5046 
     54 N          22.7379  -35.0417  -42.3250 N.am      9 UNK        -0.4200 
     55 CA         21.3627  -34.9282  -42.8181 C.3       9 UNK         0.0839 
     56 C          20.3478  -35.7552  -41.9803 C.2       9 UNK         0.5513 
     57 N          19.1836  -36.0512  -42.5426 N.am      9 UNK        -0.7519 
     58 O          20.5906  -36.1171  -40.8301 O.2       9 UNK        -0.4960 
     59 C59        20.9447  -33.4387  -42.9661 C.3       10 UNK        -0.0876 
     60 S60        21.2085  -32.4217  -41.4675 S.3       10 UNK        -0.2414 
     61 C61        21.1885  -30.7403  -42.1655 C.3       10 UNK         0.0169 
     62 H62        16.7086  -25.2333  -50.9516 H         1 UNK         0.0903 
     63 H63        15.5337  -25.9220  -49.8296 H         1 UNK         0.0903 
     64 H64        15.6739  -24.1706  -49.9933 H         1 UNK         0.0903 
     65 H65        16.4780  -26.6622  -47.9360 H         1 UNK         0.3096 
     66 H66        19.1521  -25.9675  -47.1400 H         1 UNK         0.1121 
     67 H67        18.5480  -27.3799  -45.0765 H         1 UNK         0.0849 
     68 H68        16.9453  -27.5773  -45.7398 H         1 UNK         0.0849 
     69 H69        16.8272  -30.2406  -46.1505 H         1 UNK         0.0865 
     70 H70        18.2923  -31.1533  -46.3941 H         1 UNK         0.0865 
     71 H71        20.2639  -30.7824  -44.7376 H         1 UNK         0.1346 
     72 H72        19.0519  -29.8641  -40.7257 H         1 UNK         0.1412 
     73 H73        16.2700  -29.4271  -43.9581 H         1 UNK         0.1426 
     74 H74        16.6618  -29.5106  -40.2625 H         1 UNK         0.0716 
     75 H75        15.5099  -29.5613  -41.5669 H         1 UNK         0.0716 
     76 H76        17.9069  -27.6663  -39.4689 H         1 UNK         0.0695 
     77 H77        17.2958  -26.0344  -39.4728 H         1 UNK         0.0695 
     78 H78        19.2729  -27.1793  -41.5041 H         1 UNK         0.0983 
     79 H79        17.6699  -24.9248  -41.8183 H         1 UNK         0.3095 
     80 H80        17.8732  -23.5472  -43.5167 H         1 UNK         0.0454 
     81 H81        19.7431  -21.9965  -42.9380 H         1 UNK         0.0851 
     82 H82        19.3516  -21.8625  -44.6451 H         1 UNK         0.0851 
     83 H83        20.7838  -22.7528  -44.1368 H         1 UNK         0.0851 
     84 H84        19.8319  -24.9904  -45.2367 H         1 UNK         0.2976 
     85 H85        19.9693  -24.0809  -40.2787 H         1 UNK         0.3116 
     86 H86        21.6094  -24.7484  -38.0219 H         1 UNK         0.0646 
     87 H87        22.5253  -22.4502  -38.3778 H         1 UNK         0.0847 
     88 H88        21.7025  -22.3430  -39.9270 H         1 UNK         0.0847 
     89 H89        20.7714  -22.4423  -38.4309 H         1 UNK         0.0847 
     90 H90        22.1255  -25.0262  -41.4944 H         1 UNK         0.3040 
     91 H91        25.0468  -25.3786  -41.2941 H         1 UNK         0.1015 
     92 H92        24.8578  -25.8200  -43.7242 H         1 UNK         0.0786 
     93 H93        24.0636  -24.3063  -43.3172 H         1 UNK         0.0786 
     94 H94        23.1048  -25.7496  -43.6387 H         1 UNK         0.0786 
     95 H95        24.6932  -26.9705  -39.5544 H         1 UNK         0.3172 
     96 H96        23.4536  -29.4755  -39.8772 H         1 UNK         0.0595 
     97 H97        25.8102  -28.6749  -38.0804 H         1 UNK         0.0839 
     98 H98        24.8187  -30.1119  -37.8752 H         1 UNK         0.0839 
     99 H99        24.0998  -28.5230  -37.6738 H         1 UNK         0.0839 
    100 H100       24.1947  -31.5415  -40.3517 H         1 UNK         0.2998 
    101 H101       26.8189  -32.2190  -41.2263 H         1 UNK         0.0822 
    102 H102       26.0169  -30.9435  -43.2910 H         1 UNK         0.0787 
    103 H103       26.2406  -32.6443  -43.6297 H         1 UNK         0.0787 
    104 H104       24.6178  -32.0073  -43.3818 H         1 UNK         0.0787 
    105 H105       26.1810  -34.4976  -42.6465 H         1 UNK         0.3055 
    106 H106       24.7883  -36.2157  -40.7277 H         1 UNK         0.1106 
    107 H107       26.9071  -36.9432  -41.8334 H         1 UNK         0.0828 
    108 H108       25.5841  -38.0311  -42.2073 H         1 UNK         0.0828 
    109 H109       26.1194  -36.8657  -43.4103 H         1 UNK         0.0828 
    110 H110       23.0387  -34.2968  -41.7080 H         1 UNK         0.2931 
    111 H111       21.3542  -35.3617  -43.8204 H         1 UNK         0.0412 
    112 H112       18.5063  -36.5808  -42.0157 H         1 UNK         0.3472 
    113 H113       18.9698  -35.7639  -43.4852 H         1 UNK         0.3472 
    114 H114       21.5191  -32.9948  -43.7805 H         1 UNK         0.0970 
    115 H115       19.8990  -33.3551  -43.2679 H         1 UNK         0.0970 
    116 H116       21.4950  -30.0326  -41.3936 H         1 UNK         0.0612 
    117 H117       21.9327  -30.6621  -42.9597 H         1 UNK         0.0612 
@<TRIPOS>BOND
     1    1    2 1    
     2    1   62 1    
     3    1   63 1    
     4    1   64 1    
     5    2    3 2    
     6    2    4 am   BACKBONE|DICT|INTERRES
     7    4    5 1    
     8    4   65 1    
     9    5    6 1    
    10    5   25 1    
    11    5   66 1    
    12    6    7 1    
    13    6   67 1    
    14    6   68 1    
    15    7    8 1    
    16    8    9 1    
    17    8   69 1    
    18    8   70 1    
    19    9   10 ar   
    20    9   14 ar   
    21   10   11 ar   
    22   10   71 1    
    23   11   12 ar   
    24   11   61 1    
    25   12   13 ar   
    26   12   72 1    
    27   13   14 ar   
    28   13   15 1    
    29   14   73 1    
    30   15   16 1    
    31   15   74 1    
    32   15   75 1    
    33   16   17 1    
    34   17   18 1    
    35   17   76 1    
    36   17   77 1    
    37   18   19 1    
    38   18   27 1    
    39   18   78 1    
    40   19   20 am   BACKBONE|DICT|INTERRES
    41   19   79 1    
    42   20   21 2    
    43   20   22 1    
    44   22   23 1    
    45   22   24 1    
    46   22   80 1    
    47   23   81 1    
    48   23   82 1    
    49   23   83 1    
    50   24   25 am   BACKBONE|DICT|INTERRES
    51   24   84 1    
    52   25   26 2    
    53   27   28 2    
    54   27   29 am   BACKBONE|DICT|INTERRES
    55   29   30 1    
    56   29   85 1    
    57   30   31 1    
    58   30   32 1    
    59   30   86 1    
    60   31   87 1    
    61   31   88 1    
    62   31   89 1    
    63   32   33 2    
    64   32   34 am   BACKBONE|DICT|INTERRES
    65   34   35 1    
    66   34   90 1    
    67   35   36 1    
    68   35   37 1    
    69   35   91 1    
    70   36   92 1    
    71   36   93 1    
    72   36   94 1    
    73   37   38 2    
    74   37   39 am   BACKBONE|DICT|INTERRES
    75   39   40 1    
    76   39   95 1    
    77   40   41 1    
    78   40   42 1    
    79   40   96 1    
    80   41   97 1    
    81   41   98 1    
    82   41   99 1    
    83   42   43 2    
    84   42   44 am   BACKBONE|DICT|INTERRES
    85   44   45 1    
    86   44  100 1    
    87   45   46 1    
    88   45   47 1    
    89   45  101 1    
    90   46  102 1    
    91   46  103 1    
    92   46  104 1    
    93   47   48 2    
    94   47   49 am   BACKBONE|DICT|INTERRES
    95   49   50 1    
    96   49  105 1    
    97   50   51 1    
    98   50   52 1    
    99   50  106 1    
   100   51  107 1    
   101   51  108 1    
   102   51  109 1    
   103   52   53 2    
   104   52   54 am   BACKBONE|DICT|INTERRES
   105   54   55 1    
   106   54  110 1    
   107   55   56 1    
   108   55   59 1    
   109   55  111 1    
   110   56   57 am   BACKBONE|DICT|INTERRES
   111   56   58 2    
   112   57  112 1    
   113   57  113 1    
   114   59   60 1    
   115   59  114 1    
   116   59  115 1    
   117   60   61 1    
   118   61  116 1    
   119   61  117 1    
@<TRIPOS>SUBSTRUCTURE
     1 UNK         1 GROUP             0       ****    0 ROOT    
