@<TRIPOS>MOLECULE
3R8
117   119    1
SMALL
USER_CHARGES


@<TRIPOS>ATOM
      1 CA         13.3223  -24.2783  -45.8124 C.3       0 UNK        -0.2013 
      2 C          14.6702  -24.9444  -45.5840 C.2       0 UNK         0.4866 
      3 O          15.2116  -25.5660  -46.4989 O.2       0 UNK        -0.5176 
      4 N          15.2315  -24.8072  -44.3761 N.am      1 UNK        -0.4884 
      5 CA         16.5020  -25.4048  -43.9354 C.3       1 UNK         0.0853 
      6 C6         16.5361  -25.5801  -42.3942 C.3       10 UNK        -0.0849 
      7 S7         15.2310  -26.7308  -41.8338 S.3       10 UNK        -0.2776 
      8 C8         16.1726  -28.0159  -40.9396 C.3       10 UNK         0.0316 
      9 C9         17.3038  -28.6494  -41.7471 C.ar      10 UNK        -0.0863 
     10 C10        18.5525  -28.8383  -41.1454 C.ar      10 UNK        -0.1009 
     11 C11        19.6054  -29.4264  -41.8512 C.ar      10 UNK        -0.0712 
     12 C12        19.4029  -29.8244  -43.1751 C.ar      10 UNK        -0.0894 
     13 C13        18.1627  -29.6384  -43.7948 C.ar      10 UNK        -0.0745 
     14 C14        17.1131  -29.0631  -43.0712 C.ar      10 UNK        -0.0972 
     15 C15        17.9544  -30.0712  -45.2411 C.3       10 UNK         0.0209 
     16 S16        18.2134  -28.7051  -46.4213 S.3       10 UNK        -0.2568 
     17 C17        20.0225  -28.4792  -46.3126 C.3       10 UNK        -0.0983 
     18 CA         20.5566  -27.1910  -46.9908 C.3       3 UNK         0.0876 
     19 N          19.7560  -26.0250  -46.6060 N.am      3 UNK        -0.4424 
     20 C          19.8646  -24.7710  -47.0623 C.2       2 UNK         0.4918 
     21 O          20.7330  -24.4059  -47.8549 O.2       2 UNK        -0.4875 
     22 CA         18.8123  -23.7572  -46.5654 C.3       2 UNK         0.0481 
     23 CB         18.1877  -22.9871  -47.7418 C.3       2 UNK        -0.1831 
     24 N          17.7339  -24.3926  -45.8002 N.am      2 UNK        -0.4498 
     25 C          17.7269  -24.6331  -44.4828 C.2       1 UNK         0.5027 
     26 O          18.6374  -24.2861  -43.7292 O.2       1 UNK        -0.4969 
     27 C          22.0598  -27.0561  -46.6624 C.2       3 UNK         0.5005 
     28 O          22.8745  -27.7107  -47.3158 O.2       3 UNK        -0.5279 
     29 N          22.3767  -26.2565  -45.6305 N.am      4 UNK        -0.4463 
     30 CA         23.6481  -26.1860  -44.8983 C.3       4 UNK         0.0283 
     31 CB         24.8438  -25.8976  -45.8343 C.3       4 UNK        -0.1875 
     32 C          23.8592  -27.4302  -44.0093 C.2       4 UNK         0.4949 
     33 O          22.9678  -28.2766  -43.9108 O.2       4 UNK        -0.5039 
     34 N          25.0227  -27.4882  -43.3442 N.am      5 UNK        -0.4663 
     35 CA         25.4102  -28.4608  -42.3097 C.3       5 UNK         0.0242 
     36 CB         25.4038  -29.9045  -42.8642 C.3       5 UNK        -0.1982 
     37 C          24.5920  -28.3031  -41.0085 C.2       5 UNK         0.5017 
     38 O          23.8529  -27.3275  -40.8534 O.2       5 UNK        -0.5012 
     39 N          24.7798  -29.2348  -40.0683 N.am      6 UNK        -0.4439 
     40 CA         24.1688  -29.2473  -38.7410 C.3       6 UNK         0.0297 
     41 CB         24.8685  -28.2181  -37.8286 C.3       6 UNK        -0.2006 
     42 C          24.2730  -30.6635  -38.1605 C.2       6 UNK         0.4892 
     43 O          24.9255  -31.5224  -38.7635 O.2       6 UNK        -0.5089 
     44 N          23.6413  -30.8692  -36.9952 N.am      7 UNK        -0.4243 
     45 CA         23.5933  -32.1107  -36.2136 C.3       7 UNK         0.0196 
     46 CB         24.9882  -32.4622  -35.6460 C.3       7 UNK        -0.2007 
     47 C          22.9384  -33.2520  -37.0103 C.2       7 UNK         0.5020 
     48 O          21.7110  -33.2978  -37.0929 O.2       7 UNK        -0.5147 
     49 N          23.7579  -34.1357  -37.5941 N.am      8 UNK        -0.4734 
     50 CA         23.3209  -35.1988  -38.5030 C.3       8 UNK         0.0238 
     51 CB         24.4539  -36.2269  -38.6566 C.3       8 UNK        -0.1912 
     52 C          22.8789  -34.6734  -39.8822 C.2       8 UNK         0.5038 
     53 O          22.1291  -35.3689  -40.5684 O.2       8 UNK        -0.5046 
     54 N          23.3487  -33.4746  -40.2599 N.am      9 UNK        -0.4200 
     55 CA         23.0407  -32.7700  -41.5162 C.3       9 UNK         0.0839 
     56 C          23.5696  -33.4746  -42.8031 C.2       9 UNK         0.5513 
     57 N          24.5599  -34.3539  -42.7098 N.am      9 UNK        -0.7519 
     58 O          23.1040  -33.2012  -43.9062 O.2       9 UNK        -0.4960 
     59 C59        21.5484  -32.3410  -41.6188 C.3       10 UNK        -0.0876 
     60 S60        21.0700  -31.1883  -40.2847 S.3       10 UNK        -0.2414 
     61 C61        20.9619  -29.6088  -41.1832 C.3       10 UNK         0.0169 
     62 H62        12.5793  -25.0240  -46.0938 H         1 UNK         0.0903 
     63 H63        12.9650  -23.7637  -44.9205 H         1 UNK         0.0903 
     64 H64        13.3960  -23.5491  -46.6187 H         1 UNK         0.0903 
     65 H65        14.7458  -24.2713  -43.6705 H         1 UNK         0.3096 
     66 H66        16.5726  -26.4039  -44.3727 H         1 UNK         0.1121 
     67 H67        17.5080  -25.9535  -42.0667 H         1 UNK         0.0849 
     68 H68        16.3994  -24.6203  -41.8928 H         1 UNK         0.0849 
     69 H69        16.5602  -27.5725  -40.0209 H         1 UNK         0.0865 
     70 H70        15.4834  -28.8027  -40.6304 H         1 UNK         0.0865 
     71 H71        18.7096  -28.5302  -40.1205 H         1 UNK         0.1346 
     72 H72        20.2172  -30.2661  -43.7318 H         1 UNK         0.1412 
     73 H73        16.1496  -28.9275  -43.5435 H         1 UNK         0.1426 
     74 H74        18.6204  -30.8983  -45.4923 H         1 UNK         0.0716 
     75 H75        16.9397  -30.4524  -45.3651 H         1 UNK         0.0716 
     76 H76        20.2949  -28.4631  -45.2576 H         1 UNK         0.0695 
     77 H77        20.5032  -29.3619  -46.7391 H         1 UNK         0.0695 
     78 H78        20.4664  -27.3020  -48.0734 H         1 UNK         0.0983 
     79 H79        18.9855  -26.2281  -45.9877 H         1 UNK         0.3095 
     80 H80        19.3307  -23.0386  -45.9275 H         1 UNK         0.0454 
     81 H81        17.6782  -23.6562  -48.4365 H         1 UNK         0.0851 
     82 H82        17.4633  -22.2508  -47.3935 H         1 UNK         0.0851 
     83 H83        18.9475  -22.4461  -48.3073 H         1 UNK         0.0851 
     84 H84        16.9348  -24.7338  -46.3301 H         1 UNK         0.2976 
     85 H85        21.6024  -25.7962  -45.1731 H         1 UNK         0.3116 
     86 H86        23.5467  -25.3374  -44.2200 H         1 UNK         0.0646 
     87 H87        25.7207  -25.5790  -45.2706 H         1 UNK         0.0847 
     88 H88        24.6123  -25.0990  -46.5391 H         1 UNK         0.0847 
     89 H89        25.1336  -26.7776  -46.4094 H         1 UNK         0.0847 
     90 H90        25.6691  -26.7219  -43.4700 H         1 UNK         0.3040 
     91 H91        26.4399  -28.2155  -42.0442 H         1 UNK         0.1015 
     92 H92        25.9562  -29.9671  -43.8018 H         1 UNK         0.0786 
     93 H93        24.3925  -30.2641  -43.0541 H         1 UNK         0.0786 
     94 H94        25.8754  -30.6041  -42.1738 H         1 UNK         0.0786 
     95 H95        25.3656  -30.0406  -40.2523 H         1 UNK         0.3172 
     96 H96        23.1097  -28.9989  -38.8343 H         1 UNK         0.0595 
     97 H97        24.4236  -28.1970  -36.8333 H         1 UNK         0.0839 
     98 H98        24.7895  -27.2076  -38.2297 H         1 UNK         0.0839 
     99 H99        25.9283  -28.4459  -37.7073 H         1 UNK         0.0839 
    100 H100       23.1051  -30.1034  -36.6111 H         1 UNK         0.2998 
    101 H101       22.9366  -31.9177  -35.3636 H         1 UNK         0.0822 
    102 H102       25.3440  -31.6768  -34.9790 H         1 UNK         0.0787 
    103 H103       24.9531  -33.3837  -35.0632 H         1 UNK         0.0787 
    104 H104       25.7404  -32.5922  -36.4245 H         1 UNK         0.0787 
    105 H105       24.7537  -33.9995  -37.4905 H         1 UNK         0.3055 
    106 H106       22.4588  -35.7004  -38.0572 H         1 UNK         0.1106 
    107 H107       24.1518  -37.0455  -39.3115 H         1 UNK         0.0828 
    108 H108       25.3513  -35.7802  -39.0863 H         1 UNK         0.0828 
    109 H109       24.7236  -36.6666  -37.6962 H         1 UNK         0.0828 
    110 H110       23.9594  -32.9713  -39.6236 H         1 UNK         0.2931 
    111 H111       23.6244  -31.8516  -41.4620 H         1 UNK         0.0412 
    112 H112       24.9054  -34.7990  -43.5457 H         1 UNK         0.3472 
    113 H113       24.9613  -34.5792  -41.8140 H         1 UNK         0.3472 
    114 H114       20.8916  -33.2110  -41.5828 H         1 UNK         0.0970 
    115 H115       21.3521  -31.8664  -42.5793 H         1 UNK         0.0970 
    116 H116       21.7665  -29.5464  -41.9164 H         1 UNK         0.0612 
    117 H117       21.1358  -28.7937  -40.4792 H         1 UNK         0.0612 
@<TRIPOS>BOND
     1    1    2 1    
     2    1   62 1    
     3    1   63 1    
     4    1   64 1    
     5    2    3 2    
     6    2    4 am   BACKBONE|DICT|INTERRES
     7    4    5 1    
     8    4   65 1    
     9    5    6 1    
    10    5   25 1    
    11    5   66 1    
    12    6    7 1    
    13    6   67 1    
    14    6   68 1    
    15    7    8 1    
    16    8    9 1    
    17    8   69 1    
    18    8   70 1    
    19    9   10 ar   
    20    9   14 ar   
    21   10   11 ar   
    22   10   71 1    
    23   11   12 ar   
    24   11   61 1    
    25   12   13 ar   
    26   12   72 1    
    27   13   14 ar   
    28   13   15 1    
    29   14   73 1    
    30   15   16 1    
    31   15   74 1    
    32   15   75 1    
    33   16   17 1    
    34   17   18 1    
    35   17   76 1    
    36   17   77 1    
    37   18   19 1    
    38   18   27 1    
    39   18   78 1    
    40   19   20 am   BACKBONE|DICT|INTERRES
    41   19   79 1    
    42   20   21 2    
    43   20   22 1    
    44   22   23 1    
    45   22   24 1    
    46   22   80 1    
    47   23   81 1    
    48   23   82 1    
    49   23   83 1    
    50   24   25 am   BACKBONE|DICT|INTERRES
    51   24   84 1    
    52   25   26 2    
    53   27   28 2    
    54   27   29 am   BACKBONE|DICT|INTERRES
    55   29   30 1    
    56   29   85 1    
    57   30   31 1    
    58   30   32 1    
    59   30   86 1    
    60   31   87 1    
    61   31   88 1    
    62   31   89 1    
    63   32   33 2    
    64   32   34 am   BACKBONE|DICT|INTERRES
    65   34   35 1    
    66   34   90 1    
    67   35   36 1    
    68   35   37 1    
    69   35   91 1    
    70   36   92 1    
    71   36   93 1    
    72   36   94 1    
    73   37   38 2    
    74   37   39 am   BACKBONE|DICT|INTERRES
    75   39   40 1    
    76   39   95 1    
    77   40   41 1    
    78   40   42 1    
    79   40   96 1    
    80   41   97 1    
    81   41   98 1    
    82   41   99 1    
    83   42   43 2    
    84   42   44 am   BACKBONE|DICT|INTERRES
    85   44   45 1    
    86   44  100 1    
    87   45   46 1    
    88   45   47 1    
    89   45  101 1    
    90   46  102 1    
    91   46  103 1    
    92   46  104 1    
    93   47   48 2    
    94   47   49 am   BACKBONE|DICT|INTERRES
    95   49   50 1    
    96   49  105 1    
    97   50   51 1    
    98   50   52 1    
    99   50  106 1    
   100   51  107 1    
   101   51  108 1    
   102   51  109 1    
   103   52   53 2    
   104   52   54 am   BACKBONE|DICT|INTERRES
   105   54   55 1    
   106   54  110 1    
   107   55   56 1    
   108   55   59 1    
   109   55  111 1    
   110   56   57 am   BACKBONE|DICT|INTERRES
   111   56   58 2    
   112   57  112 1    
   113   57  113 1    
   114   59   60 1    
   115   59  114 1    
   116   59  115 1    
   117   60   61 1    
   118   61  116 1    
   119   61  117 1    
@<TRIPOS>SUBSTRUCTURE
     1 UNK         1 GROUP             0       ****    0 ROOT    
