@<TRIPOS>MOLECULE
3R8
117   119    1
SMALL
USER_CHARGES


@<TRIPOS>ATOM
      1 CA         17.4974  -22.6019  -48.0245 C.3       0 UNK        -0.2013 
      2 C          18.8675  -23.2304  -47.8198 C.2       0 UNK         0.4866 
      3 O          19.8779  -22.5297  -47.8746 O.2       0 UNK        -0.5176 
      4 N          18.9106  -24.5463  -47.5752 N.am      1 UNK        -0.4884 
      5 CA         20.1380  -25.3282  -47.3651 C.3       1 UNK         0.0853 
      6 C6         19.9752  -26.7840  -47.8775 C.3       10 UNK        -0.0849 
      7 S7         18.6527  -27.7285  -47.0410 S.3       10 UNK        -0.2776 
      8 C8         19.6476  -28.9342  -46.0929 C.3       10 UNK         0.0316 
      9 C9         18.8889  -29.7341  -45.0323 C.ar      10 UNK        -0.0863 
     10 C10        19.5344  -30.8257  -44.4410 C.ar      10 UNK        -0.1009 
     11 C11        18.9330  -31.5373  -43.3989 C.ar      10 UNK        -0.0712 
     12 C12        17.6661  -31.1603  -42.9513 C.ar      10 UNK        -0.0894 
     13 C13        17.0062  -30.0753  -43.5308 C.ar      10 UNK        -0.0745 
     14 C14        17.6099  -29.3787  -44.5812 C.ar      10 UNK        -0.0972 
     15 C15        15.6712  -29.6165  -42.9700 C.3       10 UNK         0.0209 
     16 S16        15.9113  -28.6832  -41.4246 S.3       10 UNK        -0.2568 
     17 C17        16.6927  -27.1458  -42.0277 C.3       10 UNK        -0.0983 
     18 CA         18.2451  -27.1444  -41.9936 C.3       3 UNK         0.0876 
     19 N          18.7625  -25.9601  -42.6880 N.am      3 UNK        -0.4424 
     20 C          20.0446  -25.5896  -42.8111 C.2       2 UNK         0.4918 
     21 O          20.9992  -26.2157  -42.3496 O.2       2 UNK        -0.4875 
     22 CA         20.2712  -24.2942  -43.6106 C.3       2 UNK         0.0481 
     23 CB         21.6609  -23.6648  -43.3761 C.3       2 UNK        -0.1831 
     24 N          20.0014  -24.4906  -45.0405 N.am      2 UNK        -0.4498 
     25 C          20.6724  -25.2626  -45.9130 C.2       1 UNK         0.5027 
     26 O          21.6802  -25.9086  -45.6250 O.2       1 UNK        -0.4969 
     27 C          18.7982  -27.2725  -40.5591 C.2       3 UNK         0.5005 
     28 O          18.6985  -26.3177  -39.7843 O.2       3 UNK        -0.5279 
     29 N          19.4004  -28.4329  -40.2560 N.am      4 UNK        -0.4463 
     30 CA         20.0517  -28.8414  -39.0014 C.3       4 UNK         0.0283 
     31 CB         19.0555  -28.8366  -37.8259 C.3       4 UNK        -0.1875 
     32 C          21.3371  -28.0689  -38.6410 C.2       4 UNK         0.4949 
     33 O          22.2292  -28.6548  -38.0273 O.2       4 UNK        -0.5039 
     34 N          21.4234  -26.7863  -39.0138 N.am      5 UNK        -0.4663 
     35 CA         22.5915  -25.9235  -38.8247 C.3       5 UNK         0.0242 
     36 CB         22.1831  -24.4634  -39.0749 C.3       5 UNK        -0.1982 
     37 C          23.7799  -26.3164  -39.7194 C.2       5 UNK         0.5017 
     38 O          24.9265  -26.1610  -39.2968 O.2       5 UNK        -0.5012 
     39 N          23.4865  -26.8205  -40.9223 N.am      6 UNK        -0.4439 
     40 CA         24.4411  -27.3661  -41.8816 C.3       6 UNK         0.0297 
     41 CB         24.5216  -26.4200  -43.0922 C.3       6 UNK        -0.2006 
     42 C          23.9842  -28.7675  -42.3141 C.2       6 UNK         0.4892 
     43 O          22.8509  -29.1609  -42.0279 O.2       6 UNK        -0.5089 
     44 N          24.8873  -29.4646  -43.0202 N.am      7 UNK        -0.4243 
     45 CA         24.7873  -30.8318  -43.5503 C.3       7 UNK         0.0196 
     46 CB         23.5153  -31.0244  -44.4033 C.3       7 UNK        -0.2007 
     47 C          24.9031  -31.9178  -42.4656 C.2       7 UNK         0.5020 
     48 O          24.7293  -31.6571  -41.2734 O.2       7 UNK        -0.5147 
     49 N          25.2025  -33.1438  -42.9100 N.am      8 UNK        -0.4734 
     50 CA         25.3295  -34.3359  -42.0685 C.3       8 UNK         0.0238 
     51 CB         26.3495  -35.2945  -42.7129 C.3       8 UNK        -0.1912 
     52 C          23.9551  -34.9924  -41.8453 C.2       8 UNK         0.5038 
     53 O          23.7340  -36.1236  -42.2832 O.2       8 UNK        -0.5046 
     54 N          23.0448  -34.2503  -41.2041 N.am      9 UNK        -0.4200 
     55 CA         21.6826  -34.6862  -40.8655 C.3       9 UNK         0.0839 
     56 C          21.6600  -35.8934  -39.8879 C.2       9 UNK         0.5513 
     57 N          20.6999  -36.7955  -40.0385 N.am      9 UNK        -0.7519 
     58 O          22.4731  -35.9927  -38.9709 O.2       9 UNK        -0.4960 
     59 C59        20.8300  -33.5222  -40.2979 C.3       10 UNK        -0.0876 
     60 S60        20.7378  -32.0690  -41.3956 S.3       10 UNK        -0.2414 
     61 C61        19.6605  -32.6873  -42.7236 C.3       10 UNK         0.0169 
     62 H62        16.6952  -23.3349  -47.9409 H         1 UNK         0.0903 
     63 H63        17.3255  -21.8243  -47.2807 H         1 UNK         0.0903 
     64 H64        17.4382  -22.1467  -49.0128 H         1 UNK         0.0903 
     65 H65        18.0522  -25.0800  -47.5363 H         1 UNK         0.3096 
     66 H66        20.9264  -24.8766  -47.9722 H         1 UNK         0.1121 
     67 H67        19.7407  -26.7645  -48.9429 H         1 UNK         0.0849 
     68 H68        20.9219  -27.3233  -47.8068 H         1 UNK         0.0849 
     69 H69        20.1165  -29.6222  -46.7982 H         1 UNK         0.0865 
     70 H70        20.4577  -28.4043  -45.5893 H         1 UNK         0.0865 
     71 H71        20.5242  -31.1061  -44.7724 H         1 UNK         0.1346 
     72 H72        17.2067  -31.6887  -42.1268 H         1 UNK         0.1412 
     73 H73        17.0956  -28.5262  -45.0003 H         1 UNK         0.1426 
     74 H74        15.0423  -30.4846  -42.7672 H         1 UNK         0.0716 
     75 H75        15.1280  -29.0061  -43.6931 H         1 UNK         0.0716 
     76 H76        16.3417  -26.9630  -43.0445 H         1 UNK         0.0695 
     77 H77        16.3039  -26.3181  -41.4313 H         1 UNK         0.0695 
     78 H78        18.6132  -27.9984  -42.5605 H         1 UNK         0.0983 
     79 H79        18.0622  -25.3601  -43.0967 H         1 UNK         0.3095 
     80 H80        19.5339  -23.5719  -43.2565 H         1 UNK         0.0454 
     81 H81        21.8164  -23.4488  -42.3194 H         1 UNK         0.0851 
     82 H82        21.7647  -22.7244  -43.9169 H         1 UNK         0.0851 
     83 H83        22.4707  -24.3204  -43.6919 H         1 UNK         0.0851 
     84 H84        19.1894  -24.0111  -45.4024 H         1 UNK         0.2976 
     85 H85        19.4681  -29.1230  -40.9930 H         1 UNK         0.3116 
     86 H86        20.3572  -29.8763  -39.1632 H         1 UNK         0.0646 
     87 H87        18.7180  -27.8293  -37.5804 H         1 UNK         0.0847 
     88 H88        18.1761  -29.4408  -38.0487 H         1 UNK         0.0847 
     89 H89        19.5144  -29.2505  -36.9271 H         1 UNK         0.0847 
     90 H90        20.6098  -26.3797  -39.4659 H         1 UNK         0.3040 
     91 H91        22.9180  -26.0171  -37.7866 H         1 UNK         0.1015 
     92 H92        23.0331  -23.7912  -38.9489 H         1 UNK         0.0786 
     93 H93        21.4098  -24.1432  -38.3763 H         1 UNK         0.0786 
     94 H94        21.7997  -24.3226  -40.0856 H         1 UNK         0.0786 
     95 H95        22.5110  -26.9218  -41.1915 H         1 UNK         0.3172 
     96 H96        25.4292  -27.4567  -41.4259 H         1 UNK         0.0595 
     97 H97        25.2955  -26.7353  -43.7925 H         1 UNK         0.0839 
     98 H98        24.7576  -25.4006  -42.7869 H         1 UNK         0.0839 
     99 H99        23.5786  -26.3977  -43.6401 H         1 UNK         0.0839 
    100 H100       25.7868  -29.0278  -43.1661 H         1 UNK         0.2998 
    101 H101       25.6497  -30.9476  -44.2090 H         1 UNK         0.0822 
    102 H102       23.5514  -31.9605  -44.9612 H         1 UNK         0.0787 
    103 H103       23.3927  -30.2192  -45.1277 H         1 UNK         0.0787 
    104 H104       22.6205  -31.0577  -43.7818 H         1 UNK         0.0787 
    105 H105       25.2988  -33.2887  -43.9054 H         1 UNK         0.3055 
    106 H106       25.7167  -34.0532  -41.0864 H         1 UNK         0.1106 
    107 H107       27.3274  -34.8234  -42.8138 H         1 UNK         0.0828 
    108 H108       26.4847  -36.1882  -42.1020 H         1 UNK         0.0828 
    109 H109       26.0309  -35.6219  -43.7034 H         1 UNK         0.0828 
    110 H110       23.3048  -33.3158  -40.9139 H         1 UNK         0.2931 
    111 H111       21.2221  -35.0122  -41.8003 H         1 UNK         0.0412 
    112 H112       20.6583  -37.5778  -39.4034 H         1 UNK         0.3472 
    113 H113       20.0231  -36.7191  -40.7822 H         1 UNK         0.3472 
    114 H114       19.8126  -33.8568  -40.0859 H         1 UNK         0.0970 
    115 H115       21.2381  -33.1882  -39.3419 H         1 UNK         0.0970 
    116 H116       18.9374  -33.3969  -42.3186 H         1 UNK         0.0612 
    117 H117       20.2621  -33.2360  -43.4499 H         1 UNK         0.0612 
@<TRIPOS>BOND
     1    1    2 1    
     2    1   62 1    
     3    1   63 1    
     4    1   64 1    
     5    2    3 2    
     6    2    4 am   BACKBONE|DICT|INTERRES
     7    4    5 1    
     8    4   65 1    
     9    5    6 1    
    10    5   25 1    
    11    5   66 1    
    12    6    7 1    
    13    6   67 1    
    14    6   68 1    
    15    7    8 1    
    16    8    9 1    
    17    8   69 1    
    18    8   70 1    
    19    9   10 ar   
    20    9   14 ar   
    21   10   11 ar   
    22   10   71 1    
    23   11   12 ar   
    24   11   61 1    
    25   12   13 ar   
    26   12   72 1    
    27   13   14 ar   
    28   13   15 1    
    29   14   73 1    
    30   15   16 1    
    31   15   74 1    
    32   15   75 1    
    33   16   17 1    
    34   17   18 1    
    35   17   76 1    
    36   17   77 1    
    37   18   19 1    
    38   18   27 1    
    39   18   78 1    
    40   19   20 am   BACKBONE|DICT|INTERRES
    41   19   79 1    
    42   20   21 2    
    43   20   22 1    
    44   22   23 1    
    45   22   24 1    
    46   22   80 1    
    47   23   81 1    
    48   23   82 1    
    49   23   83 1    
    50   24   25 am   BACKBONE|DICT|INTERRES
    51   24   84 1    
    52   25   26 2    
    53   27   28 2    
    54   27   29 am   BACKBONE|DICT|INTERRES
    55   29   30 1    
    56   29   85 1    
    57   30   31 1    
    58   30   32 1    
    59   30   86 1    
    60   31   87 1    
    61   31   88 1    
    62   31   89 1    
    63   32   33 2    
    64   32   34 am   BACKBONE|DICT|INTERRES
    65   34   35 1    
    66   34   90 1    
    67   35   36 1    
    68   35   37 1    
    69   35   91 1    
    70   36   92 1    
    71   36   93 1    
    72   36   94 1    
    73   37   38 2    
    74   37   39 am   BACKBONE|DICT|INTERRES
    75   39   40 1    
    76   39   95 1    
    77   40   41 1    
    78   40   42 1    
    79   40   96 1    
    80   41   97 1    
    81   41   98 1    
    82   41   99 1    
    83   42   43 2    
    84   42   44 am   BACKBONE|DICT|INTERRES
    85   44   45 1    
    86   44  100 1    
    87   45   46 1    
    88   45   47 1    
    89   45  101 1    
    90   46  102 1    
    91   46  103 1    
    92   46  104 1    
    93   47   48 2    
    94   47   49 am   BACKBONE|DICT|INTERRES
    95   49   50 1    
    96   49  105 1    
    97   50   51 1    
    98   50   52 1    
    99   50  106 1    
   100   51  107 1    
   101   51  108 1    
   102   51  109 1    
   103   52   53 2    
   104   52   54 am   BACKBONE|DICT|INTERRES
   105   54   55 1    
   106   54  110 1    
   107   55   56 1    
   108   55   59 1    
   109   55  111 1    
   110   56   57 am   BACKBONE|DICT|INTERRES
   111   56   58 2    
   112   57  112 1    
   113   57  113 1    
   114   59   60 1    
   115   59  114 1    
   116   59  115 1    
   117   60   61 1    
   118   61  116 1    
   119   61  117 1    
@<TRIPOS>SUBSTRUCTURE
     1 UNK         1 GROUP             0       ****    0 ROOT    
