@<TRIPOS>MOLECULE
3R8
117   119    1
SMALL
USER_CHARGES


@<TRIPOS>ATOM
      1 CA         13.5099  -25.3373  -48.5772 C.3       0 UNK        -0.2013 
      2 C          14.4428  -26.4356  -48.0890 C.2       0 UNK         0.4866 
      3 O          14.9973  -27.1747  -48.9033 O.2       0 UNK        -0.5176 
      4 N          14.6146  -26.5545  -46.7664 N.am      1 UNK        -0.4884 
      5 CA         15.5289  -27.5053  -46.1264 C.3       1 UNK         0.0853 
      6 C6         15.1776  -27.6869  -44.6298 C.3       10 UNK        -0.0849 
      7 S7         15.7623  -29.2767  -43.9524 S.3       10 UNK        -0.2776 
      8 C8         15.5507  -29.0006  -42.1627 C.3       10 UNK         0.0316 
      9 C9         16.8030  -28.4034  -41.5376 C.ar      10 UNK        -0.0863 
     10 C10        17.7589  -29.2359  -40.9483 C.ar      10 UNK        -0.1009 
     11 C11        18.9248  -28.6972  -40.3954 C.ar      10 UNK        -0.0712 
     12 C12        19.1347  -27.3163  -40.4332 C.ar      10 UNK        -0.0894 
     13 C13        18.1901  -26.4776  -41.0290 C.ar      10 UNK        -0.0745 
     14 C14        17.0166  -27.0228  -41.5563 C.ar      10 UNK        -0.0972 
     15 C15        18.4444  -24.9851  -41.1447 C.3       10 UNK         0.0209 
     16 S16        18.8988  -24.5427  -42.8510 S.3       10 UNK        -0.2568 
     17 C17        20.6383  -25.0877  -42.9447 C.3       10 UNK        -0.0983 
     18 CA         20.8547  -26.4914  -43.5766 C.3       3 UNK         0.0876 
     19 N          20.1599  -26.6524  -44.8555 N.am      3 UNK        -0.4424 
     20 C          20.0362  -27.8100  -45.5147 C.2       2 UNK         0.4918 
     21 O          20.4443  -28.8926  -45.0899 O.2       2 UNK        -0.4875 
     22 CA         19.3043  -27.7550  -46.8631 C.3       2 UNK         0.0481 
     23 CB         19.8536  -28.7931  -47.8580 C.3       2 UNK        -0.1831 
     24 N          17.8768  -27.9928  -46.6626 N.am      2 UNK        -0.4498 
     25 C          16.9909  -27.0497  -46.3207 C.2       1 UNK         0.5027 
     26 O          17.2847  -25.8620  -46.1577 O.2       1 UNK        -0.4969 
     27 C          22.3658  -26.7502  -43.7557 C.2       3 UNK         0.5005 
     28 O          23.0128  -26.0097  -44.5008 O.2       3 UNK        -0.5279 
     29 N          22.9057  -27.7702  -43.0745 N.am      4 UNK        -0.4463 
     30 CA         24.3465  -28.0300  -42.9979 C.3       4 UNK         0.0283 
     31 CB         24.6389  -29.4429  -42.4677 C.3       4 UNK        -0.1875 
     32 C          25.1472  -26.9462  -42.2422 C.2       4 UNK         0.4949 
     33 O          26.1471  -26.4883  -42.7900 O.2       4 UNK        -0.5039 
     34 N          24.7717  -26.4941  -41.0320 N.am      5 UNK        -0.4663 
     35 CA         23.7400  -26.9829  -40.1040 C.3       5 UNK         0.0242 
     36 CB         23.1464  -25.7751  -39.3588 C.3       5 UNK        -0.1982 
     37 C          24.2749  -28.0309  -39.1085 C.2       5 UNK         0.5017 
     38 O          23.5360  -28.4417  -38.2128 O.2       5 UNK        -0.5012 
     39 N          25.5379  -28.4497  -39.2712 N.am      6 UNK        -0.4439 
     40 CA         26.2422  -29.4361  -38.4482 C.3       6 UNK         0.0297 
     41 CB         27.7548  -29.2998  -38.7050 C.3       6 UNK        -0.2006 
     42 C          25.7382  -30.8795  -38.6637 C.2       6 UNK         0.4892 
     43 O          26.4855  -31.7261  -39.1571 O.2       6 UNK        -0.5089 
     44 N          24.4768  -31.1252  -38.2859 N.am      7 UNK        -0.4243 
     45 CA         23.7424  -32.3982  -38.2175 C.3       7 UNK         0.0196 
     46 CB         24.4122  -33.3702  -37.2272 C.3       7 UNK        -0.2007 
     47 C          23.4670  -33.0986  -39.5605 C.2       7 UNK         0.5020 
     48 O          22.3648  -33.6145  -39.7463 O.2       7 UNK        -0.5147 
     49 N          24.4387  -33.1094  -40.4798 N.am      8 UNK        -0.4734 
     50 CA         24.3869  -33.7614  -41.7965 C.3       8 UNK         0.0238 
     51 CB         25.8296  -34.0168  -42.2719 C.3       8 UNK        -0.1912 
     52 C          23.5535  -32.9793  -42.8358 C.2       8 UNK         0.5038 
     53 O          23.9839  -32.8186  -43.9796 O.2       8 UNK        -0.5046 
     54 N          22.3953  -32.4743  -42.4048 N.am      9 UNK        -0.4200 
     55 CA         21.4635  -31.6445  -43.1755 C.3       9 UNK         0.0839 
     56 C          20.7173  -32.4329  -44.2848 C.2       9 UNK         0.5513 
     57 N          20.1936  -31.7331  -45.2800 N.am      9 UNK        -0.7519 
     58 O          20.5762  -33.6538  -44.2367 O.2       9 UNK        -0.4960 
     59 C59        20.4685  -30.9177  -42.2362 C.3       10 UNK        -0.0876 
     60 S60        21.3205  -29.9144  -40.9713 S.3       10 UNK        -0.2414 
     61 C61        19.9781  -29.6079  -39.7891 C.3       10 UNK         0.0169 
     62 H62        12.6968  -25.7675  -49.1611 H         1 UNK         0.0903 
     63 H63        13.0735  -24.7752  -47.7518 H         1 UNK         0.0903 
     64 H64        14.0536  -24.6390  -49.2128 H         1 UNK         0.0903 
     65 H65        14.1634  -25.8950  -46.1481 H         1 UNK         0.3096 
     66 H66        15.3934  -28.4655  -46.6306 H         1 UNK         0.1121 
     67 H67        15.5587  -26.8540  -44.0393 H         1 UNK         0.0849 
     68 H68        14.0943  -27.6745  -44.4972 H         1 UNK         0.0849 
     69 H69        14.6885  -28.3577  -41.9784 H         1 UNK         0.0865 
     70 H70        15.3189  -29.9553  -41.6879 H         1 UNK         0.0865 
     71 H71        17.6038  -30.3061  -40.9352 H         1 UNK         0.1346 
     72 H72        20.0460  -26.9013  -40.0250 H         1 UNK         0.1412 
     73 H73        16.2861  -26.3664  -42.0063 H         1 UNK         0.1426 
     74 H74        19.2213  -24.6586  -40.4517 H         1 UNK         0.0716 
     75 H75        17.5394  -24.4422  -40.8682 H         1 UNK         0.0716 
     76 H76        21.1648  -24.3254  -43.5226 H         1 UNK         0.0695 
     77 H77        21.0756  -25.0543  -41.9456 H         1 UNK         0.0695 
     78 H78        20.4479  -27.2405  -42.8947 H         1 UNK         0.0983 
     79 H79        19.7477  -25.8175  -45.2474 H         1 UNK         0.3095 
     80 H80        19.4564  -26.7664  -47.3021 H         1 UNK         0.0454 
     81 H81        20.9277  -28.6660  -47.9995 H         1 UNK         0.0851 
     82 H82        19.6895  -29.8157  -47.5172 H         1 UNK         0.0851 
     83 H83        19.3842  -28.6889  -48.8362 H         1 UNK         0.0851 
     84 H84        17.5683  -28.9525  -46.7274 H         1 UNK         0.2976 
     85 H85        22.3041  -28.3714  -42.5266 H         1 UNK         0.3116 
     86 H86        24.7174  -28.0145  -44.0255 H         1 UNK         0.0646 
     87 H87        25.7091  -29.5977  -42.3239 H         1 UNK         0.0847 
     88 H88        24.3084  -30.1919  -43.1844 H         1 UNK         0.0847 
     89 H89        24.1499  -29.6512  -41.5187 H         1 UNK         0.0847 
     90 H90        25.3375  -25.7492  -40.6500 H         1 UNK         0.3040 
     91 H91        22.9201  -27.4601  -40.6303 H         1 UNK         0.1015 
     92 H92        22.7376  -25.0415  -40.0536 H         1 UNK         0.0786 
     93 H93        23.8934  -25.2729  -38.7428 H         1 UNK         0.0786 
     94 H94        22.3323  -26.0798  -38.6993 H         1 UNK         0.0786 
     95 H95        26.0632  -28.0507  -40.0354 H         1 UNK         0.3172 
     96 H96        26.0648  -29.1905  -37.3990 H         1 UNK         0.0595 
     97 H97        28.1109  -28.2976  -38.4656 H         1 UNK         0.0839 
     98 H98        28.0099  -29.5084  -39.7449 H         1 UNK         0.0839 
     99 H99        28.3205  -29.9972  -38.0854 H         1 UNK         0.0839 
    100 H100       23.9436  -30.3086  -37.9960 H         1 UNK         0.2998 
    101 H101       22.7649  -32.1395  -37.8067 H         1 UNK         0.0822 
    102 H102       24.5179  -32.9201  -36.2401 H         1 UNK         0.0787 
    103 H103       23.8166  -34.2763  -37.1075 H         1 UNK         0.0787 
    104 H104       25.4030  -33.6767  -37.5642 H         1 UNK         0.0787 
    105 H105       25.3103  -32.6490  -40.2247 H         1 UNK         0.3055 
    106 H106       23.8996  -34.7318  -41.6782 H         1 UNK         0.1106 
    107 H107       25.8432  -34.5660  -43.2143 H         1 UNK         0.0828 
    108 H108       26.3712  -33.0830  -42.4283 H         1 UNK         0.0828 
    109 H109       26.3873  -34.6104  -41.5473 H         1 UNK         0.0828 
    110 H110       22.1180  -32.6950  -41.4546 H         1 UNK         0.2931 
    111 H111       22.0602  -30.8819  -43.6797 H         1 UNK         0.0412 
    112 H112       20.2887  -30.7201  -45.2945 H         1 UNK         0.3472 
    113 H113       19.6908  -32.2091  -46.0115 H         1 UNK         0.3472 
    114 H114       19.8195  -31.6411  -41.7391 H         1 UNK         0.0970 
    115 H115       19.8135  -30.2577  -42.8083 H         1 UNK         0.0970 
    116 H116       19.5418  -30.5564  -39.4722 H         1 UNK         0.0612 
    117 H117       20.3960  -29.1451  -38.8937 H         1 UNK         0.0612 
@<TRIPOS>BOND
     1    1    2 1    
     2    1   62 1    
     3    1   63 1    
     4    1   64 1    
     5    2    3 2    
     6    2    4 am   BACKBONE|DICT|INTERRES
     7    4    5 1    
     8    4   65 1    
     9    5    6 1    
    10    5   25 1    
    11    5   66 1    
    12    6    7 1    
    13    6   67 1    
    14    6   68 1    
    15    7    8 1    
    16    8    9 1    
    17    8   69 1    
    18    8   70 1    
    19    9   10 ar   
    20    9   14 ar   
    21   10   11 ar   
    22   10   71 1    
    23   11   12 ar   
    24   11   61 1    
    25   12   13 ar   
    26   12   72 1    
    27   13   14 ar   
    28   13   15 1    
    29   14   73 1    
    30   15   16 1    
    31   15   74 1    
    32   15   75 1    
    33   16   17 1    
    34   17   18 1    
    35   17   76 1    
    36   17   77 1    
    37   18   19 1    
    38   18   27 1    
    39   18   78 1    
    40   19   20 am   BACKBONE|DICT|INTERRES
    41   19   79 1    
    42   20   21 2    
    43   20   22 1    
    44   22   23 1    
    45   22   24 1    
    46   22   80 1    
    47   23   81 1    
    48   23   82 1    
    49   23   83 1    
    50   24   25 am   BACKBONE|DICT|INTERRES
    51   24   84 1    
    52   25   26 2    
    53   27   28 2    
    54   27   29 am   BACKBONE|DICT|INTERRES
    55   29   30 1    
    56   29   85 1    
    57   30   31 1    
    58   30   32 1    
    59   30   86 1    
    60   31   87 1    
    61   31   88 1    
    62   31   89 1    
    63   32   33 2    
    64   32   34 am   BACKBONE|DICT|INTERRES
    65   34   35 1    
    66   34   90 1    
    67   35   36 1    
    68   35   37 1    
    69   35   91 1    
    70   36   92 1    
    71   36   93 1    
    72   36   94 1    
    73   37   38 2    
    74   37   39 am   BACKBONE|DICT|INTERRES
    75   39   40 1    
    76   39   95 1    
    77   40   41 1    
    78   40   42 1    
    79   40   96 1    
    80   41   97 1    
    81   41   98 1    
    82   41   99 1    
    83   42   43 2    
    84   42   44 am   BACKBONE|DICT|INTERRES
    85   44   45 1    
    86   44  100 1    
    87   45   46 1    
    88   45   47 1    
    89   45  101 1    
    90   46  102 1    
    91   46  103 1    
    92   46  104 1    
    93   47   48 2    
    94   47   49 am   BACKBONE|DICT|INTERRES
    95   49   50 1    
    96   49  105 1    
    97   50   51 1    
    98   50   52 1    
    99   50  106 1    
   100   51  107 1    
   101   51  108 1    
   102   51  109 1    
   103   52   53 2    
   104   52   54 am   BACKBONE|DICT|INTERRES
   105   54   55 1    
   106   54  110 1    
   107   55   56 1    
   108   55   59 1    
   109   55  111 1    
   110   56   57 am   BACKBONE|DICT|INTERRES
   111   56   58 2    
   112   57  112 1    
   113   57  113 1    
   114   59   60 1    
   115   59  114 1    
   116   59  115 1    
   117   60   61 1    
   118   61  116 1    
   119   61  117 1    
@<TRIPOS>SUBSTRUCTURE
     1 UNK         1 GROUP             0       ****    0 ROOT    
