@<TRIPOS>MOLECULE
3R8
117   119    1
SMALL
USER_CHARGES


@<TRIPOS>ATOM
      1 CA         15.1835  -26.2989  -40.2806 C.3       0 UNK        -0.2013 
      2 C          15.3119  -26.4112  -41.7925 C.2       0 UNK         0.4866 
      3 O          14.3152  -26.6390  -42.4782 O.2       0 UNK        -0.5176 
      4 N          16.5308  -26.2507  -42.3152 N.am      1 UNK        -0.4884 
      5 CA         16.8700  -26.2817  -43.7361 C.3       1 UNK         0.0853 
      6 C6         16.8438  -27.7192  -44.3249 C.3       10 UNK        -0.0849 
      7 S7         16.5802  -27.7158  -46.1307 S.3       10 UNK        -0.2776 
      8 C8         16.3314  -29.4886  -46.4621 C.3       10 UNK         0.0316 
      9 C9         17.5699  -30.3109  -46.1350 C.ar      10 UNK        -0.0863 
     10 C10        17.5447  -31.2405  -45.0900 C.ar      10 UNK        -0.1009 
     11 C11        18.6758  -32.0071  -44.7930 C.ar      10 UNK        -0.0712 
     12 C12        19.8363  -31.8371  -45.5544 C.ar      10 UNK        -0.0894 
     13 C13        19.8844  -30.8874  -46.5790 C.ar      10 UNK        -0.0745 
     14 C14        18.7421  -30.1408  -46.8781 C.ar      10 UNK        -0.0972 
     15 C15        21.1850  -30.6441  -47.3322 C.3       10 UNK         0.0209 
     16 S16        21.9431  -29.0393  -46.9041 S.3       10 UNK        -0.2568 
     17 C17        22.1164  -29.1613  -45.0881 C.3       10 UNK        -0.0983 
     18 CA         22.1437  -27.7907  -44.3639 C.3       3 UNK         0.0876 
     19 N          21.0736  -26.8955  -44.8147 N.am      3 UNK        -0.4424 
     20 C          21.2012  -25.5740  -44.9904 C.2       2 UNK         0.4918 
     21 O          22.2293  -24.9455  -44.7394 O.2       2 UNK        -0.4875 
     22 CA         19.9678  -24.8185  -45.5212 C.3       2 UNK         0.0481 
     23 CB         20.0455  -24.6871  -47.0504 C.3       2 UNK        -0.1831 
     24 N          18.6857  -25.4310  -45.1550 N.am      2 UNK        -0.4498 
     25 C          18.2400  -25.5960  -43.9031 C.2       1 UNK         0.5027 
     26 O          18.8802  -25.2502  -42.9060 O.2       1 UNK        -0.4969 
     27 C          22.1335  -27.9898  -42.8307 C.2       3 UNK         0.5005 
     28 O          22.8093  -28.9041  -42.3465 O.2       3 UNK        -0.5279 
     29 N          21.3896  -27.1647  -42.0740 N.am      4 UNK        -0.4463 
     30 CA         21.2364  -27.2247  -40.6106 C.3       4 UNK         0.0283 
     31 CB         19.9875  -26.4306  -40.1914 C.3       4 UNK        -0.1875 
     32 C          22.4947  -26.8058  -39.8144 C.2       4 UNK         0.4949 
     33 O          22.3995  -26.0404  -38.8545 O.2       4 UNK        -0.5039 
     34 N          23.6479  -27.3315  -40.2300 N.am      5 UNK        -0.4663 
     35 CA         24.9793  -27.1711  -39.6506 C.3       5 UNK         0.0242 
     36 CB         25.4753  -25.7142  -39.7507 C.3       5 UNK        -0.1982 
     37 C          25.9427  -28.1235  -40.3687 C.2       5 UNK         0.5017 
     38 O          26.6920  -28.8421  -39.7084 O.2       5 UNK        -0.5012 
     39 N          25.8849  -28.1196  -41.7099 N.am      6 UNK        -0.4439 
     40 CA         26.6865  -28.9703  -42.5925 C.3       6 UNK         0.0297 
     41 CB         26.5665  -28.4626  -44.0394 C.3       6 UNK        -0.2006 
     42 C          26.3040  -30.4578  -42.5118 C.2       6 UNK         0.4892 
     43 O          27.1966  -31.3052  -42.4646 O.2       6 UNK        -0.5089 
     44 N          24.9950  -30.7392  -42.5000 N.am      7 UNK        -0.4243 
     45 CA         24.4280  -32.0819  -42.3666 C.3       7 UNK         0.0196 
     46 CB         23.4359  -32.3366  -43.5128 C.3       7 UNK        -0.2007 
     47 C          23.7480  -32.2403  -40.9998 C.2       7 UNK         0.5020 
     48 O          23.9899  -33.2437  -40.3304 O.2       7 UNK        -0.5147 
     49 N          22.9549  -31.2283  -40.6110 N.am      8 UNK        -0.4734 
     50 CA         22.2401  -31.0591  -39.3382 C.3       8 UNK         0.0238 
     51 CB         23.2496  -30.7031  -38.2268 C.3       8 UNK        -0.1912 
     52 C          21.3475  -32.2609  -38.9403 C.2       8 UNK         0.5038 
     53 O          21.8098  -33.1096  -38.1771 O.2       8 UNK        -0.5046 
     54 N          20.0929  -32.3915  -39.4027 N.am      9 UNK        -0.4200 
     55 CA         19.2387  -31.5036  -40.2178 C.3       9 UNK         0.0839 
     56 C          18.8293  -30.1768  -39.5155 C.2       9 UNK         0.5513 
     57 N          17.9445  -29.3974  -40.1216 N.am      9 UNK        -0.7519 
     58 O          19.2885  -29.8484  -38.4246 O.2       9 UNK        -0.4960 
     59 C59        19.7263  -31.3029  -41.6812 C.3       10 UNK        -0.0876 
     60 S60        20.0492  -32.8922  -42.5201 S.3       10 UNK        -0.2414 
     61 C61        18.6335  -33.0283  -43.6612 C.3       10 UNK         0.0169 
     62 H62        14.8209  -27.2384  -39.8645 H         1 UNK         0.0903 
     63 H63        16.1359  -26.0622  -39.8064 H         1 UNK         0.0903 
     64 H64        14.4727  -25.5146  -40.0217 H         1 UNK         0.0903 
     65 H65        17.3170  -25.9891  -41.7318 H         1 UNK         0.3096 
     66 H66        16.1357  -25.6611  -44.2553 H         1 UNK         0.1121 
     67 H67        16.0262  -28.2932  -43.8866 H         1 UNK         0.0849 
     68 H68        17.7552  -28.2688  -44.0806 H         1 UNK         0.0849 
     69 H69        15.4652  -29.8416  -45.9002 H         1 UNK         0.0865 
     70 H70        16.0845  -29.6203  -47.5165 H         1 UNK         0.0865 
     71 H71        16.6411  -31.3714  -44.5102 H         1 UNK         0.1346 
     72 H72        20.7157  -32.4229  -45.3244 H         1 UNK         0.1412 
     73 H73        18.7738  -29.4070  -47.6723 H         1 UNK         0.1426 
     74 H74        20.9920  -30.6706  -48.4055 H         1 UNK         0.0716 
     75 H75        21.9045  -31.4391  -47.1298 H         1 UNK         0.0716 
     76 H76        23.0361  -29.7129  -44.8874 H         1 UNK         0.0695 
     77 H77        21.3053  -29.7642  -44.6822 H         1 UNK         0.0695 
     78 H78        23.1051  -27.3292  -44.5993 H         1 UNK         0.0983 
     79 H79        20.2005  -27.3350  -45.0661 H         1 UNK         0.3095 
     80 H80        19.9883  -23.8151  -45.0909 H         1 UNK         0.0454 
     81 H81        20.0049  -25.6601  -47.5421 H         1 UNK         0.0851 
     82 H82        20.9773  -24.2079  -47.3544 H         1 UNK         0.0851 
     83 H83        19.2294  -24.0784  -47.4400 H         1 UNK         0.0851 
     84 H84        18.1100  -25.7743  -45.9134 H         1 UNK         0.2976 
     85 H85        20.8740  -26.4282  -42.5395 H         1 UNK         0.3116 
     86 H86        21.0427  -28.2640  -40.3535 H         1 UNK         0.0646 
     87 H87        19.0984  -26.8005  -40.6993 H         1 UNK         0.0847 
     88 H88        20.0910  -25.3684  -40.4161 H         1 UNK         0.0847 
     89 H89        19.8028  -26.5239  -39.1203 H         1 UNK         0.0847 
     90 H90        23.5765  -27.9924  -41.0004 H         1 UNK         0.3040 
     91 H91        24.9357  -27.4613  -38.5987 H         1 UNK         0.1015 
     92 H92        26.5034  -25.6274  -39.3961 H         1 UNK         0.0786 
     93 H93        24.8719  -25.0420  -39.1411 H         1 UNK         0.0786 
     94 H94        25.4505  -25.3455  -40.7766 H         1 UNK         0.0786 
     95 H95        25.2689  -27.4581  -42.1582 H         1 UNK         0.3172 
     96 H96        27.7311  -28.8782  -42.2870 H         1 UNK         0.0595 
     97 H97        25.5392  -28.5057  -44.4034 H         1 UNK         0.0839 
     98 H98        27.1747  -29.0664  -44.7145 H         1 UNK         0.0839 
     99 H99        26.9132  -27.4330  -44.1300 H         1 UNK         0.0839 
    100 H100       24.3314  -29.9711  -42.5195 H         1 UNK         0.2998 
    101 H101       25.2150  -32.8362  -42.4338 H         1 UNK         0.0822 
    102 H102       23.9210  -32.2467  -44.4848 H         1 UNK         0.0787 
    103 H103       23.0192  -33.3425  -43.4491 H         1 UNK         0.0787 
    104 H104       22.6014  -31.6363  -43.4890 H         1 UNK         0.0787 
    105 H105       22.8305  -30.4684  -41.2731 H         1 UNK         0.3055 
    106 H106       21.6020  -30.1912  -39.4552 H         1 UNK         0.1106 
    107 H107       23.9756  -31.5007  -38.0651 H         1 UNK         0.0828 
    108 H108       22.7393  -30.5288  -37.2787 H         1 UNK         0.0828 
    109 H109       23.8022  -29.7960  -38.4684 H         1 UNK         0.0828 
    110 H110       19.6015  -33.2135  -39.0862 H         1 UNK         0.2931 
    111 H111       18.3021  -32.0592  -40.2835 H         1 UNK         0.0412 
    112 H112       17.5163  -29.6631  -40.9935 H         1 UNK         0.3472 
    113 H113       17.6557  -28.5522  -39.6573 H         1 UNK         0.3472 
    114 H114       20.6266  -30.6934  -41.7214 H         1 UNK         0.0970 
    115 H115       18.9857  -30.7508  -42.2612 H         1 UNK         0.0970 
    116 H116       18.6328  -34.0282  -44.0966 H         1 UNK         0.0612 
    117 H117       17.7101  -32.9398  -43.0866 H         1 UNK         0.0612 
@<TRIPOS>BOND
     1    1    2 1    
     2    1   62 1    
     3    1   63 1    
     4    1   64 1    
     5    2    3 2    
     6    2    4 am   BACKBONE|DICT|INTERRES
     7    4    5 1    
     8    4   65 1    
     9    5    6 1    
    10    5   25 1    
    11    5   66 1    
    12    6    7 1    
    13    6   67 1    
    14    6   68 1    
    15    7    8 1    
    16    8    9 1    
    17    8   69 1    
    18    8   70 1    
    19    9   10 ar   
    20    9   14 ar   
    21   10   11 ar   
    22   10   71 1    
    23   11   12 ar   
    24   11   61 1    
    25   12   13 ar   
    26   12   72 1    
    27   13   14 ar   
    28   13   15 1    
    29   14   73 1    
    30   15   16 1    
    31   15   74 1    
    32   15   75 1    
    33   16   17 1    
    34   17   18 1    
    35   17   76 1    
    36   17   77 1    
    37   18   19 1    
    38   18   27 1    
    39   18   78 1    
    40   19   20 am   BACKBONE|DICT|INTERRES
    41   19   79 1    
    42   20   21 2    
    43   20   22 1    
    44   22   23 1    
    45   22   24 1    
    46   22   80 1    
    47   23   81 1    
    48   23   82 1    
    49   23   83 1    
    50   24   25 am   BACKBONE|DICT|INTERRES
    51   24   84 1    
    52   25   26 2    
    53   27   28 2    
    54   27   29 am   BACKBONE|DICT|INTERRES
    55   29   30 1    
    56   29   85 1    
    57   30   31 1    
    58   30   32 1    
    59   30   86 1    
    60   31   87 1    
    61   31   88 1    
    62   31   89 1    
    63   32   33 2    
    64   32   34 am   BACKBONE|DICT|INTERRES
    65   34   35 1    
    66   34   90 1    
    67   35   36 1    
    68   35   37 1    
    69   35   91 1    
    70   36   92 1    
    71   36   93 1    
    72   36   94 1    
    73   37   38 2    
    74   37   39 am   BACKBONE|DICT|INTERRES
    75   39   40 1    
    76   39   95 1    
    77   40   41 1    
    78   40   42 1    
    79   40   96 1    
    80   41   97 1    
    81   41   98 1    
    82   41   99 1    
    83   42   43 2    
    84   42   44 am   BACKBONE|DICT|INTERRES
    85   44   45 1    
    86   44  100 1    
    87   45   46 1    
    88   45   47 1    
    89   45  101 1    
    90   46  102 1    
    91   46  103 1    
    92   46  104 1    
    93   47   48 2    
    94   47   49 am   BACKBONE|DICT|INTERRES
    95   49   50 1    
    96   49  105 1    
    97   50   51 1    
    98   50   52 1    
    99   50  106 1    
   100   51  107 1    
   101   51  108 1    
   102   51  109 1    
   103   52   53 2    
   104   52   54 am   BACKBONE|DICT|INTERRES
   105   54   55 1    
   106   54  110 1    
   107   55   56 1    
   108   55   59 1    
   109   55  111 1    
   110   56   57 am   BACKBONE|DICT|INTERRES
   111   56   58 2    
   112   57  112 1    
   113   57  113 1    
   114   59   60 1    
   115   59  114 1    
   116   59  115 1    
   117   60   61 1    
   118   61  116 1    
   119   61  117 1    
@<TRIPOS>SUBSTRUCTURE
     1 UNK         1 GROUP             0       ****    0 ROOT    
