@<TRIPOS>MOLECULE
3R8
117   119    1
SMALL
USER_CHARGES


@<TRIPOS>ATOM
      1 CA         14.9983  -22.7864  -45.9541 C.3       0 UNK        -0.2013 
      2 C          16.5154  -22.8729  -46.0245 C.2       0 UNK         0.4866 
      3 O          17.1962  -21.8639  -45.8406 O.2       0 UNK        -0.5176 
      4 N          17.0520  -24.0717  -46.2870 N.am      1 UNK        -0.4884 
      5 CA         18.4928  -24.3446  -46.3885 C.3       1 UNK         0.0853 
      6 C6         18.7749  -25.6068  -47.2435 C.3       10 UNK        -0.0849 
      7 S7         17.9472  -27.1262  -46.6503 S.3       10 UNK        -0.2776 
      8 C8         19.3295  -27.9447  -45.7984 C.3       10 UNK         0.0316 
      9 C9         18.9367  -29.3170  -45.2755 C.ar      10 UNK        -0.0863 
     10 C10        19.4196  -30.4706  -45.8999 C.ar      10 UNK        -0.1009 
     11 C11        19.1090  -31.7379  -45.3982 C.ar      10 UNK        -0.0712 
     12 C12        18.2978  -31.8398  -44.2614 C.ar      10 UNK        -0.0894 
     13 C13        17.8185  -30.6942  -43.6202 C.ar      10 UNK        -0.0745 
     14 C14        18.1249  -29.4351  -44.1439 C.ar      10 UNK        -0.0972 
     15 C15        16.9829  -30.8287  -42.3559 C.3       10 UNK         0.0209 
     16 S16        18.0265  -30.7632  -40.8604 S.3       10 UNK        -0.2568 
     17 C17        17.9910  -28.9879  -40.4456 C.3       10 UNK        -0.0983 
     18 CA         19.1718  -28.1916  -41.0600 C.3       3 UNK         0.0876 
     19 N          18.7376  -26.8572  -41.4948 N.am      3 UNK        -0.4424 
     20 C          19.4758  -26.0065  -42.2174 C.2       2 UNK         0.4918 
     21 O          20.6223  -26.2565  -42.5907 O.2       2 UNK        -0.4875 
     22 CA         18.8275  -24.6463  -42.5230 C.3       2 UNK         0.0481 
     23 CB         19.7089  -23.4718  -42.0530 C.3       2 UNK        -0.1831 
     24 N          18.4348  -24.5182  -43.9302 N.am      2 UNK        -0.4498 
     25 C          19.2118  -24.4030  -45.0202 C.2       1 UNK         0.5027 
     26 O          20.4410  -24.3383  -44.9974 O.2       1 UNK        -0.4969 
     27 C          20.4056  -28.1467  -40.1314 C.2       3 UNK         0.5005 
     28 O          21.2651  -29.0240  -40.2149 O.2       3 UNK        -0.5279 
     29 N          20.5109  -27.0841  -39.3191 N.am      4 UNK        -0.4463 
     30 CA         21.6721  -26.7892  -38.4754 C.3       4 UNK         0.0283 
     31 CB         21.3159  -25.6560  -37.4999 C.3       4 UNK        -0.1875 
     32 C          22.9411  -26.4301  -39.2722 C.2       4 UNK         0.4949 
     33 O          24.0409  -26.6688  -38.7743 O.2       4 UNK        -0.5039 
     34 N          22.7787  -25.8713  -40.4816 N.am      5 UNK        -0.4663 
     35 CA         23.8829  -25.5785  -41.3993 C.3       5 UNK         0.0242 
     36 CB         23.4926  -24.4359  -42.3507 C.3       5 UNK        -0.1982 
     37 C          24.3044  -26.8279  -42.1874 C.2       5 UNK         0.5017 
     38 O          25.4977  -27.0011  -42.4369 O.2       5 UNK        -0.5012 
     39 N          23.3301  -27.6806  -42.5446 N.am      6 UNK        -0.4439 
     40 CA         23.5578  -28.9933  -43.1576 C.3       6 UNK         0.0297 
     41 CB         22.2259  -29.5935  -43.6362 C.3       6 UNK        -0.2006 
     42 C          24.2907  -29.9528  -42.2040 C.2       6 UNK         0.4892 
     43 O          25.2694  -30.5771  -42.6154 O.2       6 UNK        -0.5089 
     44 N          23.8228  -30.0114  -40.9472 N.am      7 UNK        -0.4243 
     45 CA         24.3924  -30.6723  -39.7649 C.3       7 UNK         0.0196 
     46 CB         25.7522  -30.0523  -39.3891 C.3       7 UNK        -0.2007 
     47 C          24.4859  -32.2064  -39.8394 C.2       7 UNK         0.5020 
     48 O          23.9962  -32.8845  -38.9363 O.2       7 UNK        -0.5147 
     49 N          25.1270  -32.7294  -40.8898 N.am      8 UNK        -0.4734 
     50 CA         25.3224  -34.1617  -41.1289 C.3       8 UNK         0.0238 
     51 CB         26.4949  -34.3539  -42.1043 C.3       8 UNK        -0.1912 
     52 C          24.0585  -34.8548  -41.6627 C.2       8 UNK         0.5038 
     53 O          23.8935  -36.0556  -41.4435 O.2       8 UNK        -0.5046 
     54 N          23.2023  -34.0943  -42.3565 N.am      9 UNK        -0.4200 
     55 CA         21.8981  -34.5425  -42.8552 C.3       9 UNK         0.0839 
     56 C          20.8810  -34.7357  -41.6960 C.2       9 UNK         0.5513 
     57 N          20.0984  -35.8057  -41.7233 N.am      9 UNK        -0.7519 
     58 O          20.7798  -33.9101  -40.7918 O.2       9 UNK        -0.4960 
     59 C59        21.3686  -33.5726  -43.9417 C.3       10 UNK        -0.0876 
     60 S60        20.1039  -34.3530  -45.0000 S.3       10 UNK        -0.2414 
     61 C61        19.6546  -32.9755  -46.1092 C.3       10 UNK         0.0169 
     62 H62        14.5255  -23.7518  -46.1335 H         1 UNK         0.0903 
     63 H63        14.6875  -22.4338  -44.9710 H         1 UNK         0.0903 
     64 H64        14.6280  -22.0842  -46.7005 H         1 UNK         0.0903 
     65 H65        16.4517  -24.8719  -46.4370 H         1 UNK         0.3096 
     66 H66        18.9462  -23.5010  -46.9148 H         1 UNK         0.1121 
     67 H67        19.8493  -25.7773  -47.3370 H         1 UNK         0.0849 
     68 H68        18.4288  -25.4280  -48.2628 H         1 UNK         0.0849 
     69 H69        20.1763  -28.0279  -46.4815 H         1 UNK         0.0865 
     70 H70        19.6696  -27.3266  -44.9674 H         1 UNK         0.0865 
     71 H71        20.0477  -30.3815  -46.7759 H         1 UNK         0.1346 
     72 H72        18.0510  -32.8129  -43.8602 H         1 UNK         0.1412 
     73 H73        17.7490  -28.5443  -43.6603 H         1 UNK         0.1426 
     74 H74        16.4543  -31.7831  -42.3647 H         1 UNK         0.0716 
     75 H75        16.2086  -30.0613  -42.3256 H         1 UNK         0.0716 
     76 H76        17.0349  -28.5886  -40.7866 H         1 UNK         0.0695 
     77 H77        17.9635  -28.8858  -39.3588 H         1 UNK         0.0695 
     78 H78        19.5088  -28.7054  -41.9610 H         1 UNK         0.0983 
     79 H79        17.8090  -26.5757  -41.2145 H         1 UNK         0.3095 
     80 H80        17.8972  -24.5846  -41.9561 H         1 UNK         0.0454 
     81 H81        19.9165  -23.5430  -40.9848 H         1 UNK         0.0851 
     82 H82        19.2154  -22.5153  -42.2239 H         1 UNK         0.0851 
     83 H83        20.6698  -23.4450  -42.5650 H         1 UNK         0.0851 
     84 H84        17.4409  -24.5695  -44.1037 H         1 UNK         0.2976 
     85 H85        19.7576  -26.4118  -39.3097 H         1 UNK         0.3116 
     86 H86        21.8963  -27.6843  -37.8910 H         1 UNK         0.0646 
     87 H87        21.0647  -24.7332  -38.0244 H         1 UNK         0.0847 
     88 H88        20.4701  -25.9259  -36.8673 H         1 UNK         0.0847 
     89 H89        22.1542  -25.4349  -36.8375 H         1 UNK         0.0847 
     90 H90        21.8441  -25.7465  -40.8466 H         1 UNK         0.3040 
     91 H91        24.7461  -25.2464  -40.8173 H         1 UNK         0.1015 
     92 H92        24.3422  -24.1425  -42.9686 H         1 UNK         0.0786 
     93 H93        23.1720  -23.5511  -41.8008 H         1 UNK         0.0786 
     94 H94        22.6889  -24.7232  -43.0290 H         1 UNK         0.0786 
     95 H95        22.3707  -27.4131  -42.3565 H         1 UNK         0.3172 
     96 H96        24.1920  -28.8423  -44.0336 H         1 UNK         0.0595 
     97 H97        21.5487  -29.8105  -42.8101 H         1 UNK         0.0839 
     98 H98        22.3913  -30.5278  -44.1736 H         1 UNK         0.0839 
     99 H99        21.7140  -28.9166  -44.3189 H         1 UNK         0.0839 
    100 H100       22.9509  -29.5182  -40.7571 H         1 UNK         0.2998 
    101 H101       23.6991  -30.4450  -38.9530 H         1 UNK         0.0822 
    102 H102       26.1383  -30.4881  -38.4667 H         1 UNK         0.0787 
    103 H103       25.6633  -28.9777  -39.2277 H         1 UNK         0.0787 
    104 H104       26.5031  -30.2117  -40.1635 H         1 UNK         0.0787 
    105 H105       25.4594  -32.0786  -41.6000 H         1 UNK         0.3055 
    106 H106       25.5816  -34.6404  -40.1817 H         1 UNK         0.1106 
    107 H107       26.3013  -33.8807  -43.0678 H         1 UNK         0.0828 
    108 H108       27.4170  -33.9328  -41.7032 H         1 UNK         0.0828 
    109 H109       26.6783  -35.4130  -42.2911 H         1 UNK         0.0828 
    110 H110       23.4086  -33.1113  -42.4435 H         1 UNK         0.2931 
    111 H111       22.0670  -35.5126  -43.3285 H         1 UNK         0.0412 
    112 H112       19.4251  -35.9417  -40.9856 H         1 UNK         0.3472 
    113 H113       20.1615  -36.4737  -42.4760 H         1 UNK         0.3472 
    114 H114       20.9719  -32.6611  -43.4902 H         1 UNK         0.0970 
    115 H115       22.1832  -33.2581  -44.5962 H         1 UNK         0.0970 
    116 H116       18.9014  -33.3293  -46.8141 H         1 UNK         0.0612 
    117 H117       20.5346  -32.7162  -46.7000 H         1 UNK         0.0612 
@<TRIPOS>BOND
     1    1    2 1    
     2    1   62 1    
     3    1   63 1    
     4    1   64 1    
     5    2    3 2    
     6    2    4 am   BACKBONE|DICT|INTERRES
     7    4    5 1    
     8    4   65 1    
     9    5    6 1    
    10    5   25 1    
    11    5   66 1    
    12    6    7 1    
    13    6   67 1    
    14    6   68 1    
    15    7    8 1    
    16    8    9 1    
    17    8   69 1    
    18    8   70 1    
    19    9   10 ar   
    20    9   14 ar   
    21   10   11 ar   
    22   10   71 1    
    23   11   12 ar   
    24   11   61 1    
    25   12   13 ar   
    26   12   72 1    
    27   13   14 ar   
    28   13   15 1    
    29   14   73 1    
    30   15   16 1    
    31   15   74 1    
    32   15   75 1    
    33   16   17 1    
    34   17   18 1    
    35   17   76 1    
    36   17   77 1    
    37   18   19 1    
    38   18   27 1    
    39   18   78 1    
    40   19   20 am   BACKBONE|DICT|INTERRES
    41   19   79 1    
    42   20   21 2    
    43   20   22 1    
    44   22   23 1    
    45   22   24 1    
    46   22   80 1    
    47   23   81 1    
    48   23   82 1    
    49   23   83 1    
    50   24   25 am   BACKBONE|DICT|INTERRES
    51   24   84 1    
    52   25   26 2    
    53   27   28 2    
    54   27   29 am   BACKBONE|DICT|INTERRES
    55   29   30 1    
    56   29   85 1    
    57   30   31 1    
    58   30   32 1    
    59   30   86 1    
    60   31   87 1    
    61   31   88 1    
    62   31   89 1    
    63   32   33 2    
    64   32   34 am   BACKBONE|DICT|INTERRES
    65   34   35 1    
    66   34   90 1    
    67   35   36 1    
    68   35   37 1    
    69   35   91 1    
    70   36   92 1    
    71   36   93 1    
    72   36   94 1    
    73   37   38 2    
    74   37   39 am   BACKBONE|DICT|INTERRES
    75   39   40 1    
    76   39   95 1    
    77   40   41 1    
    78   40   42 1    
    79   40   96 1    
    80   41   97 1    
    81   41   98 1    
    82   41   99 1    
    83   42   43 2    
    84   42   44 am   BACKBONE|DICT|INTERRES
    85   44   45 1    
    86   44  100 1    
    87   45   46 1    
    88   45   47 1    
    89   45  101 1    
    90   46  102 1    
    91   46  103 1    
    92   46  104 1    
    93   47   48 2    
    94   47   49 am   BACKBONE|DICT|INTERRES
    95   49   50 1    
    96   49  105 1    
    97   50   51 1    
    98   50   52 1    
    99   50  106 1    
   100   51  107 1    
   101   51  108 1    
   102   51  109 1    
   103   52   53 2    
   104   52   54 am   BACKBONE|DICT|INTERRES
   105   54   55 1    
   106   54  110 1    
   107   55   56 1    
   108   55   59 1    
   109   55  111 1    
   110   56   57 am   BACKBONE|DICT|INTERRES
   111   56   58 2    
   112   57  112 1    
   113   57  113 1    
   114   59   60 1    
   115   59  114 1    
   116   59  115 1    
   117   60   61 1    
   118   61  116 1    
   119   61  117 1    
@<TRIPOS>SUBSTRUCTURE
     1 UNK         1 GROUP             0       ****    0 ROOT    
