@<TRIPOS>MOLECULE
3R8
117   119    1
SMALL
USER_CHARGES


@<TRIPOS>ATOM
      1 CA         16.7018  -24.6990  -40.4086 C.3       0 UNK        -0.2013 
      2 C          17.1064  -24.4868  -41.8597 C.2       0 UNK         0.4866 
      3 O          17.2796  -23.3446  -42.2869 O.2       0 UNK        -0.5176 
      4 N          17.2477  -25.5784  -42.6215 N.am      1 UNK        -0.4884 
      5 CA         17.6922  -25.5796  -44.0210 C.3       1 UNK         0.0853 
      6 C6         17.4407  -26.9474  -44.7064 C.3       10 UNK        -0.0849 
      7 S7         15.7397  -27.5866  -44.4923 S.3       10 UNK        -0.2776 
      8 C8         15.7442  -29.0837  -45.5387 C.3       10 UNK         0.0316 
      9 C9         16.8755  -30.0355  -45.1737 C.ar      10 UNK        -0.0863 
     10 C10        16.7333  -30.9539  -44.1304 C.ar      10 UNK        -0.1009 
     11 C11        17.8000  -31.7838  -43.7717 C.ar      10 UNK        -0.0712 
     12 C12        19.0176  -31.6788  -44.4538 C.ar      10 UNK        -0.0894 
     13 C13        19.1772  -30.7615  -45.4984 C.ar      10 UNK        -0.0745 
     14 C14        18.0832  -29.9698  -45.8712 C.ar      10 UNK        -0.0972 
     15 C15        20.5428  -30.6438  -46.1807 C.3       10 UNK         0.0209 
     16 S16        20.7968  -29.0788  -47.0948 S.3       10 UNK        -0.2568 
     17 C17        22.5375  -28.6690  -46.7322 C.3       10 UNK        -0.0983 
     18 CA         22.7207  -27.5713  -45.6511 C.3       3 UNK         0.0876 
     19 N          21.8348  -26.4187  -45.8407 N.am      3 UNK        -0.4424 
     20 C          22.0707  -25.1974  -45.3443 C.2       2 UNK         0.4918 
     21 O          23.0996  -24.8877  -44.7438 O.2       2 UNK        -0.4875 
     22 CA         20.9586  -24.1477  -45.5257 C.3       2 UNK         0.0481 
     23 CB         21.0277  -23.5264  -46.9299 C.3       2 UNK        -0.1831 
     24 N          19.6001  -24.6484  -45.2725 N.am      2 UNK        -0.4498 
     25 C          19.1879  -25.1984  -44.1201 C.2       1 UNK         0.5027 
     26 O          19.9433  -25.4384  -43.1740 O.2       1 UNK        -0.4969 
     27 C          22.6175  -28.1357  -44.2218 C.2       3 UNK         0.5005 
     28 O          23.6521  -28.4130  -43.6145 O.2       3 UNK        -0.5279 
     29 N          21.3896  -28.2588  -43.6909 N.am      4 UNK        -0.4463 
     30 CA         21.0891  -28.7864  -42.3517 C.3       4 UNK         0.0283 
     31 CB         19.5734  -28.7917  -42.1095 C.3       4 UNK        -0.1875 
     32 C          21.7823  -28.0227  -41.2142 C.2       4 UNK         0.4949 
     33 O          22.1731  -28.6400  -40.2259 O.2       4 UNK        -0.5039 
     34 N          21.9703  -26.7092  -41.3950 N.am      5 UNK        -0.4663 
     35 CA         22.7185  -25.8303  -40.4929 C.3       5 UNK         0.0242 
     36 CB         22.6152  -24.3873  -41.0122 C.3       5 UNK        -0.1982 
     37 C          24.1959  -26.2281  -40.2900 C.2       5 UNK         0.5017 
     38 O          24.7740  -25.8446  -39.2722 O.2       5 UNK        -0.5012 
     39 N          24.7736  -26.9797  -41.2386 N.am      6 UNK        -0.4439 
     40 CA         26.1359  -27.5098  -41.1747 C.3       6 UNK         0.0297 
     41 CB         26.9080  -27.0693  -42.4298 C.3       6 UNK        -0.2006 
     42 C          26.1445  -29.0419  -41.0504 C.2       6 UNK         0.4892 
     43 O          26.9009  -29.5746  -40.2378 O.2       6 UNK        -0.5089 
     44 N          25.3351  -29.7249  -41.8706 N.am      7 UNK        -0.4243 
     45 CA         25.3369  -31.1817  -42.0213 C.3       7 UNK         0.0196 
     46 CB         24.8057  -31.5286  -43.4232 C.3       7 UNK        -0.2007 
     47 C          24.5225  -31.9332  -40.9556 C.2       7 UNK         0.5020 
     48 O          24.7516  -33.1314  -40.7841 O.2       7 UNK        -0.5147 
     49 N          23.5819  -31.2447  -40.2902 N.am      8 UNK        -0.4734 
     50 CA         22.5372  -31.7888  -39.4088 C.3       8 UNK         0.0238 
     51 CB         23.1503  -32.5304  -38.1986 C.3       8 UNK        -0.1912 
     52 C          21.5020  -32.6411  -40.1759 C.2       8 UNK         0.5038 
     53 O          21.5402  -32.7113  -41.4076 O.2       8 UNK        -0.5046 
     54 N          20.5745  -33.2496  -39.4291 N.am      9 UNK        -0.4200 
     55 CA         19.5281  -34.1510  -39.9304 C.3       9 UNK         0.0839 
     56 C          19.4953  -35.4435  -39.0773 C.2       9 UNK         0.5513 
     57 N          19.0878  -36.5617  -39.6611 N.am      9 UNK        -0.7519 
     58 O          19.8042  -35.4373  -37.8865 O.2       9 UNK        -0.4960 
     59 C59        18.1280  -33.4778  -39.9583 C.3       10 UNK        -0.0876 
     60 S60        18.0563  -32.0097  -41.0375 S.3       10 UNK        -0.2414 
     61 C61        17.6483  -32.7788  -42.6326 C.3       10 UNK         0.0169 
     62 H62        16.5675  -25.7545  -40.1726 H         1 UNK         0.0903 
     63 H63        17.4672  -24.2982  -39.7445 H         1 UNK         0.0903 
     64 H64        15.7648  -24.1830  -40.2004 H         1 UNK         0.0903 
     65 H65        17.0748  -26.4899  -42.2238 H         1 UNK         0.3096 
     66 H66        17.1137  -24.8178  -44.5486 H         1 UNK         0.1121 
     67 H67        17.6474  -26.8781  -45.7761 H         1 UNK         0.0849 
     68 H68        18.1282  -27.6934  -44.3099 H         1 UNK         0.0849 
     69 H69        14.7851  -29.5931  -45.4340 H         1 UNK         0.0865 
     70 H70        15.8164  -28.7889  -46.5868 H         1 UNK         0.0865 
     71 H71        15.8006  -31.0097  -43.5855 H         1 UNK         0.1346 
     72 H72        19.8504  -32.3004  -44.1524 H         1 UNK         0.1412 
     73 H73        18.1688  -29.2628  -46.6833 H         1 UNK         0.1426 
     74 H74        20.6700  -31.4786  -46.8708 H         1 UNK         0.0716 
     75 H75        21.3210  -30.7456  -45.4227 H         1 UNK         0.0716 
     76 H76        23.0968  -29.5730  -46.4828 H         1 UNK         0.0695 
     77 H77        22.9743  -28.3134  -47.6666 H         1 UNK         0.0695 
     78 H78        23.7475  -27.2105  -45.7515 H         1 UNK         0.0983 
     79 H79        20.9769  -26.5920  -46.3440 H         1 UNK         0.3095 
     80 H80        21.1450  -23.3534  -44.7998 H         1 UNK         0.0454 
     81 H81        22.0246  -23.1326  -47.1337 H         1 UNK         0.0851 
     82 H82        20.8008  -24.2552  -47.7089 H         1 UNK         0.0851 
     83 H83        20.3289  -22.6961  -47.0323 H         1 UNK         0.0851 
     84 H84        18.9243  -24.4966  -46.0080 H         1 UNK         0.2976 
     85 H85        20.6012  -27.9866  -44.2571 H         1 UNK         0.3116 
     86 H86        21.4436  -29.8192  -42.3237 H         1 UNK         0.0646 
     87 H87        19.3395  -29.2479  -41.1469 H         1 UNK         0.0847 
     88 H88        19.0452  -29.3639  -42.8688 H         1 UNK         0.0847 
     89 H89        19.1616  -27.7834  -42.0936 H         1 UNK         0.0847 
     90 H90        21.5403  -26.2746  -42.2062 H         1 UNK         0.3040 
     91 H91        22.2365  -25.8807  -39.5143 H         1 UNK         0.1015 
     92 H92        21.5760  -24.0648  -41.0844 H         1 UNK         0.0786 
     93 H93        23.0665  -24.2832  -41.9997 H         1 UNK         0.0786 
     94 H94        23.1252  -23.6921  -40.3438 H         1 UNK         0.0786 
     95 H95        24.2110  -27.2683  -42.0325 H         1 UNK         0.3172 
     96 H96        26.6615  -27.1102  -40.3050 H         1 UNK         0.0595 
     97 H97        27.9267  -27.4594  -42.4195 H         1 UNK         0.0839 
     98 H98        26.9781  -25.9830  -42.4882 H         1 UNK         0.0839 
     99 H99        26.4316  -27.4220  -43.3457 H         1 UNK         0.0839 
    100 H100       24.7379  -29.2122  -42.5195 H         1 UNK         0.2998 
    101 H101       26.3680  -31.5359  -41.9536 H         1 UNK         0.0822 
    102 H102       23.7646  -31.2250  -43.5438 H         1 UNK         0.0787 
    103 H103       25.3904  -31.0411  -44.2036 H         1 UNK         0.0787 
    104 H104       24.8533  -32.6032  -43.6045 H         1 UNK         0.0787 
    105 H105       23.4646  -30.2625  -40.5135 H         1 UNK         0.3055 
    106 H106       21.9911  -30.9271  -39.0232 H         1 UNK         0.1106 
    107 H107       23.5615  -33.5006  -38.4788 H         1 UNK         0.0828 
    108 H108       23.9507  -31.9480  -37.7423 H         1 UNK         0.0828 
    109 H109       22.4063  -32.7077  -37.4216 H         1 UNK         0.0828 
    110 H110       20.6281  -33.1871  -38.4223 H         1 UNK         0.2931 
    111 H111       19.7791  -34.4567  -40.9481 H         1 UNK         0.0412 
    112 H112       19.0479  -37.4109  -39.1186 H         1 UNK         0.3472 
    113 H113       18.8263  -36.5784  -40.6350 H         1 UNK         0.3472 
    114 H114       17.8380  -33.1686  -38.9524 H         1 UNK         0.0970 
    115 H115       17.3641  -34.1863  -40.2846 H         1 UNK         0.0970 
    116 H116       18.3011  -33.6366  -42.8011 H         1 UNK         0.0612 
    117 H117       16.6283  -33.1645  -42.5999 H         1 UNK         0.0612 
@<TRIPOS>BOND
     1    1    2 1    
     2    1   62 1    
     3    1   63 1    
     4    1   64 1    
     5    2    3 2    
     6    2    4 am   BACKBONE|DICT|INTERRES
     7    4    5 1    
     8    4   65 1    
     9    5    6 1    
    10    5   25 1    
    11    5   66 1    
    12    6    7 1    
    13    6   67 1    
    14    6   68 1    
    15    7    8 1    
    16    8    9 1    
    17    8   69 1    
    18    8   70 1    
    19    9   10 ar   
    20    9   14 ar   
    21   10   11 ar   
    22   10   71 1    
    23   11   12 ar   
    24   11   61 1    
    25   12   13 ar   
    26   12   72 1    
    27   13   14 ar   
    28   13   15 1    
    29   14   73 1    
    30   15   16 1    
    31   15   74 1    
    32   15   75 1    
    33   16   17 1    
    34   17   18 1    
    35   17   76 1    
    36   17   77 1    
    37   18   19 1    
    38   18   27 1    
    39   18   78 1    
    40   19   20 am   BACKBONE|DICT|INTERRES
    41   19   79 1    
    42   20   21 2    
    43   20   22 1    
    44   22   23 1    
    45   22   24 1    
    46   22   80 1    
    47   23   81 1    
    48   23   82 1    
    49   23   83 1    
    50   24   25 am   BACKBONE|DICT|INTERRES
    51   24   84 1    
    52   25   26 2    
    53   27   28 2    
    54   27   29 am   BACKBONE|DICT|INTERRES
    55   29   30 1    
    56   29   85 1    
    57   30   31 1    
    58   30   32 1    
    59   30   86 1    
    60   31   87 1    
    61   31   88 1    
    62   31   89 1    
    63   32   33 2    
    64   32   34 am   BACKBONE|DICT|INTERRES
    65   34   35 1    
    66   34   90 1    
    67   35   36 1    
    68   35   37 1    
    69   35   91 1    
    70   36   92 1    
    71   36   93 1    
    72   36   94 1    
    73   37   38 2    
    74   37   39 am   BACKBONE|DICT|INTERRES
    75   39   40 1    
    76   39   95 1    
    77   40   41 1    
    78   40   42 1    
    79   40   96 1    
    80   41   97 1    
    81   41   98 1    
    82   41   99 1    
    83   42   43 2    
    84   42   44 am   BACKBONE|DICT|INTERRES
    85   44   45 1    
    86   44  100 1    
    87   45   46 1    
    88   45   47 1    
    89   45  101 1    
    90   46  102 1    
    91   46  103 1    
    92   46  104 1    
    93   47   48 2    
    94   47   49 am   BACKBONE|DICT|INTERRES
    95   49   50 1    
    96   49  105 1    
    97   50   51 1    
    98   50   52 1    
    99   50  106 1    
   100   51  107 1    
   101   51  108 1    
   102   51  109 1    
   103   52   53 2    
   104   52   54 am   BACKBONE|DICT|INTERRES
   105   54   55 1    
   106   54  110 1    
   107   55   56 1    
   108   55   59 1    
   109   55  111 1    
   110   56   57 am   BACKBONE|DICT|INTERRES
   111   56   58 2    
   112   57  112 1    
   113   57  113 1    
   114   59   60 1    
   115   59  114 1    
   116   59  115 1    
   117   60   61 1    
   118   61  116 1    
   119   61  117 1    
@<TRIPOS>SUBSTRUCTURE
     1 UNK         1 GROUP             0       ****    0 ROOT    
