@<TRIPOS>MOLECULE
3R8
117   119    1
SMALL
USER_CHARGES


@<TRIPOS>ATOM
      1 CA         16.1695  -22.8989  -45.8226 C.3       0 UNK        -0.2013 
      2 C          17.3023  -23.7941  -46.3014 C.2       0 UNK         0.4866 
      3 O          18.0869  -23.3858  -47.1576 O.2       0 UNK        -0.5176 
      4 N          17.3984  -25.0121  -45.7528 N.am      1 UNK        -0.4884 
      5 CA         18.3981  -26.0235  -46.1284 C.3       1 UNK         0.0853 
      6 C6         18.0067  -27.4468  -45.6470 C.3       10 UNK        -0.0849 
      7 S7         16.2699  -27.9436  -45.9166 S.3       10 UNK        -0.2776 
      8 C8         16.3556  -29.7700  -45.8057 C.3       10 UNK         0.0316 
      9 C9         17.3734  -30.2638  -44.7818 C.ar      10 UNK        -0.0863 
     10 C10        18.5844  -30.8154  -45.2166 C.ar      10 UNK        -0.1009 
     11 C11        19.5539  -31.2114  -44.2934 C.ar      10 UNK        -0.0712 
     12 C12        19.3069  -31.0467  -42.9318 C.ar      10 UNK        -0.0894 
     13 C13        18.1024  -30.5117  -42.4757 C.ar      10 UNK        -0.0745 
     14 C14        17.1265  -30.1366  -43.4090 C.ar      10 UNK        -0.0972 
     15 C15        17.9068  -30.3631  -40.9689 C.3       10 UNK         0.0209 
     16 S16        17.0082  -28.8662  -40.4439 S.3       10 UNK        -0.2568 
     17 C17        17.8323  -27.4615  -41.2769 C.3       10 UNK        -0.0983 
     18 CA         19.3758  -27.4804  -41.4615 C.3       3 UNK         0.0876 
     19 N          19.7594  -26.3193  -42.2639 N.am      3 UNK        -0.4424 
     20 C          20.9760  -25.9384  -42.6781 C.2       2 UNK         0.4918 
     21 O          22.0287  -26.5164  -42.3953 O.2       2 UNK        -0.4875 
     22 CA         20.9698  -24.6936  -43.5932 C.3       2 UNK         0.0481 
     23 CB         22.3387  -24.3673  -44.2234 C.3       2 UNK        -0.1831 
     24 N          19.9026  -24.8030  -44.6010 N.am      2 UNK        -0.4498 
     25 C          19.8114  -25.7222  -45.5788 C.2       1 UNK         0.5027 
     26 O          20.7591  -26.3982  -45.9799 O.2       1 UNK        -0.4969 
     27 C          20.1358  -27.5043  -40.1217 C.2       3 UNK         0.5005 
     28 O          19.9008  -26.6360  -39.2788 O.2       3 UNK        -0.5279 
     29 N          21.0623  -28.4651  -39.9813 N.am      4 UNK        -0.4463 
     30 CA         21.9705  -28.6821  -38.8465 C.3       4 UNK         0.0283 
     31 CB         21.1938  -28.9248  -37.5356 C.3       4 UNK        -0.1875 
     32 C          23.0679  -27.6091  -38.6921 C.2       4 UNK         0.4949 
     33 O          23.8270  -27.6715  -37.7245 O.2       4 UNK        -0.5039 
     34 N          23.1644  -26.6724  -39.6447 N.am      5 UNK        -0.4663 
     35 CA         24.2113  -25.6540  -39.7144 C.3       5 UNK         0.0242 
     36 CB         23.5929  -24.2932  -40.0775 C.3       5 UNK        -0.1982 
     37 C          25.2812  -26.0722  -40.7301 C.2       5 UNK         0.5017 
     38 O          26.4632  -26.0892  -40.3855 O.2       5 UNK        -0.5012 
     39 N          24.8493  -26.4271  -41.9492 N.am      6 UNK        -0.4439 
     40 CA         25.7150  -26.9683  -42.9989 C.3       6 UNK         0.0297 
     41 CB         25.1588  -26.5985  -44.3822 C.3       6 UNK        -0.2006 
     42 C          25.8579  -28.4906  -42.8706 C.2       6 UNK         0.4892 
     43 O          26.9682  -29.0069  -43.0025 O.2       6 UNK        -0.5089 
     44 N          24.7386  -29.1761  -42.6099 N.am      7 UNK        -0.4243 
     45 CA         24.6508  -30.6211  -42.4374 C.3       7 UNK         0.0196 
     46 CB         24.6956  -31.3265  -43.8065 C.3       7 UNK        -0.2007 
     47 C          23.3478  -30.9451  -41.7048 C.2       7 UNK         0.5020 
     48 O          22.3770  -30.1918  -41.8199 O.2       7 UNK        -0.5147 
     49 N          23.3426  -32.0691  -40.9809 N.am      8 UNK        -0.4734 
     50 CA         22.1715  -32.5815  -40.2630 C.3       8 UNK         0.0238 
     51 CB         22.6384  -33.2832  -38.9773 C.3       8 UNK        -0.1912 
     52 C          21.3135  -33.5345  -41.1140 C.2       8 UNK         0.5038 
     53 O          20.1494  -33.7380  -40.7705 O.2       8 UNK        -0.5046 
     54 N          21.8864  -34.0929  -42.1932 N.am      9 UNK        -0.4200 
     55 CA         21.2547  -35.0679  -43.1055 C.3       9 UNK         0.0839 
     56 C          20.8531  -36.4196  -42.4311 C.2       9 UNK         0.5513 
     57 N          21.4374  -36.7886  -41.2970 N.am      9 UNK        -0.7519 
     58 O          20.0327  -37.1686  -42.9558 O.2       9 UNK        -0.4960 
     59 C59        20.1148  -34.4349  -43.9634 C.3       10 UNK        -0.0876 
     60 S60        20.7461  -33.4838  -45.3905 S.3       10 UNK        -0.2414 
     61 C61        20.8851  -31.7853  -44.7535 C.3       10 UNK         0.0169 
     62 H62        15.5574  -23.3856  -45.0634 H         1 UNK         0.0903 
     63 H63        16.5709  -21.9796  -45.3970 H         1 UNK         0.0903 
     64 H64        15.5233  -22.6332  -46.6588 H         1 UNK         0.0903 
     65 H65        16.7033  -25.3164  -45.0848 H         1 UNK         0.3096 
     66 H66        18.4707  -26.0385  -47.2184 H         1 UNK         0.1121 
     67 H67        18.1999  -27.5594  -44.5781 H         1 UNK         0.0849 
     68 H68        18.6491  -28.1746  -46.1462 H         1 UNK         0.0849 
     69 H69        15.3677  -30.1577  -45.5533 H         1 UNK         0.0865 
     70 H70        16.5902  -30.1671  -46.7946 H         1 UNK         0.0865 
     71 H71        18.7842  -30.9213  -46.2743 H         1 UNK         0.1346 
     72 H72        20.0643  -31.3322  -42.2192 H         1 UNK         0.1412 
     73 H73        16.1899  -29.7136  -43.0726 H         1 UNK         0.1426 
     74 H74        18.8681  -30.3784  -40.4532 H         1 UNK         0.0716 
     75 H75        17.3601  -31.2354  -40.6086 H         1 UNK         0.0716 
     76 H76        17.5360  -26.5585  -40.7393 H         1 UNK         0.0695 
     77 H77        17.3582  -27.3781  -42.2561 H         1 UNK         0.0695 
     78 H78        19.6598  -28.3577  -42.0424 H         1 UNK         0.0983 
     79 H79        18.9889  -25.7269  -42.5304 H         1 UNK         0.3095 
     80 H80        20.7027  -23.8511  -42.9537 H         1 UNK         0.0454 
     81 H81        22.6930  -25.1670  -44.8708 H         1 UNK         0.0851 
     82 H82        23.0978  -24.2099  -43.4573 H         1 UNK         0.0851 
     83 H83        22.2894  -23.4566  -44.8197 H         1 UNK         0.0851 
     84 H84        19.0648  -24.2713  -44.4099 H         1 UNK         0.2976 
     85 H85        21.2589  -29.0696  -40.7777 H         1 UNK         0.3116 
     86 H86        22.5043  -29.6053  -39.0730 H         1 UNK         0.0646 
     87 H87        20.6968  -28.0211  -37.1826 H         1 UNK         0.0847 
     88 H88        21.8639  -29.2536  -36.7404 H         1 UNK         0.0847 
     89 H89        20.4369  -29.6992  -37.6596 H         1 UNK         0.0847 
     90 H90        22.5186  -26.7144  -40.4247 H         1 UNK         0.3040 
     91 H91        24.6999  -25.5470  -38.7430 H         1 UNK         0.1015 
     92 H92        23.0707  -24.3180  -41.0329 H         1 UNK         0.0786 
     93 H93        24.3614  -23.5220  -40.1453 H         1 UNK         0.0786 
     94 H94        22.8790  -23.9726  -39.3185 H         1 UNK         0.0786 
     95 H95        23.8507  -26.4011  -42.1429 H         1 UNK         0.3172 
     96 H96        26.7103  -26.5267  -42.9131 H         1 UNK         0.0595 
     97 H97        24.1560  -26.9989  -44.5369 H         1 UNK         0.0839 
     98 H98        25.7929  -26.9971  -45.1753 H         1 UNK         0.0839 
     99 H99        25.1204  -25.5176  -44.5157 H         1 UNK         0.0839 
    100 H100       23.8583  -28.6887  -42.4946 H         1 UNK         0.2998 
    101 H101       25.4891  -30.9558  -41.8223 H         1 UNK         0.0822 
    102 H102       25.6492  -31.1610  -44.3079 H         1 UNK         0.0787 
    103 H103       24.5715  -32.4049  -43.7026 H         1 UNK         0.0787 
    104 H104       23.9068  -30.9673  -44.4685 H         1 UNK         0.0787 
    105 H105       24.1893  -32.6184  -40.9223 H         1 UNK         0.3055 
    106 H106       21.5269  -31.7485  -39.9727 H         1 UNK         0.1106 
    107 H107       21.7883  -33.6619  -38.4076 H         1 UNK         0.0828 
    108 H108       23.2917  -34.1303  -39.1894 H         1 UNK         0.0828 
    109 H109       23.1796  -32.5962  -38.3265 H         1 UNK         0.0828 
    110 H110       22.8496  -33.8707  -42.3919 H         1 UNK         0.2931 
    111 H111       22.0474  -35.3647  -43.7934 H         1 UNK         0.0412 
    112 H112       21.1828  -37.6682  -40.8753 H         1 UNK         0.3472 
    113 H113       22.1278  -36.2004  -40.8598 H         1 UNK         0.3472 
    114 H114       19.4763  -35.2044  -44.3993 H         1 UNK         0.0970 
    115 H115       19.4446  -33.8280  -43.3554 H         1 UNK         0.0970 
    116 H116       21.6103  -31.7776  -43.9411 H         1 UNK         0.0612 
    117 H117       21.2992  -31.1482  -45.5360 H         1 UNK         0.0612 
@<TRIPOS>BOND
     1    1    2 1    
     2    1   62 1    
     3    1   63 1    
     4    1   64 1    
     5    2    3 2    
     6    2    4 am   BACKBONE|DICT|INTERRES
     7    4    5 1    
     8    4   65 1    
     9    5    6 1    
    10    5   25 1    
    11    5   66 1    
    12    6    7 1    
    13    6   67 1    
    14    6   68 1    
    15    7    8 1    
    16    8    9 1    
    17    8   69 1    
    18    8   70 1    
    19    9   10 ar   
    20    9   14 ar   
    21   10   11 ar   
    22   10   71 1    
    23   11   12 ar   
    24   11   61 1    
    25   12   13 ar   
    26   12   72 1    
    27   13   14 ar   
    28   13   15 1    
    29   14   73 1    
    30   15   16 1    
    31   15   74 1    
    32   15   75 1    
    33   16   17 1    
    34   17   18 1    
    35   17   76 1    
    36   17   77 1    
    37   18   19 1    
    38   18   27 1    
    39   18   78 1    
    40   19   20 am   BACKBONE|DICT|INTERRES
    41   19   79 1    
    42   20   21 2    
    43   20   22 1    
    44   22   23 1    
    45   22   24 1    
    46   22   80 1    
    47   23   81 1    
    48   23   82 1    
    49   23   83 1    
    50   24   25 am   BACKBONE|DICT|INTERRES
    51   24   84 1    
    52   25   26 2    
    53   27   28 2    
    54   27   29 am   BACKBONE|DICT|INTERRES
    55   29   30 1    
    56   29   85 1    
    57   30   31 1    
    58   30   32 1    
    59   30   86 1    
    60   31   87 1    
    61   31   88 1    
    62   31   89 1    
    63   32   33 2    
    64   32   34 am   BACKBONE|DICT|INTERRES
    65   34   35 1    
    66   34   90 1    
    67   35   36 1    
    68   35   37 1    
    69   35   91 1    
    70   36   92 1    
    71   36   93 1    
    72   36   94 1    
    73   37   38 2    
    74   37   39 am   BACKBONE|DICT|INTERRES
    75   39   40 1    
    76   39   95 1    
    77   40   41 1    
    78   40   42 1    
    79   40   96 1    
    80   41   97 1    
    81   41   98 1    
    82   41   99 1    
    83   42   43 2    
    84   42   44 am   BACKBONE|DICT|INTERRES
    85   44   45 1    
    86   44  100 1    
    87   45   46 1    
    88   45   47 1    
    89   45  101 1    
    90   46  102 1    
    91   46  103 1    
    92   46  104 1    
    93   47   48 2    
    94   47   49 am   BACKBONE|DICT|INTERRES
    95   49   50 1    
    96   49  105 1    
    97   50   51 1    
    98   50   52 1    
    99   50  106 1    
   100   51  107 1    
   101   51  108 1    
   102   51  109 1    
   103   52   53 2    
   104   52   54 am   BACKBONE|DICT|INTERRES
   105   54   55 1    
   106   54  110 1    
   107   55   56 1    
   108   55   59 1    
   109   55  111 1    
   110   56   57 am   BACKBONE|DICT|INTERRES
   111   56   58 2    
   112   57  112 1    
   113   57  113 1    
   114   59   60 1    
   115   59  114 1    
   116   59  115 1    
   117   60   61 1    
   118   61  116 1    
   119   61  117 1    
@<TRIPOS>SUBSTRUCTURE
     1 UNK         1 GROUP             0       ****    0 ROOT    
