@<TRIPOS>MOLECULE
3R8
117   119    1
SMALL
USER_CHARGES


@<TRIPOS>ATOM
      1 CA         24.4035  -30.6401  -45.6648 C.3       0 UNK        -0.2013 
      2 C          23.0133  -30.4941  -45.0636 C.2       0 UNK         0.4866 
      3 O          22.5307  -31.4121  -44.4033 O.2       0 UNK        -0.5176 
      4 N          22.3652  -29.3505  -45.3076 N.am      1 UNK        -0.4884 
      5 CA         21.0312  -29.0193  -44.8066 C.3       1 UNK         0.0853 
      6 C6         20.3261  -28.0020  -45.7393 C.3       10 UNK        -0.0849 
      7 S7         19.8913  -28.7614  -47.3411 S.3       10 UNK        -0.2776 
      8 C8         18.0674  -28.6640  -47.3439 C.3       10 UNK         0.0316 
      9 C9         17.4284  -29.1996  -46.0666 C.ar      10 UNK        -0.0863 
     10 C10        17.7573  -30.4681  -45.5799 C.ar      10 UNK        -0.1009 
     11 C11        17.1905  -30.9439  -44.3949 C.ar      10 UNK        -0.0712 
     12 C12        16.2667  -30.1517  -43.7056 C.ar      10 UNK        -0.0894 
     13 C13        15.9142  -28.8885  -44.1924 C.ar      10 UNK        -0.0745 
     14 C14        16.5009  -28.4183  -45.3710 C.ar      10 UNK        -0.0972 
     15 C15        14.8704  -28.0480  -43.4687 C.3       10 UNK         0.0209 
     16 S16        15.5281  -27.2380  -41.9769 S.3       10 UNK        -0.2568 
     17 C17        16.6126  -25.9437  -42.6742 C.3       10 UNK        -0.0983 
     18 CA         17.9130  -25.7770  -41.8516 C.3       3 UNK         0.0876 
     19 N          18.6601  -27.0351  -41.7544 N.am      3 UNK        -0.4424 
     20 C          19.6564  -27.2777  -40.8930 C.2       2 UNK         0.4918 
     21 O          20.0652  -26.4604  -40.0694 O.2       2 UNK        -0.4875 
     22 CA         20.3577  -28.6377  -41.0272 C.3       2 UNK         0.0481 
     23 CB         19.6383  -29.6914  -40.1733 C.3       2 UNK        -0.1831 
     24 N          20.4424  -29.0933  -42.4203 N.am      2 UNK        -0.4498 
     25 C          21.1340  -28.4586  -43.3779 C.2       1 UNK         0.5027 
     26 O          21.7788  -27.4240  -43.1796 O.2       1 UNK        -0.4969 
     27 C          18.7701  -24.6097  -42.3944 C.2       3 UNK         0.5005 
     28 O          18.4162  -23.4522  -42.1664 O.2       3 UNK        -0.5279 
     29 N          19.8873  -24.9220  -43.0704 N.am      4 UNK        -0.4463 
     30 CA         20.8979  -23.9613  -43.5233 C.3       4 UNK         0.0283 
     31 CB         21.4108  -24.3909  -44.9087 C.3       4 UNK        -0.1875 
     32 C          22.0691  -23.8356  -42.5278 C.2       4 UNK         0.4949 
     33 O          23.0288  -23.1258  -42.8292 O.2       4 UNK        -0.5039 
     34 N          21.9845  -24.5266  -41.3790 N.am      5 UNK        -0.4663 
     35 CA         22.9857  -24.6150  -40.3099 C.3       5 UNK         0.0242 
     36 CB         23.2081  -23.2409  -39.6409 C.3       5 UNK        -0.1982 
     37 C          24.2971  -25.2981  -40.7480 C.2       5 UNK         0.5017 
     38 O          25.3642  -24.9444  -40.2413 O.2       5 UNK        -0.5012 
     39 N          24.1963  -26.2718  -41.6647 N.am      6 UNK        -0.4439 
     40 CA         25.2975  -27.1410  -42.0824 C.3       6 UNK         0.0297 
     41 CB         25.1894  -27.3926  -43.6000 C.3       6 UNK        -0.2006 
     42 C          25.2957  -28.4239  -41.2243 C.2       6 UNK         0.4892 
     43 O          25.1417  -28.3371  -40.0036 O.2       6 UNK        -0.5089 
     44 N          25.4811  -29.5903  -41.8584 N.am      7 UNK        -0.4243 
     45 CA         25.3898  -30.9106  -41.2268 C.3       7 UNK         0.0196 
     46 CB         25.8942  -31.9769  -42.2138 C.3       7 UNK        -0.2007 
     47 C          23.9531  -31.2356  -40.7817 C.2       7 UNK         0.5020 
     48 O          22.9983  -30.6659  -41.3079 O.2       7 UNK        -0.5147 
     49 N          23.8129  -32.1835  -39.8488 N.am      8 UNK        -0.4734 
     50 CA         22.5343  -32.6095  -39.2653 C.3       8 UNK         0.0238 
     51 CB         22.8084  -33.2286  -37.8808 C.3       8 UNK        -0.1912 
     52 C          21.7058  -33.5445  -40.1778 C.2       8 UNK         0.5038 
     53 O          21.1289  -34.5145  -39.6812 O.2       8 UNK        -0.5046 
     54 N          21.6532  -33.2429  -41.4829 N.am      9 UNK        -0.4200 
     55 CA         20.9513  -34.0028  -42.5328 C.3       9 UNK         0.0839 
     56 C          21.4913  -35.4576  -42.7071 C.2       9 UNK         0.5513 
     57 N          20.7453  -36.3514  -43.3444 N.am      9 UNK        -0.7519 
     58 O          22.6148  -35.7784  -42.3230 O.2       9 UNK        -0.4960 
     59 C59        19.4019  -33.8978  -42.3957 C.3       10 UNK        -0.0876 
     60 S60        18.8309  -32.1708  -42.5580 S.3       10 UNK        -0.2414 
     61 C61        17.5796  -32.3148  -43.8673 C.3       10 UNK         0.0169 
     62 H62        25.1654  -30.5216  -44.8968 H         1 UNK         0.0903 
     63 H63        24.5875  -29.8997  -46.4432 H         1 UNK         0.0903 
     64 H64        24.5185  -31.6284  -46.1093 H         1 UNK         0.0903 
     65 H65        22.8135  -28.6288  -45.8530 H         1 UNK         0.3096 
     66 H66        20.4316  -29.9318  -44.7729 H         1 UNK         0.1121 
     67 H67        20.9724  -27.1462  -45.9365 H         1 UNK         0.0849 
     68 H68        19.4290  -27.5920  -45.2723 H         1 UNK         0.0849 
     69 H69        17.7803  -27.6248  -47.5127 H         1 UNK         0.0865 
     70 H70        17.6844  -29.2289  -48.1947 H         1 UNK         0.0865 
     71 H71        18.4703  -31.0784  -46.1177 H         1 UNK         0.1346 
     72 H72        15.8202  -30.5193  -42.7916 H         1 UNK         0.1412 
     73 H73        16.2279  -27.4431  -45.7510 H         1 UNK         0.1426 
     74 H74        14.4507  -27.2915  -44.1338 H         1 UNK         0.0716 
     75 H75        14.0365  -28.6884  -43.1775 H         1 UNK         0.0716 
     76 H76        16.0463  -25.0105  -42.6898 H         1 UNK         0.0695 
     77 H77        16.8491  -26.1740  -43.7134 H         1 UNK         0.0695 
     78 H78        17.6269  -25.4949  -40.8356 H         1 UNK         0.0983 
     79 H79        18.3654  -27.7752  -42.3747 H         1 UNK         0.3095 
     80 H80        21.3765  -28.5275  -40.6497 H         1 UNK         0.0454 
     81 H81        20.1379  -30.6569  -40.2362 H         1 UNK         0.0851 
     82 H82        18.6025  -29.8299  -40.4862 H         1 UNK         0.0851 
     83 H83        19.6263  -29.4001  -39.1223 H         1 UNK         0.0851 
     84 H84        19.9640  -29.9567  -42.6432 H         1 UNK         0.2976 
     85 H85        20.1340  -25.8975  -43.1759 H         1 UNK         0.3116 
     86 H86        20.4484  -22.9713  -43.6237 H         1 UNK         0.0646 
     87 H87        20.5909  -24.5488  -45.6094 H         1 UNK         0.0847 
     88 H88        22.0576  -23.6247  -45.3378 H         1 UNK         0.0847 
     89 H89        21.9962  -25.3090  -44.8544 H         1 UNK         0.0847 
     90 H90        21.1512  -25.0802  -41.2176 H         1 UNK         0.3040 
     91 H91        22.5557  -25.2745  -39.5541 H         1 UNK         0.1015 
     92 H92        23.7104  -22.5401  -40.3082 H         1 UNK         0.0786 
     93 H93        23.8267  -23.3366  -38.7477 H         1 UNK         0.0786 
     94 H94        22.2638  -22.7929  -39.3315 H         1 UNK         0.0786 
     95 H95        23.2784  -26.5144  -42.0238 H         1 UNK         0.3172 
     96 H96        26.2516  -26.6417  -41.9030 H         1 UNK         0.0595 
     97 H97        26.0584  -27.9308  -43.9802 H         1 UNK         0.0839 
     98 H98        25.1374  -26.4519  -44.1487 H         1 UNK         0.0839 
     99 H99        24.2991  -27.9663  -43.8513 H         1 UNK         0.0839 
    100 H100       25.5816  -29.5760  -42.8608 H         1 UNK         0.2998 
    101 H101       26.0349  -30.9085  -40.3455 H         1 UNK         0.0822 
    102 H102       26.8932  -31.7426  -42.5822 H         1 UNK         0.0787 
    103 H103       25.9497  -32.9559  -41.7361 H         1 UNK         0.0787 
    104 H104       25.2300  -32.0782  -43.0728 H         1 UNK         0.0787 
    105 H105       24.6402  -32.6473  -39.5005 H         1 UNK         0.3055 
    106 H106       21.9236  -31.7191  -39.1041 H         1 UNK         0.1106 
    107 H107       23.3511  -32.5373  -37.2358 H         1 UNK         0.0828 
    108 H108       21.8774  -33.4761  -37.3689 H         1 UNK         0.0828 
    109 H109       23.3922  -34.1465  -37.9586 H         1 UNK         0.0828 
    110 H110       22.1395  -32.4079  -41.7937 H         1 UNK         0.2931 
    111 H111       21.2246  -33.5114  -43.4661 H         1 UNK         0.0412 
    112 H112       19.8346  -36.1179  -43.7058 H         1 UNK         0.3472 
    113 H113       21.1087  -37.2831  -43.4737 H         1 UNK         0.3472 
    114 H114       18.8980  -34.4962  -43.1544 H         1 UNK         0.0970 
    115 H115       19.0687  -34.2926  -41.4349 H         1 UNK         0.0970 
    116 H116       17.9686  -32.9308  -44.6797 H         1 UNK         0.0612 
    117 H117       16.7016  -32.8305  -43.4757 H         1 UNK         0.0612 
@<TRIPOS>BOND
     1    1    2 1    
     2    1   62 1    
     3    1   63 1    
     4    1   64 1    
     5    2    3 2    
     6    2    4 am   BACKBONE|DICT|INTERRES
     7    4    5 1    
     8    4   65 1    
     9    5    6 1    
    10    5   25 1    
    11    5   66 1    
    12    6    7 1    
    13    6   67 1    
    14    6   68 1    
    15    7    8 1    
    16    8    9 1    
    17    8   69 1    
    18    8   70 1    
    19    9   10 ar   
    20    9   14 ar   
    21   10   11 ar   
    22   10   71 1    
    23   11   12 ar   
    24   11   61 1    
    25   12   13 ar   
    26   12   72 1    
    27   13   14 ar   
    28   13   15 1    
    29   14   73 1    
    30   15   16 1    
    31   15   74 1    
    32   15   75 1    
    33   16   17 1    
    34   17   18 1    
    35   17   76 1    
    36   17   77 1    
    37   18   19 1    
    38   18   27 1    
    39   18   78 1    
    40   19   20 am   BACKBONE|DICT|INTERRES
    41   19   79 1    
    42   20   21 2    
    43   20   22 1    
    44   22   23 1    
    45   22   24 1    
    46   22   80 1    
    47   23   81 1    
    48   23   82 1    
    49   23   83 1    
    50   24   25 am   BACKBONE|DICT|INTERRES
    51   24   84 1    
    52   25   26 2    
    53   27   28 2    
    54   27   29 am   BACKBONE|DICT|INTERRES
    55   29   30 1    
    56   29   85 1    
    57   30   31 1    
    58   30   32 1    
    59   30   86 1    
    60   31   87 1    
    61   31   88 1    
    62   31   89 1    
    63   32   33 2    
    64   32   34 am   BACKBONE|DICT|INTERRES
    65   34   35 1    
    66   34   90 1    
    67   35   36 1    
    68   35   37 1    
    69   35   91 1    
    70   36   92 1    
    71   36   93 1    
    72   36   94 1    
    73   37   38 2    
    74   37   39 am   BACKBONE|DICT|INTERRES
    75   39   40 1    
    76   39   95 1    
    77   40   41 1    
    78   40   42 1    
    79   40   96 1    
    80   41   97 1    
    81   41   98 1    
    82   41   99 1    
    83   42   43 2    
    84   42   44 am   BACKBONE|DICT|INTERRES
    85   44   45 1    
    86   44  100 1    
    87   45   46 1    
    88   45   47 1    
    89   45  101 1    
    90   46  102 1    
    91   46  103 1    
    92   46  104 1    
    93   47   48 2    
    94   47   49 am   BACKBONE|DICT|INTERRES
    95   49   50 1    
    96   49  105 1    
    97   50   51 1    
    98   50   52 1    
    99   50  106 1    
   100   51  107 1    
   101   51  108 1    
   102   51  109 1    
   103   52   53 2    
   104   52   54 am   BACKBONE|DICT|INTERRES
   105   54   55 1    
   106   54  110 1    
   107   55   56 1    
   108   55   59 1    
   109   55  111 1    
   110   56   57 am   BACKBONE|DICT|INTERRES
   111   56   58 2    
   112   57  112 1    
   113   57  113 1    
   114   59   60 1    
   115   59  114 1    
   116   59  115 1    
   117   60   61 1    
   118   61  116 1    
   119   61  117 1    
@<TRIPOS>SUBSTRUCTURE
     1 UNK         1 GROUP             0       ****    0 ROOT    
