@<TRIPOS>MOLECULE
3R8
117   119    1
SMALL
USER_CHARGES


@<TRIPOS>ATOM
      1 CA         16.0134  -25.1331  -45.1497 C.3       0 UNK        -0.2013 
      2 C          16.2786  -24.2568  -43.9298 C.2       0 UNK         0.4866 
      3 O          15.7265  -23.1617  -43.8454 O.2       0 UNK        -0.5176 
      4 N          17.1122  -24.6713  -42.9669 N.am      1 UNK        -0.4884 
      5 CA         17.8731  -25.9270  -42.9096 C.3       1 UNK         0.0853 
      6 C6         17.3434  -26.8855  -41.8084 C.3       10 UNK        -0.0849 
      7 S7         15.7169  -27.5856  -42.2453 S.3       10 UNK        -0.2776 
      8 C8         16.0610  -29.3818  -42.2593 C.3       10 UNK         0.0316 
      9 C9         17.1619  -29.8223  -43.2257 C.ar      10 UNK        -0.0863 
     10 C10        18.0274  -30.8556  -42.8504 C.ar      10 UNK        -0.1009 
     11 C11        19.0177  -31.3117  -43.7251 C.ar      10 UNK        -0.0712 
     12 C12        19.1650  -30.7043  -44.9752 C.ar      10 UNK        -0.0894 
     13 C13        18.3117  -29.6695  -45.3660 C.ar      10 UNK        -0.0745 
     14 C14        17.2996  -29.2489  -44.4959 C.ar      10 UNK        -0.0972 
     15 C15        18.4515  -29.0359  -46.7433 C.3       10 UNK         0.0209 
     16 S16        18.9020  -27.2747  -46.6323 S.3       10 UNK        -0.2568 
     17 C17        20.5835  -27.1938  -47.3592 C.3       10 UNK        -0.0983 
     18 CA         21.7233  -26.8372  -46.3600 C.3       3 UNK         0.0876 
     19 N          21.2771  -25.8467  -45.3823 N.am      3 UNK        -0.4424 
     20 C          22.0305  -25.1207  -44.5496 C.2       2 UNK         0.4918 
     21 O          23.2613  -25.1254  -44.5547 O.2       2 UNK        -0.4875 
     22 CA         21.2744  -24.2160  -43.5525 C.3       2 UNK         0.0481 
     23 CB         21.4063  -22.7401  -43.9608 C.3       2 UNK        -0.1831 
     24 N          19.8484  -24.5560  -43.4374 N.am      2 UNK        -0.4498 
     25 C          19.3737  -25.6098  -42.7548 C.2       1 UNK         0.5027 
     26 O          20.0802  -26.3178  -42.0427 O.2       1 UNK        -0.4969 
     27 C          22.3414  -28.0904  -45.7024 C.2       3 UNK         0.5005 
     28 O          22.1065  -28.3659  -44.5219 O.2       3 UNK        -0.5279 
     29 N          23.1280  -28.8285  -46.5023 N.am      4 UNK        -0.4463 
     30 CA         23.8671  -30.0444  -46.1453 C.3       4 UNK         0.0283 
     31 CB         22.8970  -31.2262  -45.9296 C.3       4 UNK        -0.1875 
     32 C          24.8367  -29.7901  -44.9751 C.2       4 UNK         0.4949 
     33 O          25.7569  -28.9869  -45.1325 O.2       4 UNK        -0.5039 
     34 N          24.6159  -30.4506  -43.8312 N.am      5 UNK        -0.4663 
     35 CA         25.4130  -30.2921  -42.6110 C.3       5 UNK         0.0242 
     36 CB         25.4920  -31.6439  -41.8818 C.3       5 UNK        -0.1982 
     37 C          24.8803  -29.1847  -41.6802 C.2       5 UNK         0.5017 
     38 O          25.3350  -29.1073  -40.5389 O.2       5 UNK        -0.5012 
     39 N          23.9323  -28.3635  -42.1588 N.am      6 UNK        -0.4439 
     40 CA         23.2920  -27.2464  -41.4575 C.3       6 UNK         0.0297 
     41 CB         24.3051  -26.1281  -41.1332 C.3       6 UNK        -0.2006 
     42 C          22.4889  -27.7198  -40.2334 C.2       6 UNK         0.4892 
     43 O          22.7728  -27.3135  -39.1054 O.2       6 UNK        -0.5089 
     44 N          21.5188  -28.6072  -40.4965 N.am      7 UNK        -0.4243 
     45 CA         20.5517  -29.2040  -39.5634 C.3       7 UNK         0.0196 
     46 CB         19.7258  -28.1212  -38.8372 C.3       7 UNK        -0.2007 
     47 C          21.1376  -30.2291  -38.5730 C.2       7 UNK         0.5020 
     48 O          20.3676  -30.8432  -37.8344 O.2       7 UNK        -0.5147 
     49 N          22.4610  -30.4461  -38.5862 N.am      8 UNK        -0.4734 
     50 CA         23.1250  -31.5386  -37.8616 C.3       8 UNK         0.0238 
     51 CB         24.6275  -31.2336  -37.7546 C.3       8 UNK        -0.1912 
     52 C          22.8984  -32.9075  -38.5328 C.2       8 UNK         0.5038 
     53 O          23.0256  -33.9411  -37.8756 O.2       8 UNK        -0.5046 
     54 N          22.5746  -32.8739  -39.8291 N.am      9 UNK        -0.4200 
     55 CA         22.1645  -33.9971  -40.6742 C.3       9 UNK         0.0839 
     56 C          20.7934  -34.6005  -40.2614 C.2       9 UNK         0.5513 
     57 N          20.5781  -35.8797  -40.5362 N.am      9 UNK        -0.7519 
     58 O          19.9150  -33.9214  -39.7347 O.2       9 UNK        -0.4960 
     59 C59        22.1925  -33.5912  -42.1750 C.3       10 UNK        -0.0876 
     60 S60        21.4271  -31.9631  -42.5269 S.3       10 UNK        -0.2414 
     61 C61        19.8934  -32.4935  -43.3396 C.3       10 UNK         0.0169 
     62 H62        15.2211  -24.7038  -45.7625 H         1 UNK         0.0903 
     63 H63        16.9058  -25.2094  -45.7690 H         1 UNK         0.0903 
     64 H64        15.6949  -26.1328  -44.8586 H         1 UNK         0.0903 
     65 H65        17.2668  -24.0549  -42.1803 H         1 UNK         0.3096 
     66 H66        17.8177  -26.4583  -43.8594 H         1 UNK         0.1121 
     67 H67        17.2610  -26.3669  -40.8518 H         1 UNK         0.0849 
     68 H68        18.0338  -27.7144  -41.6416 H         1 UNK         0.0849 
     69 H69        16.3088  -29.6856  -41.2408 H         1 UNK         0.0865 
     70 H70        15.1426  -29.9091  -42.5200 H         1 UNK         0.0865 
     71 H71        17.9179  -31.3264  -41.8826 H         1 UNK         0.1346 
     72 H72        19.9292  -31.0543  -45.6540 H         1 UNK         0.1412 
     73 H73        16.6216  -28.4688  -44.8118 H         1 UNK         0.1426 
     74 H74        17.4975  -29.1174  -47.2659 H         1 UNK         0.0716 
     75 H75        19.1748  -29.5803  -47.3513 H         1 UNK         0.0716 
     76 H76        20.5410  -26.4111  -48.1180 H         1 UNK         0.0695 
     77 H77        20.8027  -28.1051  -47.9179 H         1 UNK         0.0695 
     78 H78        22.5284  -26.3662  -46.9286 H         1 UNK         0.0983 
     79 H79        20.2756  -25.7914  -45.2815 H         1 UNK         0.3095 
     80 H80        21.7453  -24.3401  -42.5750 H         1 UNK         0.0454 
     81 H81        22.4547  -22.4444  -44.0213 H         1 UNK         0.0851 
     82 H82        20.9287  -22.0827  -43.2343 H         1 UNK         0.0851 
     83 H83        20.9575  -22.5476  -44.9361 H         1 UNK         0.0851 
     84 H84        19.1984  -23.9919  -43.9668 H         1 UNK         0.2976 
     85 H85        23.2858  -28.4988  -47.4448 H         1 UNK         0.3116 
     86 H86        24.4928  -30.2909  -47.0045 H         1 UNK         0.0646 
     87 H87        22.1962  -31.0309  -45.1206 H         1 UNK         0.0847 
     88 H88        22.3121  -31.4193  -46.8287 H         1 UNK         0.0847 
     89 H89        23.4333  -32.1469  -45.6957 H         1 UNK         0.0847 
     90 H90        23.8070  -31.0535  -43.7713 H         1 UNK         0.3040 
     91 H91        26.4317  -30.0065  -42.8834 H         1 UNK         0.1015 
     92 H92        26.2127  -31.6048  -41.0639 H         1 UNK         0.0786 
     93 H93        25.8091  -32.4442  -42.5507 H         1 UNK         0.0786 
     94 H94        24.5324  -31.9197  -41.4510 H         1 UNK         0.0786 
     95 H95        23.5726  -28.5372  -43.0935 H         1 UNK         0.3172 
     96 H96        22.5742  -26.8309  -42.1625 H         1 UNK         0.0595 
     97 H97        25.0603  -26.4525  -40.4169 H         1 UNK         0.0839 
     98 H98        23.7995  -25.2636  -40.7016 H         1 UNK         0.0839 
     99 H99        24.8170  -25.7871  -42.0332 H         1 UNK         0.0839 
    100 H100       21.3879  -28.8630  -41.4668 H         1 UNK         0.2998 
    101 H101       19.8619  -29.7672  -40.1944 H         1 UNK         0.0822 
    102 H102       18.8841  -28.5650  -38.3042 H         1 UNK         0.0787 
    103 H103       19.3187  -27.3933  -39.5379 H         1 UNK         0.0787 
    104 H104       20.3228  -27.5797  -38.1031 H         1 UNK         0.0787 
    105 H105       23.0409  -29.8557  -39.1677 H         1 UNK         0.3055 
    106 H106       22.7102  -31.5939  -36.8525 H         1 UNK         0.1106 
    107 H107       24.8054  -30.2823  -37.2527 H         1 UNK         0.0828 
    108 H108       25.1418  -32.0046  -37.1792 H         1 UNK         0.0828 
    109 H109       25.1024  -31.1885  -38.7351 H         1 UNK         0.0828 
    110 H110       22.4461  -31.9662  -40.2492 H         1 UNK         0.2931 
    111 H111       22.9115  -34.7807  -40.5316 H         1 UNK         0.0412 
    112 H112       21.2874  -36.4482  -40.9731 H         1 UNK         0.3472 
    113 H113       19.6906  -36.2902  -40.2900 H         1 UNK         0.3472 
    114 H114       23.2281  -33.5431  -42.5118 H         1 UNK         0.0970 
    115 H115       21.7388  -34.3641  -42.7984 H         1 UNK         0.0970 
    116 H116       20.1402  -33.0770  -44.2279 H         1 UNK         0.0612 
    117 H117       19.3456  -33.1617  -42.6732 H         1 UNK         0.0612 
@<TRIPOS>BOND
     1    1    2 1    
     2    1   62 1    
     3    1   63 1    
     4    1   64 1    
     5    2    3 2    
     6    2    4 am   BACKBONE|DICT|INTERRES
     7    4    5 1    
     8    4   65 1    
     9    5    6 1    
    10    5   25 1    
    11    5   66 1    
    12    6    7 1    
    13    6   67 1    
    14    6   68 1    
    15    7    8 1    
    16    8    9 1    
    17    8   69 1    
    18    8   70 1    
    19    9   10 ar   
    20    9   14 ar   
    21   10   11 ar   
    22   10   71 1    
    23   11   12 ar   
    24   11   61 1    
    25   12   13 ar   
    26   12   72 1    
    27   13   14 ar   
    28   13   15 1    
    29   14   73 1    
    30   15   16 1    
    31   15   74 1    
    32   15   75 1    
    33   16   17 1    
    34   17   18 1    
    35   17   76 1    
    36   17   77 1    
    37   18   19 1    
    38   18   27 1    
    39   18   78 1    
    40   19   20 am   BACKBONE|DICT|INTERRES
    41   19   79 1    
    42   20   21 2    
    43   20   22 1    
    44   22   23 1    
    45   22   24 1    
    46   22   80 1    
    47   23   81 1    
    48   23   82 1    
    49   23   83 1    
    50   24   25 am   BACKBONE|DICT|INTERRES
    51   24   84 1    
    52   25   26 2    
    53   27   28 2    
    54   27   29 am   BACKBONE|DICT|INTERRES
    55   29   30 1    
    56   29   85 1    
    57   30   31 1    
    58   30   32 1    
    59   30   86 1    
    60   31   87 1    
    61   31   88 1    
    62   31   89 1    
    63   32   33 2    
    64   32   34 am   BACKBONE|DICT|INTERRES
    65   34   35 1    
    66   34   90 1    
    67   35   36 1    
    68   35   37 1    
    69   35   91 1    
    70   36   92 1    
    71   36   93 1    
    72   36   94 1    
    73   37   38 2    
    74   37   39 am   BACKBONE|DICT|INTERRES
    75   39   40 1    
    76   39   95 1    
    77   40   41 1    
    78   40   42 1    
    79   40   96 1    
    80   41   97 1    
    81   41   98 1    
    82   41   99 1    
    83   42   43 2    
    84   42   44 am   BACKBONE|DICT|INTERRES
    85   44   45 1    
    86   44  100 1    
    87   45   46 1    
    88   45   47 1    
    89   45  101 1    
    90   46  102 1    
    91   46  103 1    
    92   46  104 1    
    93   47   48 2    
    94   47   49 am   BACKBONE|DICT|INTERRES
    95   49   50 1    
    96   49  105 1    
    97   50   51 1    
    98   50   52 1    
    99   50  106 1    
   100   51  107 1    
   101   51  108 1    
   102   51  109 1    
   103   52   53 2    
   104   52   54 am   BACKBONE|DICT|INTERRES
   105   54   55 1    
   106   54  110 1    
   107   55   56 1    
   108   55   59 1    
   109   55  111 1    
   110   56   57 am   BACKBONE|DICT|INTERRES
   111   56   58 2    
   112   57  112 1    
   113   57  113 1    
   114   59   60 1    
   115   59  114 1    
   116   59  115 1    
   117   60   61 1    
   118   61  116 1    
   119   61  117 1    
@<TRIPOS>SUBSTRUCTURE
     1 UNK         1 GROUP             0       ****    0 ROOT    
