@<TRIPOS>MOLECULE
3R8
117   119    1
SMALL
USER_CHARGES


@<TRIPOS>ATOM
      1 CA         12.4716  -25.1771  -43.6677 C.3       0 UNK        -0.2013 
      2 C          13.4381  -26.3371  -43.4773 C.2       0 UNK         0.4866 
      3 O          13.1619  -27.2306  -42.6759 O.2       0 UNK        -0.5176 
      4 N          14.5591  -26.3222  -44.2128 N.am      1 UNK        -0.4884 
      5 CA         15.6522  -27.3079  -44.1851 C.3       1 UNK         0.0853 
      6 C6         15.2049  -28.7352  -44.6253 C.3       10 UNK        -0.0849 
      7 S7         14.8249  -28.7688  -46.4085 S.3       10 UNK        -0.2776 
      8 C8         16.2270  -29.7328  -47.0750 C.3       10 UNK         0.0316 
      9 C9         17.5950  -29.1909  -46.6656 C.ar      10 UNK        -0.0863 
     10 C10        18.5303  -30.0375  -46.0603 C.ar      10 UNK        -0.1009 
     11 C11        19.8019  -29.5656  -45.7189 C.ar      10 UNK        -0.0712 
     12 C12        20.1304  -28.2331  -45.9732 C.ar      10 UNK        -0.0894 
     13 C13        19.1918  -27.3640  -46.5347 C.ar      10 UNK        -0.0745 
     14 C14        17.9365  -27.8557  -46.9052 C.ar      10 UNK        -0.0972 
     15 C15        19.5282  -25.8953  -46.7390 C.3       10 UNK         0.0209 
     16 S16        19.3059  -24.9413  -45.2006 S.3       10 UNK        -0.2568 
     17 C17        20.9154  -25.1874  -44.3705 C.3       10 UNK        -0.0983 
     18 CA         20.8119  -25.6428  -42.8893 C.3       3 UNK         0.0876 
     19 N          19.9227  -26.7985  -42.7082 N.am      3 UNK        -0.4424 
     20 C          19.3024  -27.1211  -41.5641 C.2       2 UNK         0.4918 
     21 O          19.4313  -26.4869  -40.5156 O.2       2 UNK        -0.4875 
     22 CA         18.3704  -28.3464  -41.6304 C.3       2 UNK         0.0481 
     23 CB         17.6786  -28.6627  -40.2879 C.3       2 UNK        -0.1831 
     24 N          17.3960  -28.2258  -42.7208 N.am      2 UNK        -0.4498 
     25 C          16.4519  -27.2806  -42.8618 C.2       1 UNK         0.5027 
     26 O          16.2501  -26.3882  -42.0336 O.2       1 UNK        -0.4969 
     27 C          22.2254  -25.8537  -42.2921 C.2       3 UNK         0.5005 
     28 O          23.0668  -24.9660  -42.4425 O.2       3 UNK        -0.5279 
     29 N          22.4761  -27.0046  -41.6465 N.am      4 UNK        -0.4463 
     30 CA         23.7433  -27.4247  -41.0392 C.3       4 UNK         0.0283 
     31 CB         24.1573  -26.4855  -39.8857 C.3       4 UNK        -0.1875 
     32 C          24.8567  -27.6545  -42.0766 C.2       4 UNK         0.4949 
     33 O          25.9887  -27.2074  -41.8858 O.2       4 UNK        -0.5039 
     34 N          24.5105  -28.3593  -43.1643 N.am      5 UNK        -0.4663 
     35 CA         25.4375  -28.7408  -44.2372 C.3       5 UNK         0.0242 
     36 CB         24.6305  -29.2545  -45.4404 C.3       5 UNK        -0.1982 
     37 C          26.4759  -29.7915  -43.7973 C.2       5 UNK         0.5017 
     38 O          27.6032  -29.7782  -44.2923 O.2       5 UNK        -0.5012 
     39 N          26.0742  -30.6676  -42.8713 N.am      6 UNK        -0.4439 
     40 CA         26.8758  -31.6995  -42.2247 C.3       6 UNK         0.0297 
     41 CB         27.0818  -32.9042  -43.1619 C.3       6 UNK        -0.2006 
     42 C          26.1011  -32.0858  -40.9637 C.2       6 UNK         0.4892 
     43 O          24.9700  -32.5597  -41.0875 O.2       6 UNK        -0.5089 
     44 N          26.6784  -31.8054  -39.7862 N.am      7 UNK        -0.4243 
     45 CA         26.0030  -31.7876  -38.4796 C.3       7 UNK         0.0196 
     46 CB         25.5838  -33.2104  -38.0408 C.3       7 UNK        -0.2007 
     47 C          24.8568  -30.7543  -38.5005 C.2       7 UNK         0.5020 
     48 O          25.0964  -29.6244  -38.9252 O.2       7 UNK        -0.5147 
     49 N          23.6435  -31.1408  -38.0856 N.am      8 UNK        -0.4734 
     50 CA         22.4288  -30.3353  -38.2711 C.3       8 UNK         0.0238 
     51 CB         21.3971  -30.7162  -37.1970 C.3       8 UNK        -0.1912 
     52 C          21.8197  -30.5006  -39.6775 C.2       8 UNK         0.5038 
     53 O          21.1496  -29.5828  -40.1478 O.2       8 UNK        -0.5046 
     54 N          22.0765  -31.6568  -40.3043 N.am      9 UNK        -0.4200 
     55 CA         21.5453  -32.1425  -41.5868 C.3       9 UNK         0.0839 
     56 C          19.9973  -32.3325  -41.6286 C.2       9 UNK         0.5513 
     57 N          19.4592  -32.8108  -42.7425 N.am      9 UNK        -0.7519 
     58 O          19.2812  -32.1143  -40.6536 O.2       9 UNK        -0.4960 
     59 C59        22.1901  -31.4387  -42.8226 C.3       10 UNK        -0.0876 
     60 S60        21.3565  -29.9382  -43.4487 S.3       10 UNK        -0.2414 
     61 C61        20.8312  -30.4988  -45.1009 C.3       10 UNK         0.0169 
     62 H62        11.5000  -25.5481  -43.9929 H         1 UNK         0.0903 
     63 H63        12.3356  -24.6446  -42.7268 H         1 UNK         0.0903 
     64 H64        12.8281  -24.4648  -44.4117 H         1 UNK         0.0903 
     65 H65        14.7179  -25.5387  -44.8307 H         1 UNK         0.3096 
     66 H66        16.3712  -26.9410  -44.9170 H         1 UNK         0.1121 
     67 H67        15.9616  -29.4944  -44.4286 H         1 UNK         0.0849 
     68 H68        14.3253  -29.0642  -44.0716 H         1 UNK         0.0849 
     69 H69        16.1127  -30.7710  -46.7591 H         1 UNK         0.0865 
     70 H70        16.1633  -29.7384  -48.1639 H         1 UNK         0.0865 
     71 H71        18.2765  -31.0721  -45.8729 H         1 UNK         0.1346 
     72 H72        21.1190  -27.8797  -45.7206 H         1 UNK         0.1412 
     73 H73        17.2138  -27.1944  -47.3642 H         1 UNK         0.1426 
     74 H74        20.5479  -25.7844  -47.1108 H         1 UNK         0.0716 
     75 H75        18.8814  -25.4680  -47.5068 H         1 UNK         0.0716 
     76 H76        21.5281  -25.8837  -44.9416 H         1 UNK         0.0695 
     77 H77        21.4419  -24.2327  -44.4271 H         1 UNK         0.0695 
     78 H78        20.3756  -24.8113  -42.3312 H         1 UNK         0.0983 
     79 H79        19.7532  -27.3617  -43.5292 H         1 UNK         0.3095 
     80 H80        18.9967  -29.2040  -41.8752 H         1 UNK         0.0454 
     81 H81        17.0554  -27.8382  -39.9412 H         1 UNK         0.0851 
     82 H82        17.0531  -29.5516  -40.3653 H         1 UNK         0.0851 
     83 H83        18.4204  -28.8582  -39.5124 H         1 UNK         0.0851 
     84 H84        17.5122  -28.8935  -43.4703 H         1 UNK         0.2976 
     85 H85        21.7188  -27.6720  -41.5617 H         1 UNK         0.3116 
     86 H86        23.5493  -28.4020  -40.6033 H         1 UNK         0.0646 
     87 H87        25.0241  -26.8828  -39.3563 H         1 UNK         0.0847 
     88 H88        23.3554  -26.3784  -39.1556 H         1 UNK         0.0847 
     89 H89        24.4261  -25.4911  -40.2421 H         1 UNK         0.0847 
     90 H90        23.5505  -28.6634  -43.2566 H         1 UNK         0.3040 
     91 H91        25.9845  -27.8468  -44.5454 H         1 UNK         0.1015 
     92 H92        23.9122  -28.5110  -45.7868 H         1 UNK         0.0786 
     93 H93        24.0827  -30.1660  -45.1990 H         1 UNK         0.0786 
     94 H94        25.2884  -29.4844  -46.2797 H         1 UNK         0.0786 
     95 H95        25.1359  -30.5810  -42.5068 H         1 UNK         0.3172 
     96 H96        27.8467  -31.2824  -41.9490 H         1 UNK         0.0595 
     97 H97        26.1314  -33.3304  -43.4861 H         1 UNK         0.0839 
     98 H98        27.6409  -33.6951  -42.6605 H         1 UNK         0.0839 
     99 H99        27.6439  -32.6252  -44.0531 H         1 UNK         0.0839 
    100 H100       27.5985  -31.3871  -39.7991 H         1 UNK         0.2998 
    101 H101       26.7321  -31.4183  -37.7568 H         1 UNK         0.0822 
    102 H102       26.4375  -33.8881  -38.0566 H         1 UNK         0.0787 
    103 H103       25.1996  -33.2114  -37.0200 H         1 UNK         0.0787 
    104 H104       24.8164  -33.6385  -38.6864 H         1 UNK         0.0787 
    105 H105       23.5297  -32.0757  -37.7203 H         1 UNK         0.3055 
    106 H106       22.6733  -29.2776  -38.1448 H         1 UNK         0.1106 
    107 H107       20.4915  -30.1160  -37.2990 H         1 UNK         0.0828 
    108 H108       21.1018  -31.7635  -37.2707 H         1 UNK         0.0828 
    109 H109       21.7866  -30.5448  -36.1934 H         1 UNK         0.0828 
    110 H110       22.6846  -32.3096  -39.8338 H         1 UNK         0.2931 
    111 H111       21.9211  -33.1664  -41.6072 H         1 UNK         0.0412 
    112 H112       18.4637  -32.9631  -42.7744 H         1 UNK         0.3472 
    113 H113       20.0280  -33.0423  -43.5399 H         1 UNK         0.3472 
    114 H114       23.2211  -31.1744  -42.5947 H         1 UNK         0.0970 
    115 H115       22.2701  -32.1598  -43.6370 H         1 UNK         0.0970 
    116 H116       21.7014  -30.5583  -45.7554 H         1 UNK         0.0612 
    117 H117       20.4268  -31.5086  -45.0320 H         1 UNK         0.0612 
@<TRIPOS>BOND
     1    1    2 1    
     2    1   62 1    
     3    1   63 1    
     4    1   64 1    
     5    2    3 2    
     6    2    4 am   BACKBONE|DICT|INTERRES
     7    4    5 1    
     8    4   65 1    
     9    5    6 1    
    10    5   25 1    
    11    5   66 1    
    12    6    7 1    
    13    6   67 1    
    14    6   68 1    
    15    7    8 1    
    16    8    9 1    
    17    8   69 1    
    18    8   70 1    
    19    9   10 ar   
    20    9   14 ar   
    21   10   11 ar   
    22   10   71 1    
    23   11   12 ar   
    24   11   61 1    
    25   12   13 ar   
    26   12   72 1    
    27   13   14 ar   
    28   13   15 1    
    29   14   73 1    
    30   15   16 1    
    31   15   74 1    
    32   15   75 1    
    33   16   17 1    
    34   17   18 1    
    35   17   76 1    
    36   17   77 1    
    37   18   19 1    
    38   18   27 1    
    39   18   78 1    
    40   19   20 am   BACKBONE|DICT|INTERRES
    41   19   79 1    
    42   20   21 2    
    43   20   22 1    
    44   22   23 1    
    45   22   24 1    
    46   22   80 1    
    47   23   81 1    
    48   23   82 1    
    49   23   83 1    
    50   24   25 am   BACKBONE|DICT|INTERRES
    51   24   84 1    
    52   25   26 2    
    53   27   28 2    
    54   27   29 am   BACKBONE|DICT|INTERRES
    55   29   30 1    
    56   29   85 1    
    57   30   31 1    
    58   30   32 1    
    59   30   86 1    
    60   31   87 1    
    61   31   88 1    
    62   31   89 1    
    63   32   33 2    
    64   32   34 am   BACKBONE|DICT|INTERRES
    65   34   35 1    
    66   34   90 1    
    67   35   36 1    
    68   35   37 1    
    69   35   91 1    
    70   36   92 1    
    71   36   93 1    
    72   36   94 1    
    73   37   38 2    
    74   37   39 am   BACKBONE|DICT|INTERRES
    75   39   40 1    
    76   39   95 1    
    77   40   41 1    
    78   40   42 1    
    79   40   96 1    
    80   41   97 1    
    81   41   98 1    
    82   41   99 1    
    83   42   43 2    
    84   42   44 am   BACKBONE|DICT|INTERRES
    85   44   45 1    
    86   44  100 1    
    87   45   46 1    
    88   45   47 1    
    89   45  101 1    
    90   46  102 1    
    91   46  103 1    
    92   46  104 1    
    93   47   48 2    
    94   47   49 am   BACKBONE|DICT|INTERRES
    95   49   50 1    
    96   49  105 1    
    97   50   51 1    
    98   50   52 1    
    99   50  106 1    
   100   51  107 1    
   101   51  108 1    
   102   51  109 1    
   103   52   53 2    
   104   52   54 am   BACKBONE|DICT|INTERRES
   105   54   55 1    
   106   54  110 1    
   107   55   56 1    
   108   55   59 1    
   109   55  111 1    
   110   56   57 am   BACKBONE|DICT|INTERRES
   111   56   58 2    
   112   57  112 1    
   113   57  113 1    
   114   59   60 1    
   115   59  114 1    
   116   59  115 1    
   117   60   61 1    
   118   61  116 1    
   119   61  117 1    
@<TRIPOS>SUBSTRUCTURE
     1 UNK         1 GROUP             0       ****    0 ROOT    
