@<TRIPOS>MOLECULE
3R8
117   119    1
SMALL
USER_CHARGES


@<TRIPOS>ATOM
      1 CA         14.4581  -22.8580  -47.8017 C.3       0 UNK        -0.2013 
      2 C          15.8446  -23.3238  -47.3835 C.2       0 UNK         0.4866 
      3 O          16.7631  -22.5089  -47.2948 O.2       0 UNK        -0.5176 
      4 N          16.0039  -24.6290  -47.1232 N.am      1 UNK        -0.4884 
      5 CA         17.2700  -25.2489  -46.7038 C.3       1 UNK         0.0853 
      6 C6         17.2723  -26.7731  -47.0023 C.3       10 UNK        -0.0849 
      7 S7         18.9254  -27.3917  -47.4665 S.3       10 UNK        -0.2776 
      8 C8         18.6814  -29.1960  -47.3982 C.3       10 UNK         0.0316 
      9 C9         18.7333  -29.7179  -45.9698 C.ar      10 UNK        -0.0863 
     10 C10        19.9653  -29.9813  -45.3632 C.ar      10 UNK        -0.1009 
     11 C11        20.0242  -30.4470  -44.0464 C.ar      10 UNK        -0.0712 
     12 C12        18.8377  -30.6536  -43.3358 C.ar      10 UNK        -0.0894 
     13 C13        17.6008  -30.3821  -43.9288 C.ar      10 UNK        -0.0745 
     14 C14        17.5542  -29.9309  -45.2507 C.ar      10 UNK        -0.0972 
     15 C15        16.3124  -30.5368  -43.1357 C.3       10 UNK         0.0209 
     16 S16        15.6653  -28.9171  -42.6057 S.3       10 UNK        -0.2568 
     17 C17        16.8306  -28.4594  -41.2760 C.3       10 UNK        -0.0983 
     18 CA         18.0228  -27.5893  -41.7670 C.3       3 UNK         0.0876 
     19 N          17.6295  -26.3763  -42.4884 N.am      3 UNK        -0.4424 
     20 C          16.9613  -25.3202  -42.0133 C.2       2 UNK         0.4918 
     21 O          16.5686  -25.2218  -40.8506 O.2       2 UNK        -0.4875 
     22 CA         16.6600  -24.1714  -42.9986 C.3       2 UNK         0.0481 
     23 CB         17.6149  -22.9854  -42.7589 C.3       2 UNK        -0.1831 
     24 N          16.6208  -24.5430  -44.4253 N.am      2 UNK        -0.4498 
     25 C          17.6190  -24.9563  -45.2250 C.2       1 UNK         0.5027 
     26 O          18.7701  -25.1367  -44.8278 O.2       1 UNK        -0.4969 
     27 C          19.0576  -27.2956  -40.6597 C.2       3 UNK         0.5005 
     28 O          18.9628  -27.8400  -39.5574 O.2       3 UNK        -0.5279 
     29 N          20.0384  -26.4437  -40.9814 N.am      4 UNK        -0.4463 
     30 CA         21.1928  -26.1308  -40.1468 C.3       4 UNK         0.0283 
     31 CB         21.0355  -24.7217  -39.5503 C.3       4 UNK        -0.1875 
     32 C          22.4329  -26.2277  -41.0386 C.2       4 UNK         0.4949 
     33 O          22.4883  -25.5516  -42.0678 O.2       4 UNK        -0.5039 
     34 N          23.3881  -27.0733  -40.6446 N.am      5 UNK        -0.4663 
     35 CA         24.6329  -27.3529  -41.3560 C.3       5 UNK         0.0242 
     36 CB         24.3490  -28.2024  -42.6140 C.3       5 UNK        -0.1982 
     37 C          25.5771  -28.1061  -40.4110 C.2       5 UNK         0.5017 
     38 O          25.1350  -28.6058  -39.3729 O.2       5 UNK        -0.5012 
     39 N          26.8495  -28.2152  -40.8141 N.am      6 UNK        -0.4439 
     40 CA         27.8554  -29.0649  -40.1641 C.3       6 UNK         0.0297 
     41 CB         29.2575  -28.5432  -40.5217 C.3       6 UNK        -0.2006 
     42 C          27.7206  -30.5553  -40.5437 C.2       6 UNK         0.4892 
     43 O          28.3437  -31.3992  -39.8979 O.2       6 UNK        -0.5089 
     44 N          26.9357  -30.8481  -41.5905 N.am      7 UNK        -0.4243 
     45 CA         26.6200  -32.1887  -42.0826 C.3       7 UNK         0.0196 
     46 CB         25.9503  -32.0521  -43.4608 C.3       7 UNK        -0.2007 
     47 C          25.7129  -32.9738  -41.1187 C.2       7 UNK         0.5020 
     48 O          25.0433  -32.3832  -40.2682 O.2       7 UNK        -0.5147 
     49 N          25.6715  -34.2999  -41.3086 N.am      8 UNK        -0.4734 
     50 CA         24.9147  -35.2604  -40.4920 C.3       8 UNK         0.0238 
     51 CB         25.2375  -36.6866  -40.9680 C.3       8 UNK        -0.1912 
     52 C          23.3896  -35.0392  -40.4584 C.2       8 UNK         0.5038 
     53 O          22.7405  -35.5079  -39.5223 O.2       8 UNK        -0.5046 
     54 N          22.8498  -34.3287  -41.4570 N.am      9 UNK        -0.4200 
     55 CA         21.4619  -33.8471  -41.4896 C.3       9 UNK         0.0839 
     56 C          21.1343  -32.7229  -40.4623 C.2       9 UNK         0.5513 
     57 N          22.1121  -32.0802  -39.8330 N.am      9 UNK        -0.7519 
     58 O          19.9637  -32.4333  -40.2309 O.2       9 UNK        -0.4960 
     59 C59        21.0129  -33.4724  -42.9279 C.3       10 UNK        -0.0876 
     60 S60        22.1102  -32.2847  -43.7843 S.3       10 UNK        -0.2414 
     61 C61        21.3721  -30.6694  -43.3769 C.3       10 UNK         0.0169 
     62 H62        13.7443  -23.6808  -47.8402 H         1 UNK         0.0903 
     63 H63        14.0830  -22.1163  -47.0969 H         1 UNK         0.0903 
     64 H64        14.4991  -22.3990  -48.7893 H         1 UNK         0.0903 
     65 H65        15.2145  -25.2532  -47.2196 H         1 UNK         0.3096 
     66 H66        18.0594  -24.7830  -47.2990 H         1 UNK         0.1121 
     67 H67        16.8757  -27.3436  -46.1609 H         1 UNK         0.0849 
     68 H68        16.6161  -26.9962  -47.8454 H         1 UNK         0.0849 
     69 H69        17.7362  -29.4609  -47.8749 H         1 UNK         0.0865 
     70 H70        19.4618  -29.6785  -47.9887 H         1 UNK         0.0865 
     71 H71        20.8814  -29.8091  -45.9119 H         1 UNK         0.1346 
     72 H72        18.8780  -30.9922  -42.3091 H         1 UNK         0.1412 
     73 H73        16.5969  -29.7212  -45.7084 H         1 UNK         0.1426 
     74 H74        16.4595  -31.1809  -42.2673 H         1 UNK         0.0716 
     75 H75        15.5631  -31.0294  -43.7571 H         1 UNK         0.0716 
     76 H76        17.1932  -29.3750  -40.8052 H         1 UNK         0.0695 
     77 H77        16.2684  -27.9302  -40.5050 H         1 UNK         0.0695 
     78 H78        18.5738  -28.1723  -42.5015 H         1 UNK         0.0983 
     79 H79        17.9642  -26.3043  -43.4425 H         1 UNK         0.3095 
     80 H80        15.6512  -23.8287  -42.7636 H         1 UNK         0.0454 
     81 H81        17.5479  -22.6345  -41.7283 H         1 UNK         0.0851 
     82 H82        17.3700  -22.1418  -43.4042 H         1 UNK         0.0851 
     83 H83        18.6560  -23.2548  -42.9389 H         1 UNK         0.0851 
     84 H84        15.7104  -24.4646  -44.8568 H         1 UNK         0.2976 
     85 H85        20.0711  -26.0598  -41.9175 H         1 UNK         0.3116 
     86 H86        21.2854  -26.8502  -39.3301 H         1 UNK         0.0646 
     87 H87        20.1505  -24.6583  -38.9170 H         1 UNK         0.0847 
     88 H88        20.9454  -23.9604  -40.3264 H         1 UNK         0.0847 
     89 H89        21.8966  -24.4610  -38.9340 H         1 UNK         0.0847 
     90 H90        23.2980  -27.5795  -39.7705 H         1 UNK         0.3040 
     91 H91        25.0988  -26.4062  -41.6390 H         1 UNK         0.1015 
     92 H92        25.2582  -28.3776  -43.1898 H         1 UNK         0.0786 
     93 H93        23.6436  -27.7116  -43.2846 H         1 UNK         0.0786 
     94 H94        23.9353  -29.1767  -42.3500 H         1 UNK         0.0786 
     95 H95        27.1334  -27.7521  -41.6667 H         1 UNK         0.3172 
     96 H96        27.7325  -28.9915  -39.0813 H         1 UNK         0.0595 
     97 H97        30.0308  -29.1296  -40.0232 H         1 UNK         0.0839 
     98 H98        29.3884  -27.5074  -40.2080 H         1 UNK         0.0839 
     99 H99        29.4495  -28.5980  -41.5940 H         1 UNK         0.0839 
    100 H100       26.4479  -30.0859  -42.0330 H         1 UNK         0.2998 
    101 H101       27.5571  -32.7383  -42.1951 H         1 UNK         0.0822 
    102 H102       25.7045  -33.0267  -43.8845 H         1 UNK         0.0787 
    103 H103       26.6070  -31.5511  -44.1725 H         1 UNK         0.0787 
    104 H104       25.0237  -31.4799  -43.4022 H         1 UNK         0.0787 
    105 H105       26.2370  -34.6948  -42.0471 H         1 UNK         0.3055 
    106 H106       25.2656  -35.1557  -39.4629 H         1 UNK         0.1106 
    107 H107       26.3033  -36.9017  -40.8890 H         1 UNK         0.0828 
    108 H108       24.7157  -37.4291  -40.3622 H         1 UNK         0.0828 
    109 H109       24.9370  -36.8439  -42.0046 H         1 UNK         0.0828 
    110 H110       23.4579  -33.9685  -42.1770 H         1 UNK         0.2931 
    111 H111       20.8380  -34.6911  -41.1886 H         1 UNK         0.0412 
    112 H112       23.0877  -32.2892  -40.0214 H         1 UNK         0.3472 
    113 H113       21.8769  -31.3624  -39.1671 H         1 UNK         0.3472 
    114 H114       20.9959  -34.3788  -43.5346 H         1 UNK         0.0970 
    115 H115       19.9833  -33.1149  -42.9373 H         1 UNK         0.0970 
    116 H116       21.2894  -30.5548  -42.2962 H         1 UNK         0.0612 
    117 H117       22.0604  -29.8899  -43.7048 H         1 UNK         0.0612 
@<TRIPOS>BOND
     1    1    2 1    
     2    1   62 1    
     3    1   63 1    
     4    1   64 1    
     5    2    3 2    
     6    2    4 am   BACKBONE|DICT|INTERRES
     7    4    5 1    
     8    4   65 1    
     9    5    6 1    
    10    5   25 1    
    11    5   66 1    
    12    6    7 1    
    13    6   67 1    
    14    6   68 1    
    15    7    8 1    
    16    8    9 1    
    17    8   69 1    
    18    8   70 1    
    19    9   10 ar   
    20    9   14 ar   
    21   10   11 ar   
    22   10   71 1    
    23   11   12 ar   
    24   11   61 1    
    25   12   13 ar   
    26   12   72 1    
    27   13   14 ar   
    28   13   15 1    
    29   14   73 1    
    30   15   16 1    
    31   15   74 1    
    32   15   75 1    
    33   16   17 1    
    34   17   18 1    
    35   17   76 1    
    36   17   77 1    
    37   18   19 1    
    38   18   27 1    
    39   18   78 1    
    40   19   20 am   BACKBONE|DICT|INTERRES
    41   19   79 1    
    42   20   21 2    
    43   20   22 1    
    44   22   23 1    
    45   22   24 1    
    46   22   80 1    
    47   23   81 1    
    48   23   82 1    
    49   23   83 1    
    50   24   25 am   BACKBONE|DICT|INTERRES
    51   24   84 1    
    52   25   26 2    
    53   27   28 2    
    54   27   29 am   BACKBONE|DICT|INTERRES
    55   29   30 1    
    56   29   85 1    
    57   30   31 1    
    58   30   32 1    
    59   30   86 1    
    60   31   87 1    
    61   31   88 1    
    62   31   89 1    
    63   32   33 2    
    64   32   34 am   BACKBONE|DICT|INTERRES
    65   34   35 1    
    66   34   90 1    
    67   35   36 1    
    68   35   37 1    
    69   35   91 1    
    70   36   92 1    
    71   36   93 1    
    72   36   94 1    
    73   37   38 2    
    74   37   39 am   BACKBONE|DICT|INTERRES
    75   39   40 1    
    76   39   95 1    
    77   40   41 1    
    78   40   42 1    
    79   40   96 1    
    80   41   97 1    
    81   41   98 1    
    82   41   99 1    
    83   42   43 2    
    84   42   44 am   BACKBONE|DICT|INTERRES
    85   44   45 1    
    86   44  100 1    
    87   45   46 1    
    88   45   47 1    
    89   45  101 1    
    90   46  102 1    
    91   46  103 1    
    92   46  104 1    
    93   47   48 2    
    94   47   49 am   BACKBONE|DICT|INTERRES
    95   49   50 1    
    96   49  105 1    
    97   50   51 1    
    98   50   52 1    
    99   50  106 1    
   100   51  107 1    
   101   51  108 1    
   102   51  109 1    
   103   52   53 2    
   104   52   54 am   BACKBONE|DICT|INTERRES
   105   54   55 1    
   106   54  110 1    
   107   55   56 1    
   108   55   59 1    
   109   55  111 1    
   110   56   57 am   BACKBONE|DICT|INTERRES
   111   56   58 2    
   112   57  112 1    
   113   57  113 1    
   114   59   60 1    
   115   59  114 1    
   116   59  115 1    
   117   60   61 1    
   118   61  116 1    
   119   61  117 1    
@<TRIPOS>SUBSTRUCTURE
     1 UNK         1 GROUP             0       ****    0 ROOT    
