@<TRIPOS>MOLECULE
3R8
117   119    1
SMALL
USER_CHARGES


@<TRIPOS>ATOM
      1 CA         18.9933  -22.3861  -43.5384 C.3       0 UNK        -0.2013 
      2 C          17.8172  -23.0626  -42.8378 C.2       0 UNK         0.4866 
      3 O          17.2436  -22.4753  -41.9224 O.2       0 UNK        -0.5176 
      4 N          17.4065  -24.2779  -43.2294 N.am      1 UNK        -0.4884 
      5 CA         18.0156  -25.1402  -44.2504 C.3       1 UNK         0.0853 
      6 C6         16.9955  -26.2012  -44.7606 C.3       10 UNK        -0.0849 
      7 S7         17.3860  -26.8202  -46.4392 S.3       10 UNK        -0.2776 
      8 C8         16.3873  -28.3402  -46.5573 C.3       10 UNK         0.0316 
      9 C9         16.9401  -29.4908  -45.7226 C.ar      10 UNK        -0.0863 
     10 C10        18.0090  -30.2654  -46.1917 C.ar      10 UNK        -0.1009 
     11 C11        18.4723  -31.3597  -45.4502 C.ar      10 UNK        -0.0712 
     12 C12        17.8609  -31.6744  -44.2349 C.ar      10 UNK        -0.0894 
     13 C13        16.7992  -30.9059  -43.7534 C.ar      10 UNK        -0.0745 
     14 C14        16.3417  -29.8172  -44.5019 C.ar      10 UNK        -0.0972 
     15 C15        16.1439  -31.2559  -42.4247 C.3       10 UNK         0.0209 
     16 S16        17.3067  -31.1377  -41.0273 S.3       10 UNK        -0.2568 
     17 C17        17.8850  -29.4162  -41.1737 C.3       10 UNK        -0.0983 
     18 CA         19.4128  -29.3474  -41.4647 C.3       3 UNK         0.0876 
     19 N          19.7175  -28.6940  -42.7420 N.am      3 UNK        -0.4424 
     20 C          20.9517  -28.4726  -43.2211 C.2       2 UNK         0.4918 
     21 O          21.9663  -28.9666  -42.7306 O.2       2 UNK        -0.4875 
     22 CA         21.1047  -27.4472  -44.3642 C.3       2 UNK         0.0481 
     23 CB         21.5144  -28.1031  -45.6880 C.3       2 UNK        -0.1831 
     24 N          19.9231  -26.6188  -44.6065 N.am      2 UNK        -0.4498 
     25 C          19.3244  -25.7909  -43.7435 C.2       1 UNK         0.5027 
     26 O          19.7416  -25.5875  -42.5982 O.2       1 UNK        -0.4969 
     27 C          20.1537  -28.6795  -40.2868 C.2       3 UNK         0.5005 
     28 O          20.7581  -29.3776  -39.4722 O.2       3 UNK        -0.5279 
     29 N          20.1205  -27.3413  -40.2486 N.am      4 UNK        -0.4463 
     30 CA         20.8490  -26.5299  -39.2800 C.3       4 UNK         0.0283 
     31 CB         20.0346  -25.2667  -38.9531 C.3       4 UNK        -0.1875 
     32 C          22.2344  -26.1584  -39.8211 C.2       4 UNK         0.4949 
     33 O          23.2285  -26.3503  -39.1217 O.2       4 UNK        -0.5039 
     34 N          22.2772  -25.6305  -41.0535 N.am      5 UNK        -0.4663 
     35 CA         23.4736  -25.0149  -41.6379 C.3       5 UNK         0.0242 
     36 CB         23.0702  -24.1471  -42.8423 C.3       5 UNK        -0.1982 
     37 C          24.6057  -25.9927  -42.0036 C.2       5 UNK         0.5017 
     38 O          25.7509  -25.5497  -42.1004 O.2       5 UNK        -0.5012 
     39 N          24.2903  -27.2814  -42.1915 N.am      6 UNK        -0.4439 
     40 CA         25.2533  -28.3398  -42.5108 C.3       6 UNK         0.0297 
     41 CB         25.1007  -28.7451  -43.9891 C.3       6 UNK        -0.2006 
     42 C          25.1250  -29.5499  -41.5671 C.2       6 UNK         0.4892 
     43 O          25.6452  -30.6126  -41.9056 O.2       6 UNK        -0.5089 
     44 N          24.4635  -29.3696  -40.4096 N.am      7 UNK        -0.4243 
     45 CA         24.2691  -30.3429  -39.3237 C.3       7 UNK         0.0196 
     46 CB         25.5983  -30.5760  -38.5757 C.3       7 UNK        -0.2007 
     47 C          23.6313  -31.6610  -39.8050 C.2       7 UNK         0.5020 
     48 O          24.3264  -32.6663  -39.9679 O.2       7 UNK        -0.5147 
     49 N          22.3169  -31.6145  -40.0641 N.am      8 UNK        -0.4734 
     50 CA         21.4743  -32.7032  -40.5880 C.3       8 UNK         0.0238 
     51 CB         21.3758  -33.8565  -39.5664 C.3       8 UNK        -0.1912 
     52 C          21.8939  -33.1948  -41.9899 C.2       8 UNK         0.5038 
     53 O          21.5632  -34.3230  -42.3592 O.2       8 UNK        -0.5046 
     54 N          22.6249  -32.3506  -42.7317 N.am      9 UNK        -0.4200 
     55 CA         23.2896  -32.6633  -44.0079 C.3       9 UNK         0.0839 
     56 C          24.4062  -33.7468  -43.8927 C.2       9 UNK         0.5513 
     57 N          24.9810  -33.9812  -42.7178 N.am      9 UNK        -0.7519 
     58 O          24.7794  -34.3695  -44.8840 O.2       9 UNK        -0.4960 
     59 C59        22.2909  -32.9261  -45.1737 C.3       10 UNK        -0.0876 
     60 S60        21.2144  -31.4818  -45.4513 S.3       10 UNK        -0.2414 
     61 C61        19.6291  -32.2142  -45.9466 C.3       10 UNK         0.0169 
     62 H62        18.8155  -22.2959  -44.6093 H         1 UNK         0.0903 
     63 H63        19.1406  -21.3800  -43.1461 H         1 UNK         0.0903 
     64 H64        19.9176  -22.9387  -43.3763 H         1 UNK         0.0903 
     65 H65        16.6380  -24.6945  -42.7239 H         1 UNK         0.3096 
     66 H66        18.2851  -24.5067  -45.0976 H         1 UNK         0.1121 
     67 H67        15.9990  -25.7597  -44.8206 H         1 UNK         0.0849 
     68 H68        16.9074  -27.0329  -44.0597 H         1 UNK         0.0849 
     69 H69        15.3569  -28.1171  -46.2753 H         1 UNK         0.0865 
     70 H70        16.3482  -28.6481  -47.6033 H         1 UNK         0.0865 
     71 H71        18.4757  -30.0220  -47.1365 H         1 UNK         0.1346 
     72 H72        18.2178  -32.5146  -43.6548 H         1 UNK         0.1412 
     73 H73        15.5099  -29.2289  -44.1386 H         1 UNK         0.1426 
     74 H74        15.7529  -32.2729  -42.4755 H         1 UNK         0.0716 
     75 H75        15.2892  -30.6069  -42.2275 H         1 UNK         0.0716 
     76 H76        17.6073  -28.9125  -40.2448 H         1 UNK         0.0695 
     77 H77        17.3117  -28.8958  -41.9412 H         1 UNK         0.0695 
     78 H78        19.8171  -30.3540  -41.5610 H         1 UNK         0.0983 
     79 H79        18.9393  -28.2923  -43.2401 H         1 UNK         0.3095 
     80 H80        21.9161  -26.7854  -44.0660 H         1 UNK         0.0454 
     81 H81        21.7957  -27.3545  -46.4286 H         1 UNK         0.0851 
     82 H82        22.3739  -28.7596  -45.5578 H         1 UNK         0.0851 
     83 H83        20.7031  -28.6973  -46.1086 H         1 UNK         0.0851 
     84 H84        19.4711  -26.7487  -45.5040 H         1 UNK         0.2976 
     85 H85        19.6630  -26.8403  -41.0031 H         1 UNK         0.3116 
     86 H86        20.9849  -27.0899  -38.3519 H         1 UNK         0.0646 
     87 H87        19.8366  -24.6641  -39.8409 H         1 UNK         0.0847 
     88 H88        20.5656  -24.6339  -38.2408 H         1 UNK         0.0847 
     89 H89        19.0746  -25.5223  -38.5045 H         1 UNK         0.0847 
     90 H90        21.4088  -25.5259  -41.5706 H         1 UNK         0.3040 
     91 H91        23.8895  -24.3438  -40.8824 H         1 UNK         0.1015 
     92 H92        23.9390  -23.6423  -43.2670 H         1 UNK         0.0786 
     93 H93        22.3617  -23.3722  -42.5494 H         1 UNK         0.0786 
     94 H94        22.6144  -24.7297  -43.6403 H         1 UNK         0.0786 
     95 H95        23.3226  -27.5787  -42.1237 H         1 UNK         0.3172 
     96 H96        26.2714  -27.9712  -42.3722 H         1 UNK         0.0595 
     97 H97        24.1594  -29.2628  -44.1670 H         1 UNK         0.0839 
     98 H98        25.9011  -29.4205  -44.2937 H         1 UNK         0.0839 
     99 H99        25.1410  -27.8783  -44.6488 H         1 UNK         0.0839 
    100 H100       24.0852  -28.4487  -40.2324 H         1 UNK         0.2998 
    101 H101       23.5711  -29.8883  -38.6182 H         1 UNK         0.0822 
    102 H102       25.9919  -29.6448  -38.1684 H         1 UNK         0.0787 
    103 H103       25.4592  -31.2633  -37.7403 H         1 UNK         0.0787 
    104 H104       26.3613  -31.0058  -39.2260 H         1 UNK         0.0787 
    105 H105       21.8256  -30.7395  -39.8746 H         1 UNK         0.3055 
    106 H106       20.4694  -32.2982  -40.7004 H         1 UNK         0.1106 
    107 H107       21.0759  -33.4921  -38.5840 H         1 UNK         0.0828 
    108 H108       20.6326  -34.5921  -39.8765 H         1 UNK         0.0828 
    109 H109       22.3241  -34.3830  -39.4551 H         1 UNK         0.0828 
    110 H110       22.8370  -31.4421  -42.3441 H         1 UNK         0.2931 
    111 H111       23.8370  -31.7553  -44.2630 H         1 UNK         0.0412 
    112 H112       24.7145  -33.4518  -41.8945 H         1 UNK         0.3472 
    113 H113       25.7091  -34.6743  -42.6539 H         1 UNK         0.3472 
    114 H114       22.8240  -33.1190  -46.1061 H         1 UNK         0.0970 
    115 H115       21.6938  -33.8164  -44.9735 H         1 UNK         0.0970 
    116 H116       19.5969  -32.3046  -47.0332 H         1 UNK         0.0612 
    117 H117       19.5392  -33.2257  -45.5483 H         1 UNK         0.0612 
@<TRIPOS>BOND
     1    1    2 1    
     2    1   62 1    
     3    1   63 1    
     4    1   64 1    
     5    2    3 2    
     6    2    4 am   BACKBONE|DICT|INTERRES
     7    4    5 1    
     8    4   65 1    
     9    5    6 1    
    10    5   25 1    
    11    5   66 1    
    12    6    7 1    
    13    6   67 1    
    14    6   68 1    
    15    7    8 1    
    16    8    9 1    
    17    8   69 1    
    18    8   70 1    
    19    9   10 ar   
    20    9   14 ar   
    21   10   11 ar   
    22   10   71 1    
    23   11   12 ar   
    24   11   61 1    
    25   12   13 ar   
    26   12   72 1    
    27   13   14 ar   
    28   13   15 1    
    29   14   73 1    
    30   15   16 1    
    31   15   74 1    
    32   15   75 1    
    33   16   17 1    
    34   17   18 1    
    35   17   76 1    
    36   17   77 1    
    37   18   19 1    
    38   18   27 1    
    39   18   78 1    
    40   19   20 am   BACKBONE|DICT|INTERRES
    41   19   79 1    
    42   20   21 2    
    43   20   22 1    
    44   22   23 1    
    45   22   24 1    
    46   22   80 1    
    47   23   81 1    
    48   23   82 1    
    49   23   83 1    
    50   24   25 am   BACKBONE|DICT|INTERRES
    51   24   84 1    
    52   25   26 2    
    53   27   28 2    
    54   27   29 am   BACKBONE|DICT|INTERRES
    55   29   30 1    
    56   29   85 1    
    57   30   31 1    
    58   30   32 1    
    59   30   86 1    
    60   31   87 1    
    61   31   88 1    
    62   31   89 1    
    63   32   33 2    
    64   32   34 am   BACKBONE|DICT|INTERRES
    65   34   35 1    
    66   34   90 1    
    67   35   36 1    
    68   35   37 1    
    69   35   91 1    
    70   36   92 1    
    71   36   93 1    
    72   36   94 1    
    73   37   38 2    
    74   37   39 am   BACKBONE|DICT|INTERRES
    75   39   40 1    
    76   39   95 1    
    77   40   41 1    
    78   40   42 1    
    79   40   96 1    
    80   41   97 1    
    81   41   98 1    
    82   41   99 1    
    83   42   43 2    
    84   42   44 am   BACKBONE|DICT|INTERRES
    85   44   45 1    
    86   44  100 1    
    87   45   46 1    
    88   45   47 1    
    89   45  101 1    
    90   46  102 1    
    91   46  103 1    
    92   46  104 1    
    93   47   48 2    
    94   47   49 am   BACKBONE|DICT|INTERRES
    95   49   50 1    
    96   49  105 1    
    97   50   51 1    
    98   50   52 1    
    99   50  106 1    
   100   51  107 1    
   101   51  108 1    
   102   51  109 1    
   103   52   53 2    
   104   52   54 am   BACKBONE|DICT|INTERRES
   105   54   55 1    
   106   54  110 1    
   107   55   56 1    
   108   55   59 1    
   109   55  111 1    
   110   56   57 am   BACKBONE|DICT|INTERRES
   111   56   58 2    
   112   57  112 1    
   113   57  113 1    
   114   59   60 1    
   115   59  114 1    
   116   59  115 1    
   117   60   61 1    
   118   61  116 1    
   119   61  117 1    
@<TRIPOS>SUBSTRUCTURE
     1 UNK         1 GROUP             0       ****    0 ROOT    
